MODEL 1
REMARK VINA RESULT:      -6.7      0.000      0.000
REMARK  6 active torsions:
REMARK  status: ('A' for Active; 'I' for Inactive)
REMARK    1  A    between atoms: C_2  and  C_3 
REMARK    2  A    between atoms: C_3  and  C_5 
REMARK    3  A    between atoms: C_3  and  N_18 
REMARK    4  A    between atoms: C_5  and  N_6 
REMARK       I    between atoms: N_6  and  C_7 
REMARK    5  A    between atoms: C_7  and  C_9 
REMARK    6  A    between atoms: C_9  and  N_10 
ROOT
HETATM    1  N   UNL     1     -43.319 -49.767  12.520  1.00  0.00    -0.357 N 
HETATM    2  C   UNL     1     -42.973 -48.472  12.169  1.00  0.00     0.237 C 
HETATM    3  O   UNL     1     -42.917 -47.550  12.979  1.00  0.00    -0.272 OA
HETATM    4  H   UNL     1     -43.611 -50.404  11.786  1.00  0.00     0.162 HD
ENDROOT
BRANCH   1   5
HETATM    5  C   UNL     1     -43.799 -50.107  13.859  1.00  0.00     0.164 C 
BRANCH   5   6
HETATM    6  C   UNL     1     -44.693 -51.403  13.874  1.00  0.00     0.171 C 
HETATM    7  C   UNL     1     -45.733 -51.212  12.732  1.00  0.00     0.051 C 
BRANCH   6   8
HETATM    8  C   UNL     1     -45.466 -51.512  15.221  1.00  0.00     0.038 C 
HETATM    9  C   UNL     1     -46.985 -51.630  15.165  1.00  0.00     0.007 C 
ENDBRANCH   6   8
BRANCH   6  10
HETATM   10  N   UNL     1     -43.870 -52.626  13.569  1.00  0.00     0.103 N 
HETATM   11  C   UNL     1     -44.532 -53.720  12.818  1.00  0.00     0.299 C 
HETATM   12  C   UNL     1     -45.270 -54.760  13.683  1.00  0.00     0.198 C 
HETATM   13  O   UNL     1     -44.405 -55.331  14.669  1.00  0.00    -0.388 OA
HETATM   14  C   UNL     1     -43.831 -54.317  15.498  1.00  0.00     0.198 C 
HETATM   15  C   UNL     1     -43.097 -53.248  14.669  1.00  0.00     0.299 C 
ENDBRANCH   6  10
ENDBRANCH   5   6
ENDBRANCH   1   5
BRANCH   2  16
HETATM   16  C   UNL     1     -42.626 -48.282  10.690  1.00  0.00     0.255 C 
BRANCH  16  17
HETATM   17  N   UNL     1     -43.603 -47.422  10.041  1.00  0.00    -0.246 N 
HETATM   18  N   UNL     1     -44.873 -47.977   9.828  1.00  0.00    -0.261 N 
HETATM   19  C   UNL     1     -45.877 -47.303   9.188  1.00  0.00     0.260 A 
HETATM   20  H   UNL     1     -45.013 -48.971   9.985  1.00  0.00     0.190 HD
HETATM   21  O   UNL     1     -46.969 -47.800   8.946  1.00  0.00    -0.267 OA
HETATM   22  C   UNL     1     -45.582 -45.909   8.805  1.00  0.00     0.081 A 
HETATM   23  C   UNL     1     -44.378 -45.371   9.018  1.00  0.00     0.081 A 
HETATM   24  C   UNL     1     -43.290 -46.136   9.659  1.00  0.00     0.262 A 
HETATM   25  O   UNL     1     -42.193 -45.613   9.829  1.00  0.00    -0.267 OA
ENDBRANCH  16  17
ENDBRANCH   2  16
TORSDOF 6
ENDMDL
MODEL 2
REMARK VINA RESULT:      -6.3      1.268      2.344
REMARK  6 active torsions:
REMARK  status: ('A' for Active; 'I' for Inactive)
REMARK    1  A    between atoms: C_2  and  C_3 
REMARK    2  A    between atoms: C_3  and  C_5 
REMARK    3  A    between atoms: C_3  and  N_18 
REMARK    4  A    between atoms: C_5  and  N_6 
REMARK       I    between atoms: N_6  and  C_7 
REMARK    5  A    between atoms: C_7  and  C_9 
REMARK    6  A    between atoms: C_9  and  N_10 
ROOT
HETATM    1  N   UNL     1     -42.846 -50.067  12.321  1.00  0.00    -0.357 N 
HETATM    2  C   UNL     1     -42.806 -48.688  12.191  1.00  0.00     0.237 C 
HETATM    3  O   UNL     1     -43.132 -47.920  13.092  1.00  0.00    -0.272 OA
HETATM    4  H   UNL     1     -42.832 -50.632  11.479  1.00  0.00     0.162 HD
ENDROOT
BRANCH   1   5
HETATM    5  C   UNL     1     -43.429 -50.720  13.492  1.00  0.00     0.164 C 
BRANCH   5   6
HETATM    6  C   UNL     1     -43.530 -52.283  13.331  1.00  0.00     0.171 C 
HETATM    7  C   UNL     1     -43.204 -52.875  14.732  1.00  0.00     0.051 C 
BRANCH   6   8
HETATM    8  C   UNL     1     -42.457 -52.794  12.326  1.00  0.00     0.038 C 
HETATM    9  C   UNL     1     -41.335 -53.673  12.866  1.00  0.00     0.007 C 
ENDBRANCH   6   8
BRANCH   6  10
HETATM   10  N   UNL     1     -44.929 -52.694  12.954  1.00  0.00     0.103 N 
HETATM   11  C   UNL     1     -45.993 -51.670  13.074  1.00  0.00     0.299 C 
HETATM   12  C   UNL     1     -46.676 -51.589  14.453  1.00  0.00     0.198 C 
HETATM   13  O   UNL     1     -47.205 -52.857  14.852  1.00  0.00    -0.388 OA
HETATM   14  C   UNL     1     -46.183 -53.858  14.865  1.00  0.00     0.198 C 
HETATM   15  C   UNL     1     -45.465 -53.959  13.508  1.00  0.00     0.299 C 
ENDBRANCH   6  10
ENDBRANCH   5   6
ENDBRANCH   1   5
BRANCH   2  16
HETATM   16  C   UNL     1     -42.286 -48.189  10.841  1.00  0.00     0.255 C 
BRANCH  16  17
HETATM   17  N   UNL     1     -43.309 -47.419  10.150  1.00  0.00    -0.246 N 
HETATM   18  N   UNL     1     -44.566 -48.030  10.028  1.00  0.00    -0.261 N 
HETATM   19  C   UNL     1     -45.610 -47.445   9.364  1.00  0.00     0.260 A 
HETATM   20  H   UNL     1     -44.670 -49.009  10.277  1.00  0.00     0.190 HD
HETATM   21  O   UNL     1     -46.692 -47.995   9.202  1.00  0.00    -0.267 OA
HETATM   22  C   UNL     1     -45.373 -46.083   8.850  1.00  0.00     0.081 A 
HETATM   23  C   UNL     1     -44.181 -45.493   8.975  1.00  0.00     0.081 A 
HETATM   24  C   UNL     1     -43.050 -46.165   9.645  1.00  0.00     0.262 A 
HETATM   25  O   UNL     1     -41.967 -45.596   9.733  1.00  0.00    -0.267 OA
ENDBRANCH  16  17
ENDBRANCH   2  16
TORSDOF 6
ENDMDL
MODEL 3
REMARK VINA RESULT:      -6.2      2.034      2.763
REMARK  6 active torsions:
REMARK  status: ('A' for Active; 'I' for Inactive)
REMARK    1  A    between atoms: C_2  and  C_3 
REMARK    2  A    between atoms: C_3  and  C_5 
REMARK    3  A    between atoms: C_3  and  N_18 
REMARK    4  A    between atoms: C_5  and  N_6 
REMARK       I    between atoms: N_6  and  C_7 
REMARK    5  A    between atoms: C_7  and  C_9 
REMARK    6  A    between atoms: C_9  and  N_10 
ROOT
HETATM    1  N   UNL     1     -42.225 -50.229  11.913  1.00  0.00    -0.357 N 
HETATM    2  C   UNL     1     -42.504 -48.872  11.880  1.00  0.00     0.237 C 
HETATM    3  O   UNL     1     -43.052 -48.277  12.804  1.00  0.00    -0.272 OA
HETATM    4  H   UNL     1     -42.031 -50.704  11.038  1.00  0.00     0.162 HD
ENDROOT
BRANCH   1   5
HETATM    5  C   UNL     1     -42.703 -51.094  12.991  1.00  0.00     0.164 C 
BRANCH   5   6
HETATM    6  C   UNL     1     -41.931 -52.464  13.060  1.00  0.00     0.171 C 
HETATM    7  C   UNL     1     -41.025 -52.503  11.795  1.00  0.00     0.051 C 
BRANCH   6   8
HETATM    8  C   UNL     1     -42.930 -53.654  12.979  1.00  0.00     0.038 C 
HETATM    9  C   UNL     1     -44.342 -53.368  12.479  1.00  0.00     0.007 C 
ENDBRANCH   6   8
BRANCH   6  10
HETATM   10  N   UNL     1     -41.049 -52.522  14.279  1.00  0.00     0.103 N 
HETATM   11  C   UNL     1     -39.641 -52.939  14.079  1.00  0.00     0.299 C 
HETATM   12  C   UNL     1     -39.388 -54.458  14.154  1.00  0.00     0.198 C 
HETATM   13  O   UNL     1     -39.865 -55.009  15.385  1.00  0.00    -0.388 OA
HETATM   14  C   UNL     1     -41.256 -54.730  15.567  1.00  0.00     0.198 C 
HETATM   15  C   UNL     1     -41.554 -53.223  15.482  1.00  0.00     0.299 C 
ENDBRANCH   6  10
ENDBRANCH   5   6
ENDBRANCH   1   5
BRANCH   2  16
HETATM   16  C   UNL     1     -42.039 -48.156  10.609  1.00  0.00     0.255 C 
BRANCH  16  17
HETATM   17  N   UNL     1     -43.133 -47.401  10.017  1.00  0.00    -0.246 N 
HETATM   18  N   UNL     1     -44.359 -48.074   9.901  1.00  0.00    -0.261 N 
HETATM   19  C   UNL     1     -45.462 -47.506   9.324  1.00  0.00     0.260 A 
HETATM   20  H   UNL     1     -44.396 -49.073  10.082  1.00  0.00     0.190 HD
HETATM   21  O   UNL     1     -46.517 -48.106   9.165  1.00  0.00    -0.267 OA
HETATM   22  C   UNL     1     -45.323 -46.100   8.901  1.00  0.00     0.081 A 
HETATM   23  C   UNL     1     -44.162 -45.451   9.022  1.00  0.00     0.081 A 
HETATM   24  C   UNL     1     -42.967 -46.101   9.596  1.00  0.00     0.262 A 
HETATM   25  O   UNL     1     -41.914 -45.477   9.681  1.00  0.00    -0.267 OA
ENDBRANCH  16  17
ENDBRANCH   2  16
TORSDOF 6
ENDMDL
MODEL 4
REMARK VINA RESULT:      -6.1      1.665      2.018
REMARK  6 active torsions:
REMARK  status: ('A' for Active; 'I' for Inactive)
REMARK    1  A    between atoms: C_2  and  C_3 
REMARK    2  A    between atoms: C_3  and  C_5 
REMARK    3  A    between atoms: C_3  and  N_18 
REMARK    4  A    between atoms: C_5  and  N_6 
REMARK       I    between atoms: N_6  and  C_7 
REMARK    5  A    between atoms: C_7  and  C_9 
REMARK    6  A    between atoms: C_9  and  N_10 
ROOT
HETATM    1  N   UNL     1     -43.042 -50.004  12.612  1.00  0.00    -0.357 N 
HETATM    2  C   UNL     1     -41.657 -50.022  12.557  1.00  0.00     0.237 C 
HETATM    3  O   UNL     1     -40.951 -50.295  13.523  1.00  0.00    -0.272 OA
HETATM    4  H   UNL     1     -43.548 -49.516  11.881  1.00  0.00     0.162 HD
ENDROOT
BRANCH   1   5
HETATM    5  C   UNL     1     -43.771 -50.158  13.870  1.00  0.00     0.164 C 
BRANCH   5   6
HETATM    6  C   UNL     1     -44.662 -51.455  13.902  1.00  0.00     0.171 C 
HETATM    7  C   UNL     1     -45.711 -51.276  12.766  1.00  0.00     0.051 C 
BRANCH   6   8
HETATM    8  C   UNL     1     -45.424 -51.556  15.255  1.00  0.00     0.038 C 
HETATM    9  C   UNL     1     -46.945 -51.665  15.212  1.00  0.00     0.007 C 
ENDBRANCH   6   8
BRANCH   6  10
HETATM   10  N   UNL     1     -43.839 -52.680  13.601  1.00  0.00     0.103 N 
HETATM   11  C   UNL     1     -44.487 -53.758  12.816  1.00  0.00     0.299 C 
HETATM   12  C   UNL     1     -45.253 -54.806  13.646  1.00  0.00     0.198 C 
HETATM   13  O   UNL     1     -44.418 -55.397  14.645  1.00  0.00    -0.388 OA
HETATM   14  C   UNL     1     -43.860 -54.399  15.504  1.00  0.00     0.198 C 
HETATM   15  C   UNL     1     -43.099 -53.322  14.711  1.00  0.00     0.299 C 
ENDBRANCH   6  10
ENDBRANCH   5   6
ENDBRANCH   1   5
BRANCH   2  16
HETATM   16  C   UNL     1     -41.069 -49.709  11.178  1.00  0.00     0.255 C 
BRANCH  16  17
HETATM   17  N   UNL     1     -41.491 -48.391  10.728  1.00  0.00    -0.246 N 
HETATM   18  N   UNL     1     -42.603 -48.355   9.874  1.00  0.00    -0.261 N 
HETATM   19  C   UNL     1     -43.085 -47.192   9.337  1.00  0.00     0.260 A 
HETATM   20  H   UNL     1     -42.963 -49.223   9.490  1.00  0.00     0.190 HD
HETATM   21  O   UNL     1     -44.018 -47.157   8.545  1.00  0.00    -0.267 OA
HETATM   22  C   UNL     1     -42.421 -45.950   9.775  1.00  0.00     0.081 A 
HETATM   23  C   UNL     1     -41.370 -45.979  10.599  1.00  0.00     0.081 A 
HETATM   24  C   UNL     1     -40.831 -47.249  11.122  1.00  0.00     0.262 A 
HETATM   25  O   UNL     1     -39.857 -47.238  11.869  1.00  0.00    -0.267 OA
ENDBRANCH  16  17
ENDBRANCH   2  16
TORSDOF 6
ENDMDL
MODEL 5
REMARK VINA RESULT:      -6.1      2.384      7.161
REMARK  6 active torsions:
REMARK  status: ('A' for Active; 'I' for Inactive)
REMARK    1  A    between atoms: C_2  and  C_3 
REMARK    2  A    between atoms: C_3  and  C_5 
REMARK    3  A    between atoms: C_3  and  N_18 
REMARK    4  A    between atoms: C_5  and  N_6 
REMARK       I    between atoms: N_6  and  C_7 
REMARK    5  A    between atoms: C_7  and  C_9 
REMARK    6  A    between atoms: C_9  and  N_10 
ROOT
HETATM    1  N   UNL     1     -41.587 -50.603  11.560  1.00  0.00    -0.357 N 
HETATM    2  C   UNL     1     -40.758 -51.423  12.310  1.00  0.00     0.237 C 
HETATM    3  O   UNL     1     -39.997 -50.998  13.174  1.00  0.00    -0.272 OA
HETATM    4  H   UNL     1     -41.976 -50.969  10.697  1.00  0.00     0.162 HD
ENDROOT
BRANCH   1   5
HETATM    5  C   UNL     1     -41.506 -49.145  11.631  1.00  0.00     0.164 C 
BRANCH   5   6
HETATM    6  C   UNL     1     -42.590 -48.522  12.588  1.00  0.00     0.171 C 
HETATM    7  C   UNL     1     -41.815 -48.038  13.848  1.00  0.00     0.051 C 
BRANCH   6   8
HETATM    8  C   UNL     1     -43.610 -49.610  13.034  1.00  0.00     0.038 C 
HETATM    9  C   UNL     1     -43.543 -50.104  14.475  1.00  0.00     0.007 C 
ENDBRANCH   6   8
BRANCH   6  10
HETATM   10  N   UNL     1     -43.249 -47.329  11.948  1.00  0.00     0.103 N 
HETATM   11  C   UNL     1     -43.849 -47.523  10.606  1.00  0.00     0.299 C 
HETATM   12  C   UNL     1     -42.893 -47.295   9.419  1.00  0.00     0.198 C 
HETATM   13  O   UNL     1     -42.287 -46.000   9.474  1.00  0.00    -0.388 OA
HETATM   14  C   UNL     1     -41.594 -45.810  10.711  1.00  0.00     0.198 C 
HETATM   15  C   UNL     1     -42.511 -46.045  11.924  1.00  0.00     0.299 C 
ENDBRANCH   6  10
ENDBRANCH   5   6
ENDBRANCH   1   5
BRANCH   2  16
HETATM   16  C   UNL     1     -40.892 -52.917  12.002  1.00  0.00     0.255 C 
BRANCH  16  17
HETATM   17  N   UNL     1     -41.975 -53.505  12.776  1.00  0.00    -0.246 N 
HETATM   18  N   UNL     1     -43.265 -53.357  12.247  1.00  0.00    -0.261 N 
HETATM   19  C   UNL     1     -44.384 -53.818  12.887  1.00  0.00     0.260 A 
HETATM   20  H   UNL     1     -43.410 -52.736  11.457  1.00  0.00     0.190 HD
HETATM   21  O   UNL     1     -45.518 -53.642  12.462  1.00  0.00    -0.267 OA
HETATM   22  C   UNL     1     -44.156 -54.566  14.137  1.00  0.00     0.081 A 
HETATM   23  C   UNL     1     -42.927 -54.721  14.638  1.00  0.00     0.081 A 
HETATM   24  C   UNL     1     -41.738 -54.165  13.961  1.00  0.00     0.262 A 
HETATM   25  O   UNL     1     -40.626 -54.318  14.456  1.00  0.00    -0.267 OA
ENDBRANCH  16  17
ENDBRANCH   2  16
TORSDOF 6
ENDMDL
MODEL 6
REMARK VINA RESULT:      -6.0      2.324      3.462
REMARK  6 active torsions:
REMARK  status: ('A' for Active; 'I' for Inactive)
REMARK    1  A    between atoms: C_2  and  C_3 
REMARK    2  A    between atoms: C_3  and  C_5 
REMARK    3  A    between atoms: C_3  and  N_18 
REMARK    4  A    between atoms: C_5  and  N_6 
REMARK       I    between atoms: N_6  and  C_7 
REMARK    5  A    between atoms: C_7  and  C_9 
REMARK    6  A    between atoms: C_9  and  N_10 
ROOT
HETATM    1  N   UNL     1     -41.785 -51.363  11.754  1.00  0.00    -0.357 N 
HETATM    2  C   UNL     1     -40.434 -51.169  11.998  1.00  0.00     0.237 C 
HETATM    3  O   UNL     1     -39.737 -51.985  12.593  1.00  0.00    -0.272 OA
HETATM    4  H   UNL     1     -42.353 -50.558  11.512  1.00  0.00     0.162 HD
ENDROOT
BRANCH   1   5
HETATM    5  C   UNL     1     -42.523 -52.489  12.325  1.00  0.00     0.164 C 
BRANCH   5   6
HETATM    6  C   UNL     1     -43.618 -52.037  13.362  1.00  0.00     0.171 C 
HETATM    7  C   UNL     1     -43.647 -50.482  13.294  1.00  0.00     0.051 C 
BRANCH   6   8
HETATM    8  C   UNL     1     -43.204 -52.453  14.803  1.00  0.00     0.038 C 
HETATM    9  C   UNL     1     -42.031 -53.413  14.960  1.00  0.00     0.007 C 
ENDBRANCH   6   8
BRANCH   6  10
HETATM   10  N   UNL     1     -44.976 -52.556  12.969  1.00  0.00     0.103 N 
HETATM   11  C   UNL     1     -46.128 -51.638  13.134  1.00  0.00     0.299 C 
HETATM   12  C   UNL     1     -46.808 -51.677  14.516  1.00  0.00     0.198 C 
HETATM   13  O   UNL     1     -47.219 -53.003  14.861  1.00  0.00    -0.388 OA
HETATM   14  C   UNL     1     -46.112 -53.908  14.830  1.00  0.00     0.198 C 
HETATM   15  C   UNL     1     -45.393 -53.886  13.469  1.00  0.00     0.299 C 
ENDBRANCH   6  10
ENDBRANCH   5   6
ENDBRANCH   1   5
BRANCH   2  16
HETATM   16  C   UNL     1     -39.865 -49.866  11.432  1.00  0.00     0.255 C 
BRANCH  16  17
HETATM   17  N   UNL     1     -40.899 -48.845  11.358  1.00  0.00    -0.246 N 
HETATM   18  N   UNL     1     -41.590 -48.751  10.141  1.00  0.00    -0.261 N 
HETATM   19  C   UNL     1     -42.555 -47.809   9.910  1.00  0.00     0.260 A 
HETATM   20  H   UNL     1     -41.252 -49.271   9.336  1.00  0.00     0.190 HD
HETATM   21  O   UNL     1     -43.122 -47.682   8.833  1.00  0.00    -0.267 OA
HETATM   22  C   UNL     1     -42.901 -46.939  11.050  1.00  0.00     0.081 A 
HETATM   23  C   UNL     1     -42.254 -47.035  12.216  1.00  0.00     0.081 A 
HETATM   24  C   UNL     1     -41.175 -48.020  12.425  1.00  0.00     0.262 A 
HETATM   25  O   UNL     1     -40.596 -48.072  13.505  1.00  0.00    -0.267 OA
ENDBRANCH  16  17
ENDBRANCH   2  16
TORSDOF 6
ENDMDL
MODEL 7
REMARK VINA RESULT:      -6.0      3.114      6.969
REMARK  6 active torsions:
REMARK  status: ('A' for Active; 'I' for Inactive)
REMARK    1  A    between atoms: C_2  and  C_3 
REMARK    2  A    between atoms: C_3  and  C_5 
REMARK    3  A    between atoms: C_3  and  N_18 
REMARK    4  A    between atoms: C_5  and  N_6 
REMARK       I    between atoms: N_6  and  C_7 
REMARK    5  A    between atoms: C_7  and  C_9 
REMARK    6  A    between atoms: C_9  and  N_10 
ROOT
HETATM    1  N   UNL     1     -42.858 -52.744  12.087  1.00  0.00    -0.357 N 
HETATM    2  C   UNL     1     -42.989 -53.786  12.992  1.00  0.00     0.237 C 
HETATM    3  O   UNL     1     -42.047 -54.231  13.641  1.00  0.00    -0.272 OA
HETATM    4  H   UNL     1     -43.590 -52.609  11.397  1.00  0.00     0.162 HD
ENDROOT
BRANCH   1   5
HETATM    5  C   UNL     1     -41.555 -52.194  11.719  1.00  0.00     0.164 C 
BRANCH   5   6
HETATM    6  C   UNL     1     -41.297 -50.770  12.339  1.00  0.00     0.171 C 
HETATM    7  C   UNL     1     -40.415 -51.010  13.598  1.00  0.00     0.051 C 
BRANCH   6   8
HETATM    8  C   UNL     1     -42.639 -50.130  12.801  1.00  0.00     0.038 C 
HETATM    9  C   UNL     1     -42.833 -49.879  14.292  1.00  0.00     0.007 C 
ENDBRANCH   6   8
BRANCH   6  10
HETATM   10  N   UNL     1     -40.532 -49.898  11.380  1.00  0.00     0.103 N 
HETATM   11  C   UNL     1     -39.216 -49.385  11.830  1.00  0.00     0.299 C 
HETATM   12  C   UNL     1     -39.258 -48.047  12.595  1.00  0.00     0.198 C 
HETATM   13  O   UNL     1     -39.917 -47.030  11.836  1.00  0.00    -0.388 OA
HETATM   14  C   UNL     1     -41.241 -47.435  11.475  1.00  0.00     0.198 C 
HETATM   15  C   UNL     1     -41.244 -48.777  10.723  1.00  0.00     0.299 C 
ENDBRANCH   6  10
ENDBRANCH   5   6
ENDBRANCH   1   5
BRANCH   2  16
HETATM   16  C   UNL     1     -44.415 -54.320  13.149  1.00  0.00     0.255 C 
BRANCH  16  17
HETATM   17  N   UNL     1     -45.271 -53.319  13.768  1.00  0.00    -0.246 N 
HETATM   18  N   UNL     1     -45.210 -53.230  15.166  1.00  0.00    -0.261 N 
HETATM   19  C   UNL     1     -45.990 -52.368  15.887  1.00  0.00     0.260 A 
HETATM   20  H   UNL     1     -44.709 -53.943  15.688  1.00  0.00     0.190 HD
HETATM   21  O   UNL     1     -45.986 -52.325  17.110  1.00  0.00    -0.267 OA
HETATM   22  C   UNL     1     -46.851 -51.461  15.104  1.00  0.00     0.081 A 
HETATM   23  C   UNL     1     -46.902 -51.533  13.771  1.00  0.00     0.081 A 
HETATM   24  C   UNL     1     -46.094 -52.510  13.016  1.00  0.00     0.262 A 
HETATM   25  O   UNL     1     -46.175 -52.555  11.793  1.00  0.00    -0.267 OA
ENDBRANCH  16  17
ENDBRANCH   2  16
TORSDOF 6
ENDMDL
MODEL 8
REMARK VINA RESULT:      -6.0      2.613      6.874
REMARK  6 active torsions:
REMARK  status: ('A' for Active; 'I' for Inactive)
REMARK    1  A    between atoms: C_2  and  C_3 
REMARK    2  A    between atoms: C_3  and  C_5 
REMARK    3  A    between atoms: C_3  and  N_18 
REMARK    4  A    between atoms: C_5  and  N_6 
REMARK       I    between atoms: N_6  and  C_7 
REMARK    5  A    between atoms: C_7  and  C_9 
REMARK    6  A    between atoms: C_9  and  N_10 
ROOT
HETATM    1  N   UNL     1     -42.126 -51.136  12.141  1.00  0.00    -0.357 N 
HETATM    2  C   UNL     1     -41.670 -52.431  12.332  1.00  0.00     0.237 C 
HETATM    3  O   UNL     1     -40.518 -52.778  12.088  1.00  0.00    -0.272 OA
HETATM    4  H   UNL     1     -43.127 -50.978  12.098  1.00  0.00     0.162 HD
ENDROOT
BRANCH   1   5
HETATM    5  C   UNL     1     -41.311 -50.114  11.485  1.00  0.00     0.164 C 
BRANCH   5   6
HETATM    6  C   UNL     1     -41.886 -48.661  11.677  1.00  0.00     0.171 C 
HETATM    7  C   UNL     1     -43.127 -48.816  12.604  1.00  0.00     0.051 C 
BRANCH   6   8
HETATM    8  C   UNL     1     -42.367 -48.084  10.314  1.00  0.00     0.038 C 
HETATM    9  C   UNL     1     -43.746 -47.436  10.260  1.00  0.00     0.007 C 
ENDBRANCH   6   8
BRANCH   6  10
HETATM   10  N   UNL     1     -40.884 -47.775  12.369  1.00  0.00     0.103 N 
HETATM   11  C   UNL     1     -41.412 -46.755  13.306  1.00  0.00     0.299 C 
HETATM   12  C   UNL     1     -41.772 -45.399  12.670  1.00  0.00     0.198 C 
HETATM   13  O   UNL     1     -40.663 -44.844  11.957  1.00  0.00    -0.388 OA
HETATM   14  C   UNL     1     -40.190 -45.749  10.956  1.00  0.00     0.198 C 
HETATM   15  C   UNL     1     -39.835 -47.124  11.549  1.00  0.00     0.299 C 
ENDBRANCH   6  10
ENDBRANCH   5   6
ENDBRANCH   1   5
BRANCH   2  16
HETATM   16  C   UNL     1     -42.710 -53.394  12.910  1.00  0.00     0.255 C 
BRANCH  16  17
HETATM   17  N   UNL     1     -43.970 -52.708  13.145  1.00  0.00    -0.246 N 
HETATM   18  N   UNL     1     -44.953 -52.861  12.155  1.00  0.00    -0.261 N 
HETATM   19  C   UNL     1     -46.169 -52.237  12.218  1.00  0.00     0.260 A 
HETATM   20  H   UNL     1     -44.705 -53.298  11.273  1.00  0.00     0.190 HD
HETATM   21  O   UNL     1     -47.009 -52.318  11.332  1.00  0.00    -0.267 OA
HETATM   22  C   UNL     1     -46.435 -51.453  13.439  1.00  0.00     0.081 A 
HETATM   23  C   UNL     1     -45.507 -51.316  14.391  1.00  0.00     0.081 A 
HETATM   24  C   UNL     1     -44.179 -51.951  14.276  1.00  0.00     0.262 A 
HETATM   25  O   UNL     1     -43.348 -51.793  15.164  1.00  0.00    -0.267 OA
ENDBRANCH  16  17
ENDBRANCH   2  16
TORSDOF 6
ENDMDL
MODEL 9
REMARK VINA RESULT:      -5.9      1.812      2.670
REMARK  6 active torsions:
REMARK  status: ('A' for Active; 'I' for Inactive)
REMARK    1  A    between atoms: C_2  and  C_3 
REMARK    2  A    between atoms: C_3  and  C_5 
REMARK    3  A    between atoms: C_3  and  N_18 
REMARK    4  A    between atoms: C_5  and  N_6 
REMARK       I    between atoms: N_6  and  C_7 
REMARK    5  A    between atoms: C_7  and  C_9 
REMARK    6  A    between atoms: C_9  and  N_10 
ROOT
HETATM    1  N   UNL     1     -42.053 -50.386  11.828  1.00  0.00    -0.357 N 
HETATM    2  C   UNL     1     -42.432 -49.057  11.934  1.00  0.00     0.237 C 
HETATM    3  O   UNL     1     -43.142 -48.632  12.841  1.00  0.00    -0.272 OA
HETATM    4  H   UNL     1     -41.709 -50.721  10.934  1.00  0.00     0.162 HD
ENDROOT
BRANCH   1   5
HETATM    5  C   UNL     1     -42.598 -51.421  12.706  1.00  0.00     0.164 C 
BRANCH   5   6
HETATM    6  C   UNL     1     -41.482 -52.178  13.519  1.00  0.00     0.171 C 
HETATM    7  C   UNL     1     -41.576 -51.635  14.974  1.00  0.00     0.051 C 
BRANCH   6   8
HETATM    8  C   UNL     1     -40.072 -51.828  12.960  1.00  0.00     0.038 C 
HETATM    9  C   UNL     1     -39.035 -51.277  13.933  1.00  0.00     0.007 C 
ENDBRANCH   6   8
BRANCH   6  10
HETATM   10  N   UNL     1     -41.750 -53.660  13.545  1.00  0.00     0.103 N 
HETATM   11  C   UNL     1     -43.119 -54.109  13.198  1.00  0.00     0.299 C 
HETATM   12  C   UNL     1     -44.107 -54.180  14.379  1.00  0.00     0.198 C 
HETATM   13  O   UNL     1     -43.603 -55.002  15.436  1.00  0.00    -0.388 OA
HETATM   14  C   UNL     1     -42.328 -54.535  15.886  1.00  0.00     0.198 C 
HETATM   15  C   UNL     1     -41.316 -54.434  14.731  1.00  0.00     0.299 C 
ENDBRANCH   6  10
ENDBRANCH   5   6
ENDBRANCH   1   5
BRANCH   2  16
HETATM   16  C   UNL     1     -41.865 -48.143  10.845  1.00  0.00     0.255 C 
BRANCH  16  17
HETATM   17  N   UNL     1     -42.933 -47.409  10.184  1.00  0.00    -0.246 N 
HETATM   18  N   UNL     1     -44.163 -48.073  10.070  1.00  0.00    -0.261 N 
HETATM   19  C   UNL     1     -45.243 -47.525   9.433  1.00  0.00     0.260 A 
HETATM   20  H   UNL     1     -44.218 -49.060  10.302  1.00  0.00     0.190 HD
HETATM   21  O   UNL     1     -46.301 -48.120   9.278  1.00  0.00    -0.267 OA
HETATM   22  C   UNL     1     -45.075 -46.145   8.941  1.00  0.00     0.081 A 
HETATM   23  C   UNL     1     -43.909 -45.503   9.059  1.00  0.00     0.081 A 
HETATM   24  C   UNL     1     -42.738 -46.135   9.699  1.00  0.00     0.262 A 
HETATM   25  O   UNL     1     -41.680 -45.519   9.780  1.00  0.00    -0.267 OA
ENDBRANCH  16  17
ENDBRANCH   2  16
TORSDOF 6
ENDMDL
