MODEL 1
REMARK VINA RESULT:      -5.4      0.000      0.000
REMARK  5 active torsions:
REMARK  status: ('A' for Active; 'I' for Inactive)
REMARK    1  A    between atoms: C_2  and  C_3 
REMARK    2  A    between atoms: C_2  and  N_10 
REMARK    3  A    between atoms: C_3  and  N_4 
REMARK    4  A    between atoms: N_10  and  C_11 
REMARK    5  A    between atoms: C_11  and  C_12 
ROOT
HETATM    1  C   UNL     1     -42.287 -48.889  13.934  1.00  0.00     0.044 C 
HETATM    2  C   UNL     1     -43.132 -49.022  12.660  1.00  0.00     0.236 C 
ENDROOT
BRANCH   2   3
HETATM    3  C   UNL     1     -42.248 -48.638  11.452  1.00  0.00     0.183 C 
BRANCH   3   4
HETATM    4  N   UNL     1     -42.974 -48.042  10.348  1.00  0.00    -0.302 N 
HETATM    5  C   UNL     1     -44.204 -47.445  10.414  1.00  0.00     0.111 A 
HETATM    6  C   UNL     1     -44.540 -47.123   9.121  1.00  0.00     0.037 A 
HETATM    7  C   UNL     1     -43.460 -47.585   8.348  1.00  0.00     0.108 A 
HETATM    8  N   UNL     1     -42.510 -48.161   9.089  1.00  0.00    -0.310 N 
ATOM      9  HN  UNL     1     -41.638 -48.590   8.776  1.00  0.00     0.186 HD
ENDBRANCH   3   4
ENDBRANCH   2   3
BRANCH   2  10
HETATM   10  N   UNL     1     -43.650 -50.394  12.511  1.00  0.00     0.089 N 
HETATM   11  H   UNL     1     -42.894 -51.041  12.290  1.00  0.00     0.316 HD
BRANCH  10  12
HETATM   12  C   UNL     1     -44.391 -50.886  13.677  1.00  0.00     0.274 C 
BRANCH  12  13
HETATM   13  C   UNL     1     -45.803 -51.352  13.255  1.00  0.00     0.014 C 
HETATM   14  C   UNL     1     -46.805 -51.391  14.423  1.00  0.00     0.006 C 
HETATM   15  C   UNL     1     -46.546 -52.539  15.397  1.00  0.00     0.000 C 
HETATM   16  C   UNL     1     -46.442 -53.890  14.693  1.00  0.00     0.000 C 
HETATM   17  C   UNL     1     -45.467 -53.871  13.520  1.00  0.00     0.000 C 
HETATM   18  C   UNL     1     -45.755 -52.722  12.559  1.00  0.00     0.006 C 
ENDBRANCH  12  13
ENDBRANCH  10  12
ENDBRANCH   2  10
TORSDOF 5
ENDMDL
MODEL 2
REMARK VINA RESULT:      -5.4      2.977      4.267
REMARK  5 active torsions:
REMARK  status: ('A' for Active; 'I' for Inactive)
REMARK    1  A    between atoms: C_2  and  C_3 
REMARK    2  A    between atoms: C_2  and  N_10 
REMARK    3  A    between atoms: C_3  and  N_4 
REMARK    4  A    between atoms: N_10  and  C_11 
REMARK    5  A    between atoms: C_11  and  C_12 
ROOT
HETATM    1  C   UNL     1     -42.756 -50.387  13.018  1.00  0.00     0.044 C 
HETATM    2  C   UNL     1     -41.994 -51.465  12.236  1.00  0.00     0.236 C 
ENDROOT
BRANCH   2   3
HETATM    3  C   UNL     1     -40.792 -51.923  13.092  1.00  0.00     0.183 C 
BRANCH   3   4
HETATM    4  N   UNL     1     -39.526 -51.332  12.706  1.00  0.00    -0.302 N 
HETATM    5  C   UNL     1     -38.363 -51.362  13.426  1.00  0.00     0.111 A 
HETATM    6  C   UNL     1     -37.464 -50.593  12.729  1.00  0.00     0.037 A 
HETATM    7  C   UNL     1     -38.185 -50.125  11.616  1.00  0.00     0.108 A 
HETATM    8  N   UNL     1     -39.448 -50.559  11.605  1.00  0.00    -0.310 N 
ATOM      9  HN  UNL     1     -40.180 -50.354  10.925  1.00  0.00     0.186 HD
ENDBRANCH   3   4
ENDBRANCH   2   3
BRANCH   2  10
HETATM   10  N   UNL     1     -42.872 -52.605  11.917  1.00  0.00     0.089 N 
HETATM   11  H   UNL     1     -42.354 -53.327  11.419  1.00  0.00     0.316 HD
BRANCH  10  12
HETATM   12  C   UNL     1     -43.539 -53.195  13.082  1.00  0.00     0.274 C 
BRANCH  12  13
HETATM   13  C   UNL     1     -44.982 -53.610  12.718  1.00  0.00     0.014 C 
HETATM   14  C   UNL     1     -45.920 -52.412  12.487  1.00  0.00     0.006 C 
HETATM   15  C   UNL     1     -46.289 -51.681  13.778  1.00  0.00     0.000 C 
HETATM   16  C   UNL     1     -46.827 -52.626  14.849  1.00  0.00     0.000 C 
HETATM   17  C   UNL     1     -45.923 -53.831  15.083  1.00  0.00     0.000 C 
HETATM   18  C   UNL     1     -45.580 -54.547  13.781  1.00  0.00     0.006 C 
ENDBRANCH  12  13
ENDBRANCH  10  12
ENDBRANCH   2  10
TORSDOF 5
ENDMDL
MODEL 3
REMARK VINA RESULT:      -5.3      3.510      5.141
REMARK  5 active torsions:
REMARK  status: ('A' for Active; 'I' for Inactive)
REMARK    1  A    between atoms: C_2  and  C_3 
REMARK    2  A    between atoms: C_2  and  N_10 
REMARK    3  A    between atoms: C_3  and  N_4 
REMARK    4  A    between atoms: N_10  and  C_11 
REMARK    5  A    between atoms: C_11  and  C_12 
ROOT
HETATM    1  C   UNL     1     -42.562 -51.488  13.953  1.00  0.00     0.044 C 
HETATM    2  C   UNL     1     -42.567 -51.800  12.450  1.00  0.00     0.236 C 
ENDROOT
BRANCH   2   3
HETATM    3  C   UNL     1     -41.115 -52.105  12.016  1.00  0.00     0.183 C 
BRANCH   3   4
HETATM    4  N   UNL     1     -40.358 -52.885  12.975  1.00  0.00    -0.302 N 
HETATM    5  C   UNL     1     -39.438 -52.405  13.867  1.00  0.00     0.111 A 
HETATM    6  C   UNL     1     -38.904 -53.505  14.492  1.00  0.00     0.037 A 
HETATM    7  C   UNL     1     -39.550 -54.602  13.893  1.00  0.00     0.108 A 
HETATM    8  N   UNL     1     -40.425 -54.231  12.956  1.00  0.00    -0.310 N 
ATOM      9  HN  UNL     1     -41.007 -54.825  12.366  1.00  0.00     0.186 HD
ENDBRANCH   3   4
ENDBRANCH   2   3
BRANCH   2  10
HETATM   10  N   UNL     1     -43.451 -52.941  12.151  1.00  0.00     0.089 N 
HETATM   11  H   UNL     1     -42.966 -53.629  11.578  1.00  0.00     0.316 HD
BRANCH  10  12
HETATM   12  C   UNL     1     -44.008 -53.597  13.338  1.00  0.00     0.274 C 
BRANCH  12  13
HETATM   13  C   UNL     1     -45.539 -53.750  13.194  1.00  0.00     0.014 C 
HETATM   14  C   UNL     1     -46.232 -52.478  12.677  1.00  0.00     0.006 C 
HETATM   15  C   UNL     1     -46.285 -51.358  13.716  1.00  0.00     0.000 C 
HETATM   16  C   UNL     1     -46.872 -51.824  15.046  1.00  0.00     0.000 C 
HETATM   17  C   UNL     1     -46.212 -53.094  15.570  1.00  0.00     0.000 C 
HETATM   18  C   UNL     1     -46.183 -54.197  14.517  1.00  0.00     0.006 C 
ENDBRANCH  12  13
ENDBRANCH  10  12
ENDBRANCH   2  10
TORSDOF 5
ENDMDL
MODEL 4
REMARK VINA RESULT:      -5.2      1.698      2.483
REMARK  5 active torsions:
REMARK  status: ('A' for Active; 'I' for Inactive)
REMARK    1  A    between atoms: C_2  and  C_3 
REMARK    2  A    between atoms: C_2  and  N_10 
REMARK    3  A    between atoms: C_3  and  N_4 
REMARK    4  A    between atoms: N_10  and  C_11 
REMARK    5  A    between atoms: C_11  and  C_12 
ROOT
HETATM    1  C   UNL     1     -42.616 -50.754  14.095  1.00  0.00     0.044 C 
HETATM    2  C   UNL     1     -42.632 -50.916  12.569  1.00  0.00     0.236 C 
ENDROOT
BRANCH   2   3
HETATM    3  C   UNL     1     -41.243 -50.514  12.025  1.00  0.00     0.183 C 
BRANCH   3   4
HETATM    4  N   UNL     1     -41.188 -49.182  11.457  1.00  0.00    -0.302 N 
HETATM    5  C   UNL     1     -40.240 -48.228  11.713  1.00  0.00     0.111 A 
HETATM    6  C   UNL     1     -40.646 -47.099  11.042  1.00  0.00     0.037 A 
HETATM    7  C   UNL     1     -41.859 -47.466  10.432  1.00  0.00     0.108 A 
HETATM    8  N   UNL     1     -42.202 -48.729  10.694  1.00  0.00    -0.310 N 
ATOM      9  HN  UNL     1     -43.036 -49.232  10.390  1.00  0.00     0.186 HD
ENDBRANCH   3   4
ENDBRANCH   2   3
BRANCH   2  10
HETATM   10  N   UNL     1     -42.959 -52.303  12.189  1.00  0.00     0.089 N 
HETATM   11  H   UNL     1     -42.132 -52.783  11.839  1.00  0.00     0.316 HD
BRANCH  10  12
HETATM   12  C   UNL     1     -43.567 -53.093  13.264  1.00  0.00     0.274 C 
BRANCH  12  13
HETATM   13  C   UNL     1     -44.983 -53.555  12.853  1.00  0.00     0.014 C 
HETATM   14  C   UNL     1     -45.950 -52.387  12.584  1.00  0.00     0.006 C 
HETATM   15  C   UNL     1     -46.385 -51.664  13.858  1.00  0.00     0.000 C 
HETATM   16  C   UNL     1     -46.930 -52.621  14.915  1.00  0.00     0.000 C 
HETATM   17  C   UNL     1     -45.997 -53.797  15.185  1.00  0.00     0.000 C 
HETATM   18  C   UNL     1     -45.587 -54.506  13.898  1.00  0.00     0.006 C 
ENDBRANCH  12  13
ENDBRANCH  10  12
ENDBRANCH   2  10
TORSDOF 5
ENDMDL
MODEL 5
REMARK VINA RESULT:      -5.2      4.285      6.909
REMARK  5 active torsions:
REMARK  status: ('A' for Active; 'I' for Inactive)
REMARK    1  A    between atoms: C_2  and  C_3 
REMARK    2  A    between atoms: C_2  and  N_10 
REMARK    3  A    between atoms: C_3  and  N_4 
REMARK    4  A    between atoms: N_10  and  C_11 
REMARK    5  A    between atoms: C_11  and  C_12 
ROOT
HETATM    1  C   UNL     1     -43.250 -48.060  11.299  1.00  0.00     0.044 C 
HETATM    2  C   UNL     1     -42.571 -47.688   9.974  1.00  0.00     0.236 C 
ENDROOT
BRANCH   2   3
HETATM    3  C   UNL     1     -43.495 -46.708   9.216  1.00  0.00     0.183 C 
BRANCH   3   4
HETATM    4  N   UNL     1     -44.793 -47.257   8.874  1.00  0.00    -0.302 N 
HETATM    5  C   UNL     1     -45.991 -46.925   9.446  1.00  0.00     0.111 A 
HETATM    6  C   UNL     1     -46.925 -47.763   8.886  1.00  0.00     0.037 A 
HETATM    7  C   UNL     1     -46.189 -48.577   8.006  1.00  0.00     0.108 A 
HETATM    8  N   UNL     1     -44.886 -48.283   8.007  1.00  0.00    -0.310 N 
ATOM      9  HN  UNL     1     -44.138 -48.731   7.476  1.00  0.00     0.186 HD
ENDBRANCH   3   4
ENDBRANCH   2   3
BRANCH   2  10
HETATM   10  N   UNL     1     -41.249 -47.081  10.210  1.00  0.00     0.089 N 
HETATM   11  H   UNL     1     -40.579 -47.399   9.511  1.00  0.00     0.316 HD
BRANCH  10  12
HETATM   12  C   UNL     1     -41.259 -45.616  10.248  1.00  0.00     0.274 C 
BRANCH  12  13
HETATM   13  C   UNL     1     -40.520 -45.109  11.508  1.00  0.00     0.014 C 
HETATM   14  C   UNL     1     -41.312 -45.333  12.808  1.00  0.00     0.006 C 
HETATM   15  C   UNL     1     -42.514 -44.400  12.947  1.00  0.00     0.000 C 
HETATM   16  C   UNL     1     -42.139 -42.933  12.755  1.00  0.00     0.000 C 
HETATM   17  C   UNL     1     -41.337 -42.689  11.481  1.00  0.00     0.000 C 
HETATM   18  C   UNL     1     -40.139 -43.626  11.374  1.00  0.00     0.006 C 
ENDBRANCH  12  13
ENDBRANCH  10  12
ENDBRANCH   2  10
TORSDOF 5
ENDMDL
MODEL 6
REMARK VINA RESULT:      -5.0      2.228      2.718
REMARK  5 active torsions:
REMARK  status: ('A' for Active; 'I' for Inactive)
REMARK    1  A    between atoms: C_2  and  C_3 
REMARK    2  A    between atoms: C_2  and  N_10 
REMARK    3  A    between atoms: C_3  and  N_4 
REMARK    4  A    between atoms: N_10  and  C_11 
REMARK    5  A    between atoms: C_11  and  C_12 
ROOT
HETATM    1  C   UNL     1     -40.394 -50.109  13.295  1.00  0.00     0.044 C 
HETATM    2  C   UNL     1     -41.517 -49.672  12.346  1.00  0.00     0.236 C 
ENDROOT
BRANCH   2   3
HETATM    3  C   UNL     1     -40.870 -49.085  11.071  1.00  0.00     0.183 C 
BRANCH   3   4
HETATM    4  N   UNL     1     -41.613 -47.991  10.476  1.00  0.00    -0.302 N 
HETATM    5  C   UNL     1     -41.663 -46.701  10.932  1.00  0.00     0.111 A 
HETATM    6  C   UNL     1     -42.562 -46.047  10.125  1.00  0.00     0.037 A 
HETATM    7  C   UNL     1     -43.016 -47.032   9.229  1.00  0.00     0.108 A 
HETATM    8  N   UNL     1     -42.453 -48.222   9.449  1.00  0.00    -0.310 N 
ATOM      9  HN  UNL     1     -42.619 -49.100   8.955  1.00  0.00     0.186 HD
ENDBRANCH   3   4
ENDBRANCH   2   3
BRANCH   2  10
HETATM   10  N   UNL     1     -42.396 -50.807  12.010  1.00  0.00     0.089 N 
HETATM   11  H   UNL     1     -42.044 -51.302  11.191  1.00  0.00     0.316 HD
BRANCH  10  12
HETATM   12  C   UNL     1     -42.597 -51.756  13.108  1.00  0.00     0.274 C 
BRANCH  12  13
HETATM   13  C   UNL     1     -42.656 -53.201  12.561  1.00  0.00     0.014 C 
HETATM   14  C   UNL     1     -44.046 -53.847  12.699  1.00  0.00     0.006 C 
HETATM   15  C   UNL     1     -44.398 -54.211  14.140  1.00  0.00     0.000 C 
HETATM   16  C   UNL     1     -43.314 -55.049  14.812  1.00  0.00     0.000 C 
HETATM   17  C   UNL     1     -41.924 -54.437  14.674  1.00  0.00     0.000 C 
HETATM   18  C   UNL     1     -41.595 -54.094  13.225  1.00  0.00     0.006 C 
ENDBRANCH  12  13
ENDBRANCH  10  12
ENDBRANCH   2  10
TORSDOF 5
ENDMDL
MODEL 7
REMARK VINA RESULT:      -5.0      3.339      6.347
REMARK  5 active torsions:
REMARK  status: ('A' for Active; 'I' for Inactive)
REMARK    1  A    between atoms: C_2  and  C_3 
REMARK    2  A    between atoms: C_2  and  N_10 
REMARK    3  A    between atoms: C_3  and  N_4 
REMARK    4  A    between atoms: N_10  and  C_11 
REMARK    5  A    between atoms: C_11  and  C_12 
ROOT
HETATM    1  C   UNL     1     -42.146 -53.670  13.344  1.00  0.00     0.044 C 
HETATM    2  C   UNL     1     -42.518 -52.611  12.297  1.00  0.00     0.236 C 
ENDROOT
BRANCH   2   3
HETATM    3  C   UNL     1     -43.092 -51.382  13.037  1.00  0.00     0.183 C 
BRANCH   3   4
HETATM    4  N   UNL     1     -44.522 -51.436  13.262  1.00  0.00    -0.302 N 
HETATM    5  C   UNL     1     -45.170 -51.179  14.440  1.00  0.00     0.111 A 
HETATM    6  C   UNL     1     -46.497 -51.453  14.213  1.00  0.00     0.037 A 
HETATM    7  C   UNL     1     -46.545 -51.889  12.877  1.00  0.00     0.108 A 
HETATM    8  N   UNL     1     -45.342 -51.896  12.297  1.00  0.00    -0.310 N 
ATOM      9  HN  UNL     1     -45.101 -52.183  11.348  1.00  0.00     0.186 HD
ENDBRANCH   3   4
ENDBRANCH   2   3
BRANCH   2  10
HETATM   10  N   UNL     1     -41.345 -52.233  11.489  1.00  0.00     0.089 N 
HETATM   11  H   UNL     1     -41.595 -52.167  10.504  1.00  0.00     0.316 HD
BRANCH  10  12
HETATM   12  C   UNL     1     -40.697 -50.989  11.915  1.00  0.00     0.274 C 
BRANCH  12  13
HETATM   13  C   UNL     1     -39.428 -51.302  12.740  1.00  0.00     0.014 C 
HETATM   14  C   UNL     1     -39.546 -50.893  14.218  1.00  0.00     0.006 C 
HETATM   15  C   UNL     1     -39.498 -49.380  14.427  1.00  0.00     0.000 C 
HETATM   16  C   UNL     1     -38.289 -48.736  13.754  1.00  0.00     0.000 C 
HETATM   17  C   UNL     1     -38.140 -49.142  12.292  1.00  0.00     0.000 C 
HETATM   18  C   UNL     1     -38.181 -50.656  12.114  1.00  0.00     0.006 C 
ENDBRANCH  12  13
ENDBRANCH  10  12
ENDBRANCH   2  10
TORSDOF 5
ENDMDL
MODEL 8
REMARK VINA RESULT:      -4.7      3.556      4.475
REMARK  5 active torsions:
REMARK  status: ('A' for Active; 'I' for Inactive)
REMARK    1  A    between atoms: C_2  and  C_3 
REMARK    2  A    between atoms: C_2  and  N_10 
REMARK    3  A    between atoms: C_3  and  N_4 
REMARK    4  A    between atoms: N_10  and  C_11 
REMARK    5  A    between atoms: C_11  and  C_12 
ROOT
HETATM    1  C   UNL     1     -42.161 -49.310  12.208  1.00  0.00     0.044 C 
HETATM    2  C   UNL     1     -40.927 -49.512  11.319  1.00  0.00     0.236 C 
ENDROOT
BRANCH   2   3
HETATM    3  C   UNL     1     -39.743 -48.749  11.955  1.00  0.00     0.183 C 
BRANCH   3   4
HETATM    4  N   UNL     1     -39.790 -47.312  11.766  1.00  0.00    -0.302 N 
HETATM    5  C   UNL     1     -39.737 -46.362  12.749  1.00  0.00     0.111 A 
HETATM    6  C   UNL     1     -39.918 -45.154  12.121  1.00  0.00     0.037 A 
HETATM    7  C   UNL     1     -40.094 -45.482  10.764  1.00  0.00     0.108 A 
HETATM    8  N   UNL     1     -40.033 -46.798  10.545  1.00  0.00    -0.310 N 
ATOM      9  HN  UNL     1     -40.144 -47.296   9.661  1.00  0.00     0.186 HD
ENDBRANCH   3   4
ENDBRANCH   2   3
BRANCH   2  10
HETATM   10  N   UNL     1     -40.608 -50.944  11.176  1.00  0.00     0.089 N 
HETATM   11  H   UNL     1     -39.638 -51.122  11.433  1.00  0.00     0.316 HD
BRANCH  10  12
HETATM   12  C   UNL     1     -41.488 -51.834  11.939  1.00  0.00     0.274 C 
BRANCH  12  13
HETATM   13  C   UNL     1     -40.657 -52.926  12.651  1.00  0.00     0.014 C 
HETATM   14  C   UNL     1     -41.498 -54.133  13.102  1.00  0.00     0.006 C 
HETATM   15  C   UNL     1     -42.402 -53.823  14.294  1.00  0.00     0.000 C 
HETATM   16  C   UNL     1     -41.638 -53.196  15.457  1.00  0.00     0.000 C 
HETATM   17  C   UNL     1     -40.783 -52.008  15.032  1.00  0.00     0.000 C 
HETATM   18  C   UNL     1     -39.884 -52.349  13.847  1.00  0.00     0.006 C 
ENDBRANCH  12  13
ENDBRANCH  10  12
ENDBRANCH   2  10
TORSDOF 5
ENDMDL
MODEL 9
REMARK VINA RESULT:      -4.7      3.035      3.760
REMARK  5 active torsions:
REMARK  status: ('A' for Active; 'I' for Inactive)
REMARK    1  A    between atoms: C_2  and  C_3 
REMARK    2  A    between atoms: C_2  and  N_10 
REMARK    3  A    between atoms: C_3  and  N_4 
REMARK    4  A    between atoms: N_10  and  C_11 
REMARK    5  A    between atoms: C_11  and  C_12 
ROOT
HETATM    1  C   UNL     1     -41.861 -50.464  14.185  1.00  0.00     0.044 C 
HETATM    2  C   UNL     1     -42.417 -50.590  12.760  1.00  0.00     0.236 C 
ENDROOT
BRANCH   2   3
HETATM    3  C   UNL     1     -41.265 -50.312  11.768  1.00  0.00     0.183 C 
BRANCH   3   4
HETATM    4  N   UNL     1     -41.245 -48.961  11.242  1.00  0.00    -0.302 N 
HETATM    5  C   UNL     1     -40.375 -47.966  11.595  1.00  0.00     0.111 A 
HETATM    6  C   UNL     1     -40.793 -46.841  10.927  1.00  0.00     0.037 A 
HETATM    7  C   UNL     1     -41.934 -47.254  10.215  1.00  0.00     0.108 A 
HETATM    8  N   UNL     1     -42.224 -48.541  10.416  1.00  0.00    -0.310 N 
ATOM      9  HN  UNL     1     -43.002 -49.080  10.035  1.00  0.00     0.186 HD
ENDBRANCH   3   4
ENDBRANCH   2   3
BRANCH   2  10
HETATM   10  N   UNL     1     -42.989 -51.929  12.534  1.00  0.00     0.089 N 
HETATM   11  H   UNL     1     -42.400 -52.468  11.901  1.00  0.00     0.316 HD
BRANCH  10  12
HETATM   12  C   UNL     1     -43.223 -52.698  13.760  1.00  0.00     0.274 C 
BRANCH  12  13
HETATM   13  C   UNL     1     -42.730 -54.152  13.581  1.00  0.00     0.014 C 
HETATM   14  C   UNL     1     -42.766 -54.970  14.884  1.00  0.00     0.006 C 
HETATM   15  C   UNL     1     -41.683 -54.560  15.880  1.00  0.00     0.000 C 
HETATM   16  C   UNL     1     -40.290 -54.547  15.256  1.00  0.00     0.000 C 
HETATM   17  C   UNL     1     -40.234 -53.756  13.953  1.00  0.00     0.000 C 
HETATM   18  C   UNL     1     -41.319 -54.193  12.974  1.00  0.00     0.006 C 
ENDBRANCH  12  13
ENDBRANCH  10  12
ENDBRANCH   2  10
TORSDOF 5
ENDMDL
