MODEL 1
REMARK VINA RESULT:      -7.1      0.000      0.000
REMARK  7 active torsions:
REMARK  status: ('A' for Active; 'I' for Inactive)
REMARK    1  A    between atoms: C_2  and  C_4 
REMARK    2  A    between atoms: C_8  and  O_9 
REMARK    3  A    between atoms: O_9  and  C_10 
REMARK    4  A    between atoms: C_10  and  C_11 
REMARK    5  A    between atoms: C_11  and  O_12 
REMARK    6  A    between atoms: C_11  and  C_13 
REMARK    7  A    between atoms: C_13  and  N_14 
ROOT
HETATM    1  C   UNL     1     -40.071 -49.542  11.635  1.00  0.00     0.160 C 
ENDROOT
BRANCH   1   2
HETATM    2  C   UNL     1     -39.797 -50.673  12.646  1.00  0.00     0.209 C 
BRANCH   2   3
HETATM    3  O   UNL     1     -40.127 -51.925  12.040  1.00  0.00    -0.349 OA
BRANCH   3   4
HETATM    4  C   UNL     1     -40.958 -52.765  12.731  1.00  0.00     0.069 A 
HETATM    5  C   UNL     1     -40.342 -53.462  13.772  1.00  0.00     0.037 A 
HETATM    6  C   UNL     1     -41.072 -54.343  14.571  1.00  0.00     0.004 A 
HETATM    7  C   UNL     1     -42.434 -54.530  14.337  1.00  0.00     0.015 A 
HETATM    8  C   UNL     1     -43.063 -53.840  13.296  1.00  0.00     0.012 A 
HETATM    9  C   UNL     1     -42.317 -52.962  12.488  1.00  0.00     0.051 A 
BRANCH   8  10
HETATM   10  C   UNL     1     -44.521 -53.995  13.014  1.00  0.00     0.155 C 
HETATM   11  C   UNL     1     -45.303 -55.045  13.762  1.00  0.00     0.096 C 
HETATM   12  O   UNL     1     -45.063 -53.263  12.189  1.00  0.00    -0.293 OA
ENDBRANCH   8  10
ENDBRANCH   3   4
ENDBRANCH   2   3
ENDBRANCH   1   2
BRANCH   1  13
HETATM   13  O   UNL     1     -40.468 -50.091  10.368  1.00  0.00    -0.392 OA
HETATM   14  H   UNL     1     -39.730 -50.018   9.740  1.00  0.00     0.210 HD
ENDBRANCH   1  13
BRANCH   1  15
HETATM   15  C   UNL     1     -41.175 -48.619  12.161  1.00  0.00     0.164 C 
BRANCH  15  16
HETATM   16  N   UNL     1     -41.499 -47.536  11.252  1.00  0.00    -0.339 N 
HETATM   17  C   UNL     1     -40.622 -46.565  10.852  1.00  0.00     0.184 A 
HETATM   18  N   UNL     1     -41.158 -45.756   9.970  1.00  0.00    -0.350 N 
HETATM   19  C   UNL     1     -42.441 -46.212   9.801  1.00  0.00     0.060 A 
ATOM     20  HN  UNL     1     -40.717 -44.960   9.510  1.00  0.00     0.166 HD
HETATM   21  C   UNL     1     -43.459 -45.710   8.975  1.00  0.00     0.032 A 
HETATM   22  C   UNL     1     -42.687 -47.334  10.593  1.00  0.00     0.062 A 
HETATM   23  C   UNL     1     -44.700 -46.358   8.969  1.00  0.00     0.002 A 
HETATM   24  C   UNL     1     -44.923 -47.480   9.768  1.00  0.00     0.002 A 
HETATM   25  C   UNL     1     -43.922 -47.994  10.601  1.00  0.00     0.032 A 
ENDBRANCH  15  16
ENDBRANCH   1  15
TORSDOF 7
ENDMDL
MODEL 2
REMARK VINA RESULT:      -6.9      3.102      4.295
REMARK  7 active torsions:
REMARK  status: ('A' for Active; 'I' for Inactive)
REMARK    1  A    between atoms: C_2  and  C_4 
REMARK    2  A    between atoms: C_8  and  O_9 
REMARK    3  A    between atoms: O_9  and  C_10 
REMARK    4  A    between atoms: C_10  and  C_11 
REMARK    5  A    between atoms: C_11  and  O_12 
REMARK    6  A    between atoms: C_11  and  C_13 
REMARK    7  A    between atoms: C_13  and  N_14 
ROOT
HETATM    1  C   UNL     1     -40.979 -50.797  11.893  1.00  0.00     0.160 C 
ENDROOT
BRANCH   1   2
HETATM    2  C   UNL     1     -41.283 -52.290  11.661  1.00  0.00     0.209 C 
BRANCH   2   3
HETATM    3  O   UNL     1     -40.477 -53.069  12.549  1.00  0.00    -0.349 OA
BRANCH   3   4
HETATM    4  C   UNL     1     -41.110 -53.730  13.566  1.00  0.00     0.069 A 
HETATM    5  C   UNL     1     -40.255 -54.252  14.539  1.00  0.00     0.037 A 
HETATM    6  C   UNL     1     -40.764 -54.938  15.642  1.00  0.00     0.004 A 
HETATM    7  C   UNL     1     -42.141 -55.105  15.785  1.00  0.00     0.015 A 
HETATM    8  C   UNL     1     -43.009 -54.589  14.816  1.00  0.00     0.012 A 
HETATM    9  C   UNL     1     -42.487 -53.908  13.701  1.00  0.00     0.051 A 
BRANCH   8  10
HETATM   10  C   UNL     1     -44.491 -54.730  14.929  1.00  0.00     0.155 C 
HETATM   11  C   UNL     1     -45.300 -54.987  13.683  1.00  0.00     0.096 C 
HETATM   12  O   UNL     1     -45.027 -54.644  16.032  1.00  0.00    -0.293 OA
ENDBRANCH   8  10
ENDBRANCH   3   4
ENDBRANCH   2   3
ENDBRANCH   1   2
BRANCH   1  13
HETATM   13  O   UNL     1     -40.351 -50.229  10.733  1.00  0.00    -0.392 OA
HETATM   14  H   UNL     1     -40.462 -49.264  10.746  1.00  0.00     0.210 HD
ENDBRANCH   1  13
BRANCH   1  15
HETATM   15  C   UNL     1     -42.275 -50.036  12.197  1.00  0.00     0.164 C 
BRANCH  15  16
HETATM   16  N   UNL     1     -42.805 -50.312  13.520  1.00  0.00    -0.339 N 
HETATM   17  C   UNL     1     -42.116 -50.134  14.688  1.00  0.00     0.184 A 
HETATM   18  N   UNL     1     -42.860 -50.390  15.737  1.00  0.00    -0.350 N 
HETATM   19  C   UNL     1     -44.079 -50.763  15.228  1.00  0.00     0.060 A 
ATOM     20  HN  UNL     1     -42.591 -50.325  16.719  1.00  0.00     0.166 HD
HETATM   21  C   UNL     1     -45.243 -51.150  15.910  1.00  0.00     0.032 A 
HETATM   22  C   UNL     1     -44.077 -50.722  13.834  1.00  0.00     0.062 A 
HETATM   23  C   UNL     1     -46.379 -51.484  15.163  1.00  0.00     0.002 A 
HETATM   24  C   UNL     1     -46.356 -51.434  13.768  1.00  0.00     0.002 A 
HETATM   25  C   UNL     1     -45.203 -51.053  13.070  1.00  0.00     0.032 A 
ENDBRANCH  15  16
ENDBRANCH   1  15
TORSDOF 7
ENDMDL
MODEL 3
REMARK VINA RESULT:      -6.7      4.077      6.247
REMARK  7 active torsions:
REMARK  status: ('A' for Active; 'I' for Inactive)
REMARK    1  A    between atoms: C_2  and  C_4 
REMARK    2  A    between atoms: C_8  and  O_9 
REMARK    3  A    between atoms: O_9  and  C_10 
REMARK    4  A    between atoms: C_10  and  C_11 
REMARK    5  A    between atoms: C_11  and  O_12 
REMARK    6  A    between atoms: C_11  and  C_13 
REMARK    7  A    between atoms: C_13  and  N_14 
ROOT
HETATM    1  C   UNL     1     -43.053 -54.941  15.280  1.00  0.00     0.160 C 
ENDROOT
BRANCH   1   2
HETATM    2  C   UNL     1     -44.075 -55.316  14.188  1.00  0.00     0.209 C 
BRANCH   2   3
HETATM    3  O   UNL     1     -45.394 -55.115  14.702  1.00  0.00    -0.349 OA
BRANCH   3   4
HETATM    4  C   UNL     1     -45.881 -53.836  14.717  1.00  0.00     0.069 A 
HETATM    5  C   UNL     1     -45.881 -53.201  13.473  1.00  0.00     0.037 A 
HETATM    6  C   UNL     1     -46.363 -51.899  13.335  1.00  0.00     0.004 A 
HETATM    7  C   UNL     1     -46.857 -51.218  14.448  1.00  0.00     0.015 A 
HETATM    8  C   UNL     1     -46.860 -51.841  15.701  1.00  0.00     0.012 A 
HETATM    9  C   UNL     1     -46.362 -53.150  15.832  1.00  0.00     0.051 A 
BRANCH   8  10
HETATM   10  C   UNL     1     -47.390 -51.160  16.919  1.00  0.00     0.155 C 
HETATM   11  C   UNL     1     -46.477 -50.257  17.709  1.00  0.00     0.096 C 
HETATM   12  O   UNL     1     -48.560 -51.335  17.253  1.00  0.00    -0.293 OA
ENDBRANCH   8  10
ENDBRANCH   3   4
ENDBRANCH   2   3
ENDBRANCH   1   2
BRANCH   1  13
HETATM   13  O   UNL     1     -42.722 -56.093  16.070  1.00  0.00    -0.392 OA
HETATM   14  H   UNL     1     -43.169 -56.875  15.705  1.00  0.00     0.210 HD
ENDBRANCH   1  13
BRANCH   1  15
HETATM   15  C   UNL     1     -41.780 -54.377  14.640  1.00  0.00     0.164 C 
BRANCH  15  16
HETATM   16  N   UNL     1     -42.022 -53.206  13.818  1.00  0.00    -0.339 N 
HETATM   17  C   UNL     1     -41.833 -53.151  12.464  1.00  0.00     0.184 A 
HETATM   18  N   UNL     1     -42.200 -51.995  11.966  1.00  0.00    -0.350 N 
HETATM   19  C   UNL     1     -42.633 -51.263  13.044  1.00  0.00     0.060 A 
ATOM     20  HN  UNL     1     -42.171 -51.702  10.990  1.00  0.00     0.166 HD
HETATM   21  C   UNL     1     -43.130 -49.951  13.083  1.00  0.00     0.032 A 
HETATM   22  C   UNL     1     -42.536 -51.999  14.225  1.00  0.00     0.062 A 
HETATM   23  C   UNL     1     -43.519 -49.417  14.317  1.00  0.00     0.002 A 
HETATM   24  C   UNL     1     -43.415 -50.171  15.486  1.00  0.00     0.002 A 
HETATM   25  C   UNL     1     -42.919 -51.481  15.468  1.00  0.00     0.032 A 
ENDBRANCH  15  16
ENDBRANCH   1  15
TORSDOF 7
ENDMDL
MODEL 4
REMARK VINA RESULT:      -6.5      3.032      6.912
REMARK  7 active torsions:
REMARK  status: ('A' for Active; 'I' for Inactive)
REMARK    1  A    between atoms: C_2  and  C_4 
REMARK    2  A    between atoms: C_8  and  O_9 
REMARK    3  A    between atoms: O_9  and  C_10 
REMARK    4  A    between atoms: C_10  and  C_11 
REMARK    5  A    between atoms: C_11  and  O_12 
REMARK    6  A    between atoms: C_11  and  C_13 
REMARK    7  A    between atoms: C_13  and  N_14 
ROOT
HETATM    1  C   UNL     1     -41.779 -51.718  12.049  1.00  0.00     0.160 C 
ENDROOT
BRANCH   1   2
HETATM    2  C   UNL     1     -40.648 -50.735  12.414  1.00  0.00     0.209 C 
BRANCH   2   3
HETATM    3  O   UNL     1     -40.251 -50.029  11.236  1.00  0.00    -0.349 OA
BRANCH   3   4
HETATM    4  C   UNL     1     -40.705 -48.747  11.081  1.00  0.00     0.069 A 
HETATM    5  C   UNL     1     -39.956 -47.782  11.757  1.00  0.00     0.037 A 
HETATM    6  C   UNL     1     -40.295 -46.431  11.677  1.00  0.00     0.004 A 
HETATM    7  C   UNL     1     -41.390 -46.031  10.913  1.00  0.00     0.015 A 
HETATM    8  C   UNL     1     -42.152 -46.988  10.233  1.00  0.00     0.012 A 
HETATM    9  C   UNL     1     -41.810 -48.349  10.328  1.00  0.00     0.051 A 
BRANCH   8  10
HETATM   10  C   UNL     1     -43.325 -46.610   9.391  1.00  0.00     0.155 C 
HETATM   11  C   UNL     1     -44.640 -47.316   9.607  1.00  0.00     0.096 C 
HETATM   12  O   UNL     1     -43.207 -45.725   8.546  1.00  0.00    -0.293 OA
ENDBRANCH   8  10
ENDBRANCH   3   4
ENDBRANCH   2   3
ENDBRANCH   1   2
BRANCH   1  13
HETATM   13  O   UNL     1     -41.335 -52.636  11.038  1.00  0.00    -0.392 OA
HETATM   14  H   UNL     1     -41.449 -53.547  11.356  1.00  0.00     0.210 HD
ENDBRANCH   1  13
BRANCH   1  15
HETATM   15  C   UNL     1     -42.219 -52.499  13.291  1.00  0.00     0.164 C 
BRANCH  15  16
HETATM   16  N   UNL     1     -43.657 -52.682  13.374  1.00  0.00    -0.339 N 
HETATM   17  C   UNL     1     -44.379 -53.545  12.597  1.00  0.00     0.184 A 
HETATM   18  N   UNL     1     -45.645 -53.563  12.934  1.00  0.00    -0.350 N 
HETATM   19  C   UNL     1     -45.753 -52.664  13.965  1.00  0.00     0.060 A 
ATOM     20  HN  UNL     1     -46.390 -54.124  12.520  1.00  0.00     0.166 HD
HETATM   21  C   UNL     1     -46.890 -52.286  14.696  1.00  0.00     0.032 A 
HETATM   22  C   UNL     1     -44.517 -52.093  14.268  1.00  0.00     0.062 A 
HETATM   23  C   UNL     1     -46.747 -51.341  15.719  1.00  0.00     0.002 A 
HETATM   24  C   UNL     1     -45.500 -50.784  16.007  1.00  0.00     0.002 A 
HETATM   25  C   UNL     1     -44.355 -51.146  15.287  1.00  0.00     0.032 A 
ENDBRANCH  15  16
ENDBRANCH   1  15
TORSDOF 7
ENDMDL
MODEL 5
REMARK VINA RESULT:      -6.5      3.213      4.812
REMARK  7 active torsions:
REMARK  status: ('A' for Active; 'I' for Inactive)
REMARK    1  A    between atoms: C_2  and  C_4 
REMARK    2  A    between atoms: C_8  and  O_9 
REMARK    3  A    between atoms: O_9  and  C_10 
REMARK    4  A    between atoms: C_10  and  C_11 
REMARK    5  A    between atoms: C_11  and  O_12 
REMARK    6  A    between atoms: C_11  and  C_13 
REMARK    7  A    between atoms: C_13  and  N_14 
ROOT
HETATM    1  C   UNL     1     -41.211 -51.038  12.145  1.00  0.00     0.160 C 
ENDROOT
BRANCH   1   2
HETATM    2  C   UNL     1     -41.754 -52.437  11.795  1.00  0.00     0.209 C 
BRANCH   2   3
HETATM    3  O   UNL     1     -41.494 -53.321  12.889  1.00  0.00    -0.349 OA
BRANCH   3   4
HETATM    4  C   UNL     1     -42.566 -53.758  13.620  1.00  0.00     0.069 A 
HETATM    5  C   UNL     1     -43.664 -54.159  12.855  1.00  0.00     0.037 A 
HETATM    6  C   UNL     1     -44.821 -54.641  13.467  1.00  0.00     0.004 A 
HETATM    7  C   UNL     1     -44.889 -54.732  14.857  1.00  0.00     0.015 A 
HETATM    8  C   UNL     1     -43.797 -54.331  15.635  1.00  0.00     0.012 A 
HETATM    9  C   UNL     1     -42.638 -53.835  15.011  1.00  0.00     0.051 A 
BRANCH   8  10
HETATM   10  C   UNL     1     -43.815 -54.421  17.125  1.00  0.00     0.155 C 
HETATM   11  C   UNL     1     -45.070 -54.036  17.867  1.00  0.00     0.096 C 
HETATM   12  O   UNL     1     -42.817 -54.816  17.723  1.00  0.00    -0.293 OA
ENDBRANCH   8  10
ENDBRANCH   3   4
ENDBRANCH   2   3
ENDBRANCH   1   2
BRANCH   1  13
HETATM   13  O   UNL     1     -40.407 -50.531  11.068  1.00  0.00    -0.392 OA
HETATM   14  H   UNL     1     -40.770 -49.681  10.767  1.00  0.00     0.210 HD
ENDBRANCH   1  13
BRANCH   1  15
HETATM   15  C   UNL     1     -42.371 -50.074  12.415  1.00  0.00     0.164 C 
BRANCH  15  16
HETATM   16  N   UNL     1     -42.999 -50.280  13.707  1.00  0.00    -0.339 N 
HETATM   17  C   UNL     1     -42.404 -50.027  14.912  1.00  0.00     0.184 A 
HETATM   18  N   UNL     1     -43.225 -50.231  15.914  1.00  0.00    -0.350 N 
HETATM   19  C   UNL     1     -44.398 -50.647  15.336  1.00  0.00     0.060 A 
ATOM     20  HN  UNL     1     -43.033 -50.107  16.908  1.00  0.00     0.166 HD
HETATM   21  C   UNL     1     -45.608 -51.008  15.948  1.00  0.00     0.032 A 
HETATM   22  C   UNL     1     -44.289 -50.686  13.945  1.00  0.00     0.062 A 
HETATM   23  C   UNL     1     -46.681 -51.397  15.136  1.00  0.00     0.002 A 
HETATM   24  C   UNL     1     -46.551 -51.427  13.747  1.00  0.00     0.002 A 
HETATM   25  C   UNL     1     -45.351 -51.073  13.118  1.00  0.00     0.032 A 
ENDBRANCH  15  16
ENDBRANCH   1  15
TORSDOF 7
ENDMDL
MODEL 6
REMARK VINA RESULT:      -6.5      3.776      5.959
REMARK  7 active torsions:
REMARK  status: ('A' for Active; 'I' for Inactive)
REMARK    1  A    between atoms: C_2  and  C_4 
REMARK    2  A    between atoms: C_8  and  O_9 
REMARK    3  A    between atoms: O_9  and  C_10 
REMARK    4  A    between atoms: C_10  and  C_11 
REMARK    5  A    between atoms: C_11  and  O_12 
REMARK    6  A    between atoms: C_11  and  C_13 
REMARK    7  A    between atoms: C_13  and  N_14 
ROOT
HETATM    1  C   UNL     1     -41.267 -50.994  12.133  1.00  0.00     0.160 C 
ENDROOT
BRANCH   1   2
HETATM    2  C   UNL     1     -40.915 -50.045  13.295  1.00  0.00     0.209 C 
BRANCH   2   3
HETATM    3  O   UNL     1     -42.109 -49.398  13.743  1.00  0.00    -0.349 OA
BRANCH   3   4
HETATM    4  C   UNL     1     -42.977 -50.128  14.509  1.00  0.00     0.069 A 
HETATM    5  C   UNL     1     -42.464 -50.527  15.745  1.00  0.00     0.037 A 
HETATM    6  C   UNL     1     -43.243 -51.265  16.636  1.00  0.00     0.004 A 
HETATM    7  C   UNL     1     -44.552 -51.608  16.299  1.00  0.00     0.015 A 
HETATM    8  C   UNL     1     -45.078 -51.217  15.063  1.00  0.00     0.012 A 
HETATM    9  C   UNL     1     -44.281 -50.482  14.165  1.00  0.00     0.051 A 
BRANCH   8  10
HETATM   10  C   UNL     1     -46.477 -51.548  14.660  1.00  0.00     0.155 C 
HETATM   11  C   UNL     1     -47.440 -52.050  15.706  1.00  0.00     0.096 C 
HETATM   12  O   UNL     1     -46.826 -51.396  13.492  1.00  0.00    -0.293 OA
ENDBRANCH   8  10
ENDBRANCH   3   4
ENDBRANCH   2   3
ENDBRANCH   1   2
BRANCH   1  13
HETATM   13  O   UNL     1     -40.886 -50.409  10.878  1.00  0.00    -0.392 OA
HETATM   14  H   UNL     1     -40.259 -49.684  11.038  1.00  0.00     0.210 HD
ENDBRANCH   1  13
BRANCH   1  15
HETATM   15  C   UNL     1     -40.550 -52.336  12.311  1.00  0.00     0.164 C 
BRANCH  15  16
HETATM   16  N   UNL     1     -41.116 -53.153  13.369  1.00  0.00    -0.339 N 
HETATM   17  C   UNL     1     -40.471 -53.482  14.529  1.00  0.00     0.184 A 
HETATM   18  N   UNL     1     -41.242 -54.166  15.339  1.00  0.00    -0.350 N 
HETATM   19  C   UNL     1     -42.434 -54.299  14.670  1.00  0.00     0.060 A 
ATOM     20  HN  UNL     1     -41.008 -54.523  16.266  1.00  0.00     0.166 HD
HETATM   21  C   UNL     1     -43.609 -54.950  15.075  1.00  0.00     0.032 A 
HETATM   22  C   UNL     1     -42.387 -53.669  13.426  1.00  0.00     0.062 A 
HETATM   23  C   UNL     1     -44.711 -54.946  14.211  1.00  0.00     0.002 A 
HETATM   24  C   UNL     1     -44.643 -54.307  12.972  1.00  0.00     0.002 A 
HETATM   25  C   UNL     1     -43.478 -53.655  12.549  1.00  0.00     0.032 A 
ENDBRANCH  15  16
ENDBRANCH   1  15
TORSDOF 7
ENDMDL
MODEL 7
REMARK VINA RESULT:      -6.4      1.399      2.467
REMARK  7 active torsions:
REMARK  status: ('A' for Active; 'I' for Inactive)
REMARK    1  A    between atoms: C_2  and  C_4 
REMARK    2  A    between atoms: C_8  and  O_9 
REMARK    3  A    between atoms: O_9  and  C_10 
REMARK    4  A    between atoms: C_10  and  C_11 
REMARK    5  A    between atoms: C_11  and  O_12 
REMARK    6  A    between atoms: C_11  and  C_13 
REMARK    7  A    between atoms: C_13  and  N_14 
ROOT
HETATM    1  C   UNL     1     -39.674 -49.898  11.983  1.00  0.00     0.160 C 
ENDROOT
BRANCH   1   2
HETATM    2  C   UNL     1     -39.699 -51.315  12.590  1.00  0.00     0.209 C 
BRANCH   2   3
HETATM    3  O   UNL     1     -40.701 -52.086  11.923  1.00  0.00    -0.349 OA
BRANCH   3   4
HETATM    4  C   UNL     1     -41.482 -52.909  12.688  1.00  0.00     0.069 A 
HETATM    5  C   UNL     1     -40.803 -53.552  13.726  1.00  0.00     0.037 A 
HETATM    6  C   UNL     1     -41.477 -54.410  14.596  1.00  0.00     0.004 A 
HETATM    7  C   UNL     1     -42.845 -54.630  14.436  1.00  0.00     0.015 A 
HETATM    8  C   UNL     1     -43.536 -53.996  13.399  1.00  0.00     0.012 A 
HETATM    9  C   UNL     1     -42.847 -53.141  12.520  1.00  0.00     0.051 A 
BRANCH   8  10
HETATM   10  C   UNL     1     -45.003 -54.189  13.195  1.00  0.00     0.155 C 
HETATM   11  C   UNL     1     -45.696 -55.330  13.895  1.00  0.00     0.096 C 
HETATM   12  O   UNL     1     -45.623 -53.413  12.471  1.00  0.00    -0.293 OA
ENDBRANCH   8  10
ENDBRANCH   3   4
ENDBRANCH   2   3
ENDBRANCH   1   2
BRANCH   1  13
HETATM   13  O   UNL     1     -39.146 -49.937  10.648  1.00  0.00    -0.392 OA
HETATM   14  H   UNL     1     -39.047 -49.029  10.314  1.00  0.00     0.210 HD
ENDBRANCH   1  13
BRANCH   1  15
HETATM   15  C   UNL     1     -41.088 -49.310  11.958  1.00  0.00     0.164 C 
BRANCH  15  16
HETATM   16  N   UNL     1     -41.164 -48.026  11.285  1.00  0.00    -0.339 N 
HETATM   17  C   UNL     1     -41.899 -47.778  10.158  1.00  0.00     0.184 A 
HETATM   18  N   UNL     1     -41.845 -46.516   9.808  1.00  0.00    -0.350 N 
HETATM   19  C   UNL     1     -41.030 -45.921  10.739  1.00  0.00     0.060 A 
ATOM     20  HN  UNL     1     -42.309 -46.071   9.016  1.00  0.00     0.166 HD
HETATM   21  C   UNL     1     -40.626 -44.581  10.836  1.00  0.00     0.032 A 
HETATM   22  C   UNL     1     -40.585 -46.846  11.684  1.00  0.00     0.062 A 
HETATM   23  C   UNL     1     -39.784 -44.208  11.891  1.00  0.00     0.002 A 
HETATM   24  C   UNL     1     -39.354 -45.149  12.827  1.00  0.00     0.002 A 
HETATM   25  C   UNL     1     -39.743 -46.491  12.745  1.00  0.00     0.032 A 
ENDBRANCH  15  16
ENDBRANCH   1  15
TORSDOF 7
ENDMDL
MODEL 8
REMARK VINA RESULT:      -6.4      4.375      6.650
REMARK  7 active torsions:
REMARK  status: ('A' for Active; 'I' for Inactive)
REMARK    1  A    between atoms: C_2  and  C_4 
REMARK    2  A    between atoms: C_8  and  O_9 
REMARK    3  A    between atoms: O_9  and  C_10 
REMARK    4  A    between atoms: C_10  and  C_11 
REMARK    5  A    between atoms: C_11  and  O_12 
REMARK    6  A    between atoms: C_11  and  C_13 
REMARK    7  A    between atoms: C_13  and  N_14 
ROOT
HETATM    1  C   UNL     1     -41.295 -53.243  12.540  1.00  0.00     0.160 C 
ENDROOT
BRANCH   1   2
HETATM    2  C   UNL     1     -42.473 -52.308  12.202  1.00  0.00     0.209 C 
BRANCH   2   3
HETATM    3  O   UNL     1     -43.655 -53.096  12.036  1.00  0.00    -0.349 OA
BRANCH   3   4
HETATM    4  C   UNL     1     -44.486 -53.227  13.115  1.00  0.00     0.069 A 
HETATM    5  C   UNL     1     -44.930 -54.531  13.349  1.00  0.00     0.037 A 
HETATM    6  C   UNL     1     -45.772 -54.816  14.425  1.00  0.00     0.004 A 
HETATM    7  C   UNL     1     -46.174 -53.794  15.284  1.00  0.00     0.015 A 
HETATM    8  C   UNL     1     -45.739 -52.483  15.060  1.00  0.00     0.012 A 
HETATM    9  C   UNL     1     -44.899 -52.203  13.967  1.00  0.00     0.051 A 
BRANCH   8  10
HETATM   10  C   UNL     1     -46.130 -51.357  15.960  1.00  0.00     0.155 C 
HETATM   11  C   UNL     1     -47.547 -51.287  16.470  1.00  0.00     0.096 C 
HETATM   12  O   UNL     1     -45.294 -50.514  16.278  1.00  0.00    -0.293 OA
ENDBRANCH   8  10
ENDBRANCH   3   4
ENDBRANCH   2   3
ENDBRANCH   1   2
BRANCH   1  13
HETATM   13  O   UNL     1     -40.459 -53.430  11.387  1.00  0.00    -0.392 OA
HETATM   14  H   UNL     1     -40.012 -54.291  11.449  1.00  0.00     0.210 HD
ENDBRANCH   1  13
BRANCH   1  15
HETATM   15  C   UNL     1     -40.463 -52.652  13.684  1.00  0.00     0.164 C 
BRANCH  15  16
HETATM   16  N   UNL     1     -41.223 -52.460  14.906  1.00  0.00    -0.339 N 
HETATM   17  C   UNL     1     -41.507 -51.244  15.464  1.00  0.00     0.184 A 
HETATM   18  N   UNL     1     -42.272 -51.360  16.523  1.00  0.00    -0.350 N 
HETATM   19  C   UNL     1     -42.482 -52.708  16.666  1.00  0.00     0.060 A 
ATOM     20  HN  UNL     1     -42.633 -50.610  17.112  1.00  0.00     0.166 HD
HETATM   21  C   UNL     1     -43.224 -53.391  17.642  1.00  0.00     0.032 A 
HETATM   22  C   UNL     1     -41.836 -53.429  15.661  1.00  0.00     0.062 A 
HETATM   23  C   UNL     1     -43.297 -54.787  17.575  1.00  0.00     0.002 A 
HETATM   24  C   UNL     1     -42.646 -55.488  16.560  1.00  0.00     0.002 A 
HETATM   25  C   UNL     1     -41.897 -54.826  15.579  1.00  0.00     0.032 A 
ENDBRANCH  15  16
ENDBRANCH   1  15
TORSDOF 7
ENDMDL
MODEL 9
REMARK VINA RESULT:      -6.3      2.930      7.412
REMARK  7 active torsions:
REMARK  status: ('A' for Active; 'I' for Inactive)
REMARK    1  A    between atoms: C_2  and  C_4 
REMARK    2  A    between atoms: C_8  and  O_9 
REMARK    3  A    between atoms: O_9  and  C_10 
REMARK    4  A    between atoms: C_10  and  C_11 
REMARK    5  A    between atoms: C_11  and  O_12 
REMARK    6  A    between atoms: C_11  and  C_13 
REMARK    7  A    between atoms: C_13  and  N_14 
ROOT
HETATM    1  C   UNL     1     -41.273 -52.092  12.026  1.00  0.00     0.160 C 
ENDROOT
BRANCH   1   2
HETATM    2  C   UNL     1     -40.499 -50.789  11.740  1.00  0.00     0.209 C 
BRANCH   2   3
HETATM    3  O   UNL     1     -41.001 -49.757  12.593  1.00  0.00    -0.349 OA
BRANCH   3   4
HETATM    4  C   UNL     1     -41.401 -48.588  12.006  1.00  0.00     0.069 A 
HETATM    5  C   UNL     1     -42.758 -48.539  11.678  1.00  0.00     0.037 A 
HETATM    6  C   UNL     1     -43.309 -47.402  11.087  1.00  0.00     0.004 A 
HETATM    7  C   UNL     1     -42.503 -46.295  10.821  1.00  0.00     0.015 A 
HETATM    8  C   UNL     1     -41.142 -46.331  11.142  1.00  0.00     0.012 A 
HETATM    9  C   UNL     1     -40.592 -47.486  11.728  1.00  0.00     0.051 A 
BRANCH   8  10
HETATM   10  C   UNL     1     -40.240 -45.167  10.890  1.00  0.00     0.155 C 
HETATM   11  C   UNL     1     -39.469 -44.577  12.043  1.00  0.00     0.096 C 
HETATM   12  O   UNL     1     -40.133 -44.717   9.752  1.00  0.00    -0.293 OA
ENDBRANCH   8  10
ENDBRANCH   3   4
ENDBRANCH   2   3
ENDBRANCH   1   2
BRANCH   1  13
HETATM   13  O   UNL     1     -40.539 -53.225  11.537  1.00  0.00    -0.392 OA
HETATM   14  H   UNL     1     -40.179 -53.021  10.658  1.00  0.00     0.210 HD
ENDBRANCH   1  13
BRANCH   1  15
HETATM   15  C   UNL     1     -41.508 -52.246  13.532  1.00  0.00     0.164 C 
BRANCH  15  16
HETATM   16  N   UNL     1     -42.675 -53.048  13.852  1.00  0.00    -0.339 N 
HETATM   17  C   UNL     1     -42.641 -54.376  14.179  1.00  0.00     0.184 A 
HETATM   18  N   UNL     1     -43.830 -54.831  14.493  1.00  0.00    -0.350 N 
HETATM   19  C   UNL     1     -44.673 -53.757  14.351  1.00  0.00     0.060 A 
ATOM     20  HN  UNL     1     -44.075 -55.778  14.782  1.00  0.00     0.166 HD
HETATM   21  C   UNL     1     -46.060 -53.686  14.553  1.00  0.00     0.032 A 
HETATM   22  C   UNL     1     -43.975 -52.618  13.949  1.00  0.00     0.062 A 
HETATM   23  C   UNL     1     -46.706 -52.462  14.346  1.00  0.00     0.002 A 
HETATM   24  C   UNL     1     -45.989 -51.334  13.947  1.00  0.00     0.002 A 
HETATM   25  C   UNL     1     -44.605 -51.386  13.738  1.00  0.00     0.032 A 
ENDBRANCH  15  16
ENDBRANCH   1  15
TORSDOF 7
ENDMDL
