MODEL 1
REMARK VINA RESULT:      -6.4      0.000      0.000
REMARK  3 active torsions:
REMARK  status: ('A' for Active; 'I' for Inactive)
REMARK       I    between atoms: C_2  and  N_3 
REMARK       I    between atoms: C_2  and  N_11 
REMARK    1  A    between atoms: N_3  and  C_4 
REMARK    2  A    between atoms: N_11  and  C_12 
REMARK    3  A    between atoms: C_15  and  N_19 
ROOT
HETATM    1  C   UNL     1     -42.014 -48.277  11.306  1.00  0.00     0.051 A 
HETATM    2  C   UNL     1     -40.780 -47.652  11.403  1.00  0.00     0.035 A 
HETATM    3  C   UNL     1     -40.703 -46.267  11.405  1.00  0.00     0.051 A 
HETATM    4  C   UNL     1     -41.855 -45.496  11.281  1.00  0.00     0.103 A 
HETATM    5  N   UNL     1     -43.055 -46.089  11.097  1.00  0.00    -0.350 N 
ATOM      6  HN  UNL     1     -43.896 -45.532  10.947  1.00  0.00     0.166 HD
HETATM    7  C   UNL     1     -43.111 -47.447  11.116  1.00  0.00     0.119 A 
ENDROOT
BRANCH   1   8
HETATM    8  N   UNL     1     -42.175 -49.679  11.404  1.00  0.00    -0.308 N 
HETATM    9  C   UNL     1     -42.664 -50.303  12.526  1.00  0.00     0.321 C 
HETATM   10  O   UNL     1     -43.048 -49.746  13.548  1.00  0.00    -0.247 OA
HETATM   11  N   UNL     1     -42.723 -51.672  12.405  1.00  0.00    -0.337 N 
HETATM   12  H   UNL     1     -42.162 -52.111  11.688  1.00  0.00     0.164 HD
HETATM   13  H   UNL     1     -42.187 -50.207  10.544  1.00  0.00     0.170 HD
BRANCH  11  14
HETATM   14  C   UNL     1     -43.194 -52.493  13.521  1.00  0.00     0.101 C 
HETATM   15  C   UNL     1     -42.181 -53.590  13.918  1.00  0.00     0.041 C 
HETATM   16  C   UNL     1     -42.908 -54.773  14.551  1.00  0.00     0.142 C 
HETATM   17  S   UNL     1     -44.644 -54.409  14.509  1.00  0.00     0.146 S 
HETATM   18  O   UNL     1     -45.371 -55.548  13.991  1.00  0.00    -0.228 OA
HETATM   19  O   UNL     1     -45.004 -53.773  15.758  1.00  0.00    -0.228 OA
HETATM   20  C   UNL     1     -44.551 -53.151  13.268  1.00  0.00     0.165 C 
ENDBRANCH  11  14
ENDBRANCH   1   8
BRANCH   4  21
HETATM   21  N   UNL     1     -41.750 -44.122  11.278  1.00  0.00    -0.367 N 
HETATM   22  C   UNL     1     -40.452 -43.493  11.088  1.00  0.00     0.124 C 
HETATM   23  C   UNL     1     -40.375 -42.307  12.057  1.00  0.00     0.020 C 
HETATM   24  C   UNL     1     -41.576 -41.365  11.907  1.00  0.00     0.003 C 
HETATM   25  C   UNL     1     -42.903 -42.124  11.976  1.00  0.00     0.020 C 
HETATM   26  C   UNL     1     -42.908 -43.283  10.982  1.00  0.00     0.124 C 
ENDBRANCH   4  21
TORSDOF 3
ENDMDL
MODEL 2
REMARK VINA RESULT:      -6.4      4.034      9.841
REMARK  3 active torsions:
REMARK  status: ('A' for Active; 'I' for Inactive)
REMARK       I    between atoms: C_2  and  N_3 
REMARK       I    between atoms: C_2  and  N_11 
REMARK    1  A    between atoms: N_3  and  C_4 
REMARK    2  A    between atoms: N_11  and  C_12 
REMARK    3  A    between atoms: C_15  and  N_19 
ROOT
HETATM    1  C   UNL     1     -40.488 -52.434  12.798  1.00  0.00     0.051 A 
HETATM    2  C   UNL     1     -41.411 -53.427  13.087  1.00  0.00     0.035 A 
HETATM    3  C   UNL     1     -41.205 -54.270  14.170  1.00  0.00     0.051 A 
HETATM    4  C   UNL     1     -40.063 -54.145  14.955  1.00  0.00     0.103 A 
HETATM    5  N   UNL     1     -39.112 -53.240  14.634  1.00  0.00    -0.350 N 
ATOM      6  HN  UNL     1     -38.246 -53.180  15.168  1.00  0.00     0.166 HD
HETATM    7  C   UNL     1     -39.341 -52.412  13.580  1.00  0.00     0.119 A 
ENDROOT
BRANCH   1   8
HETATM    8  N   UNL     1     -40.687 -51.475  11.777  1.00  0.00    -0.308 N 
HETATM    9  C   UNL     1     -41.183 -50.217  12.013  1.00  0.00     0.321 C 
HETATM   10  O   UNL     1     -41.479 -49.755  13.110  1.00  0.00    -0.247 OA
HETATM   11  N   UNL     1     -41.305 -49.457  10.873  1.00  0.00    -0.337 N 
HETATM   12  H   UNL     1     -41.319 -49.934   9.982  1.00  0.00     0.164 HD
HETATM   13  H   UNL     1     -40.204 -51.621  10.903  1.00  0.00     0.170 HD
BRANCH  11  14
HETATM   14  C   UNL     1     -41.846 -48.099  10.944  1.00  0.00     0.101 C 
HETATM   15  C   UNL     1     -42.773 -47.768   9.753  1.00  0.00     0.041 C 
HETATM   16  C   UNL     1     -42.771 -46.265   9.488  1.00  0.00     0.142 C 
HETATM   17  S   UNL     1     -41.639 -45.527  10.637  1.00  0.00     0.146 S 
HETATM   18  O   UNL     1     -40.752 -44.622   9.939  1.00  0.00    -0.228 OA
HETATM   19  O   UNL     1     -42.385 -45.118  11.809  1.00  0.00    -0.228 OA
HETATM   20  C   UNL     1     -40.770 -47.015  11.041  1.00  0.00     0.165 C 
ENDBRANCH  11  14
ENDBRANCH   1   8
BRANCH   4  21
HETATM   21  N   UNL     1     -39.879 -54.999  16.020  1.00  0.00    -0.367 N 
HETATM   22  C   UNL     1     -38.695 -54.872  16.856  1.00  0.00     0.124 C 
HETATM   23  C   UNL     1     -38.205 -56.291  17.168  1.00  0.00     0.020 C 
HETATM   24  C   UNL     1     -39.318 -57.167  17.756  1.00  0.00     0.003 C 
HETATM   25  C   UNL     1     -40.579 -57.134  16.891  1.00  0.00     0.020 C 
HETATM   26  C   UNL     1     -41.011 -55.693  16.628  1.00  0.00     0.124 C 
ENDBRANCH   4  21
TORSDOF 3
ENDMDL
MODEL 3
REMARK VINA RESULT:      -6.4      1.625      2.232
REMARK  3 active torsions:
REMARK  status: ('A' for Active; 'I' for Inactive)
REMARK       I    between atoms: C_2  and  N_3 
REMARK       I    between atoms: C_2  and  N_11 
REMARK    1  A    between atoms: N_3  and  C_4 
REMARK    2  A    between atoms: N_11  and  C_12 
REMARK    3  A    between atoms: C_15  and  N_19 
ROOT
HETATM    1  C   UNL     1     -40.529 -49.553  11.427  1.00  0.00     0.051 A 
HETATM    2  C   UNL     1     -39.610 -49.055  12.338  1.00  0.00     0.035 A 
HETATM    3  C   UNL     1     -39.415 -47.685  12.447  1.00  0.00     0.051 A 
HETATM    4  C   UNL     1     -40.117 -46.805  11.630  1.00  0.00     0.103 A 
HETATM    5  N   UNL     1     -40.950 -47.278  10.677  1.00  0.00    -0.350 N 
ATOM      6  HN  UNL     1     -41.424 -46.643  10.035  1.00  0.00     0.166 HD
HETATM    7  C   UNL     1     -41.140 -48.622  10.598  1.00  0.00     0.119 A 
ENDROOT
BRANCH   1   8
HETATM    8  N   UNL     1     -40.853 -50.926  11.337  1.00  0.00    -0.308 N 
HETATM    9  C   UNL     1     -41.760 -51.541  12.165  1.00  0.00     0.321 C 
HETATM   10  O   UNL     1     -42.417 -50.993  13.043  1.00  0.00    -0.247 OA
HETATM   11  N   UNL     1     -41.910 -52.884  11.906  1.00  0.00    -0.337 N 
HETATM   12  H   UNL     1     -41.183 -53.353  11.384  1.00  0.00     0.164 HD
HETATM   13  H   UNL     1     -40.619 -51.404  10.479  1.00  0.00     0.170 HD
BRANCH  11  14
HETATM   14  C   UNL     1     -42.819 -53.695  12.717  1.00  0.00     0.101 C 
HETATM   15  C   UNL     1     -44.305 -53.367  12.450  1.00  0.00     0.041 C 
HETATM   16  C   UNL     1     -45.143 -53.683  13.685  1.00  0.00     0.142 C 
HETATM   17  S   UNL     1     -44.032 -54.246  14.948  1.00  0.00     0.146 S 
HETATM   18  O   UNL     1     -44.310 -53.556  16.189  1.00  0.00    -0.228 OA
HETATM   19  O   UNL     1     -43.955 -55.690  14.874  1.00  0.00    -0.228 OA
HETATM   20  C   UNL     1     -42.559 -53.588  14.221  1.00  0.00     0.165 C 
ENDBRANCH  11  14
ENDBRANCH   1   8
BRANCH   4  21
HETATM   21  N   UNL     1     -39.900 -45.449  11.754  1.00  0.00    -0.367 N 
HETATM   22  C   UNL     1     -39.163 -44.934  12.898  1.00  0.00     0.124 C 
HETATM   23  C   UNL     1     -39.875 -43.656  13.357  1.00  0.00     0.020 C 
HETATM   24  C   UNL     1     -40.062 -42.658  12.208  1.00  0.00     0.003 C 
HETATM   25  C   UNL     1     -40.714 -43.315  10.989  1.00  0.00     0.020 C 
HETATM   26  C   UNL     1     -39.949 -44.574  10.587  1.00  0.00     0.124 C 
ENDBRANCH   4  21
TORSDOF 3
ENDMDL
MODEL 4
REMARK VINA RESULT:      -6.4      3.797      4.643
REMARK  3 active torsions:
REMARK  status: ('A' for Active; 'I' for Inactive)
REMARK       I    between atoms: C_2  and  N_3 
REMARK       I    between atoms: C_2  and  N_11 
REMARK    1  A    between atoms: N_3  and  C_4 
REMARK    2  A    between atoms: N_11  and  C_12 
REMARK    3  A    between atoms: C_15  and  N_19 
ROOT
HETATM    1  C   UNL     1     -41.017 -45.214  10.724  1.00  0.00     0.051 A 
HETATM    2  C   UNL     1     -40.235 -44.076  10.846  1.00  0.00     0.035 A 
HETATM    3  C   UNL     1     -40.832 -42.848  11.091  1.00  0.00     0.051 A 
HETATM    4  C   UNL     1     -42.216 -42.743  11.189  1.00  0.00     0.103 A 
HETATM    5  N   UNL     1     -42.997 -43.826  10.986  1.00  0.00    -0.350 N 
ATOM      6  HN  UNL     1     -44.014 -43.747  10.998  1.00  0.00     0.166 HD
HETATM    7  C   UNL     1     -42.392 -45.023  10.764  1.00  0.00     0.119 A 
ENDROOT
BRANCH   1   8
HETATM    8  N   UNL     1     -40.470 -46.510  10.579  1.00  0.00    -0.308 N 
HETATM    9  C   UNL     1     -39.875 -47.195  11.610  1.00  0.00     0.321 C 
HETATM   10  O   UNL     1     -39.772 -46.803  12.768  1.00  0.00    -0.247 OA
HETATM   11  N   UNL     1     -39.402 -48.432  11.241  1.00  0.00    -0.337 N 
HETATM   12  H   UNL     1     -39.254 -48.612  10.257  1.00  0.00     0.164 HD
HETATM   13  H   UNL     1     -40.761 -47.051   9.778  1.00  0.00     0.170 HD
BRANCH  11  14
HETATM   14  C   UNL     1     -38.713 -49.281  12.214  1.00  0.00     0.101 C 
HETATM   15  C   UNL     1     -37.444 -49.941  11.631  1.00  0.00     0.041 C 
HETATM   16  C   UNL     1     -37.151 -51.251  12.358  1.00  0.00     0.142 C 
HETATM   17  S   UNL     1     -38.447 -51.497  13.543  1.00  0.00     0.146 S 
HETATM   18  O   UNL     1     -38.953 -52.849  13.442  1.00  0.00    -0.228 OA
HETATM   19  O   UNL     1     -38.020 -50.931  14.806  1.00  0.00    -0.228 OA
HETATM   20  C   UNL     1     -39.602 -50.375  12.810  1.00  0.00     0.165 C 
ENDBRANCH  11  14
ENDBRANCH   1   8
BRANCH   4  21
HETATM   21  N   UNL     1     -42.784 -41.509  11.426  1.00  0.00    -0.367 N 
HETATM   22  C   UNL     1     -42.010 -40.298  11.201  1.00  0.00     0.124 C 
HETATM   23  C   UNL     1     -42.323 -39.338  12.355  1.00  0.00     0.020 C 
HETATM   24  C   UNL     1     -43.831 -39.117  12.526  1.00  0.00     0.003 C 
HETATM   25  C   UNL     1     -44.590 -40.443  12.612  1.00  0.00     0.020 C 
HETATM   26  C   UNL     1     -44.234 -41.342  11.430  1.00  0.00     0.124 C 
ENDBRANCH   4  21
TORSDOF 3
ENDMDL
MODEL 5
REMARK VINA RESULT:      -5.9      2.931      3.452
REMARK  3 active torsions:
REMARK  status: ('A' for Active; 'I' for Inactive)
REMARK       I    between atoms: C_2  and  N_3 
REMARK       I    between atoms: C_2  and  N_11 
REMARK    1  A    between atoms: N_3  and  C_4 
REMARK    2  A    between atoms: N_11  and  C_12 
REMARK    3  A    between atoms: C_15  and  N_19 
ROOT
HETATM    1  C   UNL     1     -40.936 -49.832  11.369  1.00  0.00     0.051 A 
HETATM    2  C   UNL     1     -42.142 -49.167  11.535  1.00  0.00     0.035 A 
HETATM    3  C   UNL     1     -42.200 -47.789  11.382  1.00  0.00     0.051 A 
HETATM    4  C   UNL     1     -41.051 -47.062  11.089  1.00  0.00     0.103 A 
HETATM    5  N   UNL     1     -39.853 -47.684  11.010  1.00  0.00    -0.350 N 
ATOM      6  HN  UNL     1     -38.998 -47.152  10.853  1.00  0.00     0.166 HD
HETATM    7  C   UNL     1     -39.820 -49.036  11.146  1.00  0.00     0.119 A 
ENDROOT
BRANCH   1   8
HETATM    8  N   UNL     1     -40.825 -51.241  11.406  1.00  0.00    -0.308 N 
HETATM    9  C   UNL     1     -40.573 -51.946  12.558  1.00  0.00     0.321 C 
HETATM   10  O   UNL     1     -40.450 -51.467  13.680  1.00  0.00    -0.247 OA
HETATM   11  N   UNL     1     -40.494 -53.304  12.358  1.00  0.00    -0.337 N 
HETATM   12  H   UNL     1     -40.328 -53.639  11.419  1.00  0.00     0.164 HD
HETATM   13  H   UNL     1     -41.205 -51.758  10.627  1.00  0.00     0.170 HD
BRANCH  11  14
HETATM   14  C   UNL     1     -40.203 -54.200  13.478  1.00  0.00     0.101 C 
HETATM   15  C   UNL     1     -41.391 -54.329  14.458  1.00  0.00     0.041 C 
HETATM   16  C   UNL     1     -40.884 -54.671  15.857  1.00  0.00     0.142 C 
HETATM   17  S   UNL     1     -39.112 -54.717  15.779  1.00  0.00     0.146 S 
HETATM   18  O   UNL     1     -38.554 -53.949  16.872  1.00  0.00    -0.228 OA
HETATM   19  O   UNL     1     -38.705 -56.081  15.513  1.00  0.00    -0.228 OA
HETATM   20  C   UNL     1     -38.957 -53.802  14.273  1.00  0.00     0.165 C 
ENDBRANCH  11  14
ENDBRANCH   1   8
BRANCH   4  21
HETATM   21  N   UNL     1     -41.135 -45.694  10.948  1.00  0.00    -0.367 N 
HETATM   22  C   UNL     1     -39.944 -44.923  10.623  1.00  0.00     0.124 C 
HETATM   23  C   UNL     1     -39.986 -43.644  11.468  1.00  0.00     0.020 C 
HETATM   24  C   UNL     1     -41.310 -42.888  11.300  1.00  0.00     0.003 C 
HETATM   25  C   UNL     1     -42.516 -43.804  11.519  1.00  0.00     0.020 C 
HETATM   26  C   UNL     1     -42.409 -45.049  10.642  1.00  0.00     0.124 C 
ENDBRANCH   4  21
TORSDOF 3
ENDMDL
MODEL 6
REMARK VINA RESULT:      -5.7     16.302     18.617
REMARK  3 active torsions:
REMARK  status: ('A' for Active; 'I' for Inactive)
REMARK       I    between atoms: C_2  and  N_3 
REMARK       I    between atoms: C_2  and  N_11 
REMARK    1  A    between atoms: N_3  and  C_4 
REMARK    2  A    between atoms: N_11  and  C_12 
REMARK    3  A    between atoms: C_15  and  N_19 
ROOT
HETATM    1  C   UNL     1     -50.002 -53.476  -1.375  1.00  0.00     0.051 A 
HETATM    2  C   UNL     1     -51.070 -54.070  -2.028  1.00  0.00     0.035 A 
HETATM    3  C   UNL     1     -50.841 -55.069  -2.964  1.00  0.00     0.051 A 
HETATM    4  C   UNL     1     -49.543 -55.463  -3.273  1.00  0.00     0.103 A 
HETATM    5  N   UNL     1     -48.488 -54.833  -2.710  1.00  0.00    -0.350 N 
ATOM      6  HN  UNL     1     -47.533 -55.074  -2.974  1.00  0.00     0.166 HD
HETATM    7  C   UNL     1     -48.734 -53.869  -1.783  1.00  0.00     0.119 A 
ENDROOT
BRANCH   1   8
HETATM    8  N   UNL     1     -50.167 -52.529  -0.337  1.00  0.00    -0.308 N 
HETATM    9  C   UNL     1     -50.211 -51.174  -0.555  1.00  0.00     0.321 C 
HETATM   10  O   UNL     1     -50.150 -50.620  -1.648  1.00  0.00    -0.247 OA
HETATM   11  N   UNL     1     -50.366 -50.442   0.599  1.00  0.00    -0.337 N 
HETATM   12  H   UNL     1     -50.142 -50.886   1.478  1.00  0.00     0.164 HD
HETATM   13  H   UNL     1     -50.530 -52.863   0.543  1.00  0.00     0.170 HD
BRANCH  11  14
HETATM   14  C   UNL     1     -50.403 -48.980   0.546  1.00  0.00     0.101 C 
HETATM   15  C   UNL     1     -49.125 -48.334   1.126  1.00  0.00     0.041 C 
HETATM   16  C   UNL     1     -49.438 -46.941   1.665  1.00  0.00     0.142 C 
HETATM   17  S   UNL     1     -51.177 -46.670   1.450  1.00  0.00     0.146 S 
HETATM   18  O   UNL     1     -51.750 -46.162   2.678  1.00  0.00    -0.228 OA
HETATM   19  O   UNL     1     -51.380 -46.008   0.179  1.00  0.00    -0.228 OA
HETATM   20  C   UNL     1     -51.619 -48.372   1.250  1.00  0.00     0.165 C 
ENDBRANCH  11  14
ENDBRANCH   1   8
BRANCH   4  21
HETATM   21  N   UNL     1     -49.343 -56.453  -4.211  1.00  0.00    -0.367 N 
HETATM   22  C   UNL     1     -50.245 -56.570  -5.347  1.00  0.00     0.124 C 
HETATM   23  C   UNL     1     -50.504 -58.065  -5.568  1.00  0.00     0.020 C 
HETATM   24  C   UNL     1     -49.200 -58.861  -5.696  1.00  0.00     0.003 C 
HETATM   25  C   UNL     1     -48.246 -58.573  -4.535  1.00  0.00     0.020 C 
HETATM   26  C   UNL     1     -48.030 -57.069  -4.380  1.00  0.00     0.124 C 
ENDBRANCH   4  21
TORSDOF 3
ENDMDL
MODEL 7
REMARK VINA RESULT:      -5.7     16.571     19.046
REMARK  3 active torsions:
REMARK  status: ('A' for Active; 'I' for Inactive)
REMARK       I    between atoms: C_2  and  N_3 
REMARK       I    between atoms: C_2  and  N_11 
REMARK    1  A    between atoms: N_3  and  C_4 
REMARK    2  A    between atoms: N_11  and  C_12 
REMARK    3  A    between atoms: C_15  and  N_19 
ROOT
HETATM    1  C   UNL     1     -51.220 -53.203  -1.065  1.00  0.00     0.051 A 
HETATM    2  C   UNL     1     -52.480 -53.738  -0.847  1.00  0.00     0.035 A 
HETATM    3  C   UNL     1     -52.947 -54.764  -1.656  1.00  0.00     0.051 A 
HETATM    4  C   UNL     1     -52.169 -55.245  -2.704  1.00  0.00     0.103 A 
HETATM    5  N   UNL     1     -50.977 -54.676  -2.985  1.00  0.00    -0.350 N 
ATOM      6  HN  UNL     1     -50.427 -54.982  -3.788  1.00  0.00     0.166 HD
HETATM    7  C   UNL     1     -50.530 -53.683  -2.171  1.00  0.00     0.119 A 
ENDROOT
BRANCH   1   8
HETATM    8  N   UNL     1     -50.641 -52.230  -0.217  1.00  0.00    -0.308 N 
HETATM    9  C   UNL     1     -50.867 -50.883  -0.353  1.00  0.00     0.321 C 
HETATM   10  O   UNL     1     -51.605 -50.358  -1.180  1.00  0.00    -0.247 OA
HETATM   11  N   UNL     1     -50.193 -50.122   0.573  1.00  0.00    -0.337 N 
HETATM   12  H   UNL     1     -49.403 -50.538   1.048  1.00  0.00     0.164 HD
HETATM   13  H   UNL     1     -50.274 -52.546   0.669  1.00  0.00     0.170 HD
BRANCH  11  14
HETATM   14  C   UNL     1     -50.300 -48.662   0.550  1.00  0.00     0.101 C 
HETATM   15  C   UNL     1     -49.054 -47.967   1.142  1.00  0.00     0.041 C 
HETATM   16  C   UNL     1     -49.434 -46.601   1.708  1.00  0.00     0.142 C 
HETATM   17  S   UNL     1     -51.185 -46.411   1.498  1.00  0.00     0.146 S 
HETATM   18  O   UNL     1     -51.780 -45.956   2.736  1.00  0.00    -0.228 OA
HETATM   19  O   UNL     1     -51.420 -45.734   0.240  1.00  0.00    -0.228 OA
HETATM   20  C   UNL     1     -51.543 -48.128   1.265  1.00  0.00     0.165 C 
ENDBRANCH  11  14
ENDBRANCH   1   8
BRANCH   4  21
HETATM   21  N   UNL     1     -52.659 -56.261  -3.497  1.00  0.00    -0.367 N 
HETATM   22  C   UNL     1     -53.933 -56.884  -3.173  1.00  0.00     0.124 C 
HETATM   23  C   UNL     1     -53.773 -58.392  -3.404  1.00  0.00     0.020 C 
HETATM   24  C   UNL     1     -53.240 -58.705  -4.808  1.00  0.00     0.003 C 
HETATM   25  C   UNL     1     -51.977 -57.901  -5.125  1.00  0.00     0.020 C 
HETATM   26  C   UNL     1     -52.214 -56.413  -4.879  1.00  0.00     0.124 C 
ENDBRANCH   4  21
TORSDOF 3
ENDMDL
MODEL 8
REMARK VINA RESULT:      -5.6      4.573      9.645
REMARK  3 active torsions:
REMARK  status: ('A' for Active; 'I' for Inactive)
REMARK       I    between atoms: C_2  and  N_3 
REMARK       I    between atoms: C_2  and  N_11 
REMARK    1  A    between atoms: N_3  and  C_4 
REMARK    2  A    between atoms: N_11  and  C_12 
REMARK    3  A    between atoms: C_15  and  N_19 
ROOT
HETATM    1  C   UNL     1     -42.767 -47.609  11.759  1.00  0.00     0.051 A 
HETATM    2  C   UNL     1     -43.224 -48.271  12.888  1.00  0.00     0.035 A 
HETATM    3  C   UNL     1     -42.834 -49.580  13.129  1.00  0.00     0.051 A 
HETATM    4  C   UNL     1     -42.005 -50.246  12.232  1.00  0.00     0.103 A 
HETATM    5  N   UNL     1     -41.622 -49.646  11.084  1.00  0.00    -0.350 N 
ATOM      6  HN  UNL     1     -41.063 -50.146  10.393  1.00  0.00     0.166 HD
HETATM    7  C   UNL     1     -42.001 -48.357  10.874  1.00  0.00     0.119 A 
ENDROOT
BRANCH   1   8
HETATM    8  N   UNL     1     -43.039 -46.244  11.506  1.00  0.00    -0.308 N 
HETATM    9  C   UNL     1     -42.372 -45.216  12.127  1.00  0.00     0.321 C 
HETATM   10  O   UNL     1     -41.456 -45.338  12.933  1.00  0.00    -0.247 OA
HETATM   11  N   UNL     1     -42.809 -43.971  11.739  1.00  0.00    -0.337 N 
HETATM   12  H   UNL     1     -43.717 -43.900  11.301  1.00  0.00     0.164 HD
HETATM   13  H   UNL     1     -43.540 -46.019  10.660  1.00  0.00     0.170 HD
BRANCH  11  14
HETATM   14  C   UNL     1     -42.222 -42.766  12.327  1.00  0.00     0.101 C 
HETATM   15  C   UNL     1     -43.291 -41.806  12.898  1.00  0.00     0.041 C 
HETATM   16  C   UNL     1     -42.772 -40.371  12.876  1.00  0.00     0.142 C 
HETATM   17  S   UNL     1     -41.160 -40.403  12.137  1.00  0.00     0.146 S 
HETATM   18  O   UNL     1     -41.065 -39.374  11.123  1.00  0.00    -0.228 OA
HETATM   19  O   UNL     1     -40.179 -40.531  13.193  1.00  0.00    -0.228 OA
HETATM   20  C   UNL     1     -41.330 -41.984  11.361  1.00  0.00     0.165 C 
ENDBRANCH  11  14
ENDBRANCH   1   8
BRANCH   4  21
HETATM   21  N   UNL     1     -41.638 -51.549  12.492  1.00  0.00    -0.367 N 
HETATM   22  C   UNL     1     -42.592 -52.628  12.284  1.00  0.00     0.124 C 
HETATM   23  C   UNL     1     -42.434 -53.605  13.455  1.00  0.00     0.020 C 
HETATM   24  C   UNL     1     -40.980 -54.057  13.634  1.00  0.00     0.003 C 
HETATM   25  C   UNL     1     -40.022 -52.865  13.701  1.00  0.00     0.020 C 
HETATM   26  C   UNL     1     -40.232 -51.942  12.503  1.00  0.00     0.124 C 
ENDBRANCH   4  21
TORSDOF 3
ENDMDL
MODEL 9
REMARK VINA RESULT:      -5.6      2.532      3.028
REMARK  3 active torsions:
REMARK  status: ('A' for Active; 'I' for Inactive)
REMARK       I    between atoms: C_2  and  N_3 
REMARK       I    between atoms: C_2  and  N_11 
REMARK    1  A    between atoms: N_3  and  C_4 
REMARK    2  A    between atoms: N_11  and  C_12 
REMARK    3  A    between atoms: C_15  and  N_19 
ROOT
HETATM    1  C   UNL     1     -39.954 -50.061  12.009  1.00  0.00     0.051 A 
HETATM    2  C   UNL     1     -39.160 -49.023  12.473  1.00  0.00     0.035 A 
HETATM    3  C   UNL     1     -39.450 -47.714  12.113  1.00  0.00     0.051 A 
HETATM    4  C   UNL     1     -40.517 -47.435  11.265  1.00  0.00     0.103 A 
HETATM    5  N   UNL     1     -41.246 -48.442  10.734  1.00  0.00    -0.350 N 
ATOM      6  HN  UNL     1     -41.992 -48.250  10.066  1.00  0.00     0.166 HD
HETATM    7  C   UNL     1     -40.957 -49.715  11.113  1.00  0.00     0.119 A 
ENDROOT
BRANCH   1   8
HETATM    8  N   UNL     1     -39.781 -51.403  12.420  1.00  0.00    -0.308 N 
HETATM    9  C   UNL     1     -40.187 -51.873  13.645  1.00  0.00     0.321 C 
HETATM   10  O   UNL     1     -40.768 -51.223  14.507  1.00  0.00    -0.247 OA
HETATM   11  N   UNL     1     -39.907 -53.206  13.836  1.00  0.00    -0.337 N 
HETATM   12  H   UNL     1     -39.206 -53.635  13.247  1.00  0.00     0.164 HD
HETATM   13  H   UNL     1     -39.603 -52.089  11.702  1.00  0.00     0.170 HD
BRANCH  11  14
HETATM   14  C   UNL     1     -40.248 -53.858  15.101  1.00  0.00     0.101 C 
HETATM   15  C   UNL     1     -39.233 -54.954  15.494  1.00  0.00     0.041 C 
HETATM   16  C   UNL     1     -39.910 -56.009  16.365  1.00  0.00     0.142 C 
HETATM   17  S   UNL     1     -41.618 -55.557  16.510  1.00  0.00     0.146 S 
HETATM   18  O   UNL     1     -42.455 -56.708  16.244  1.00  0.00    -0.228 OA
HETATM   19  O   UNL     1     -41.776 -54.755  17.706  1.00  0.00    -0.228 OA
HETATM   20  C   UNL     1     -41.653 -54.465  15.118  1.00  0.00     0.165 C 
ENDBRANCH  11  14
ENDBRANCH   1   8
BRANCH   4  21
HETATM   21  N   UNL     1     -40.779 -46.128  10.917  1.00  0.00    -0.367 N 
HETATM   22  C   UNL     1     -39.702 -45.275  10.437  1.00  0.00     0.124 C 
HETATM   23  C   UNL     1     -39.898 -43.894  11.074  1.00  0.00     0.020 C 
HETATM   24  C   UNL     1     -41.310 -43.346  10.834  1.00  0.00     0.003 C 
HETATM   25  C   UNL     1     -42.385 -44.360  11.233  1.00  0.00     0.020 C 
HETATM   26  C   UNL     1     -42.129 -45.705  10.557  1.00  0.00     0.124 C 
ENDBRANCH   4  21
TORSDOF 3
ENDMDL
