MODEL 1
REMARK VINA RESULT:      -5.4      0.000      0.000
REMARK  4 active torsions:
REMARK  status: ('A' for Active; 'I' for Inactive)
REMARK    1  A    between atoms: C_2  and  S_3 
REMARK    2  A    between atoms: S_3  and  C_4 
REMARK    3  A    between atoms: C_8  and  N_9 
REMARK       I    between atoms: N_9  and  C_10 
REMARK       I    between atoms: C_10  and  N_12 
REMARK    4  A    between atoms: N_12  and  C_13 
ROOT
HETATM    1  N   UNL     1     -42.578 -48.690  11.397  1.00  0.00    -0.337 N 
HETATM    2  C   UNL     1     -42.824 -49.756  12.242  1.00  0.00     0.322 C 
HETATM    3  O   UNL     1     -43.586 -49.687  13.199  1.00  0.00    -0.247 OA
HETATM    4  N   UNL     1     -42.183 -50.889  11.794  1.00  0.00    -0.294 N 
HETATM    5  H   UNL     1     -41.679 -48.686  10.935  1.00  0.00     0.164 HD
HETATM    6  H   UNL     1     -42.039 -50.953  10.799  1.00  0.00     0.172 HD
ENDROOT
BRANCH   1   7
HETATM    7  C   UNL     1     -43.331 -47.441  11.470  1.00  0.00     0.100 C 
HETATM    8  C   UNL     1     -43.340 -46.633  10.154  1.00  0.00     0.070 C 
HETATM    9  C   UNL     1     -41.984 -45.915  10.148  1.00  0.00     0.017 C 
HETATM   10  C   UNL     1     -41.608 -45.727  11.623  1.00  0.00     0.003 C 
HETATM   11  C   UNL     1     -42.683 -46.446  12.436  1.00  0.00     0.026 C 
BRANCH   8  12
HETATM   12  S   UNL     1     -43.577 -47.523   8.571  1.00  0.00    -0.163 SA
BRANCH  12  13
HETATM   13  C   UNL     1     -45.348 -47.942   8.647  1.00  0.00     0.070 C 
HETATM   14  C   UNL     1     -46.245 -46.794   9.075  1.00  0.00     0.016 C 
ENDBRANCH  12  13
ENDBRANCH   8  12
ENDBRANCH   1   7
BRANCH   4  15
HETATM   15  C   UNL     1     -42.345 -52.123  12.376  1.00  0.00     0.125 C 
HETATM   16  C   UNL     1     -41.387 -52.965  12.988  1.00  0.00     0.069 C 
HETATM   17  C   UNL     1     -42.096 -54.058  13.430  1.00  0.00     0.113 C 
HETATM   18  N   UNL     1     -43.395 -53.805  13.107  1.00  0.00    -0.306 N 
HETATM   19  C   UNL     1     -44.556 -54.549  13.533  1.00  0.00     0.177 C 
HETATM   20  N   UNL     1     -43.558 -52.687  12.372  1.00  0.00    -0.284 N 
ATOM     21  HN  UNL     1     -44.408 -52.351  11.919  1.00  0.00     0.188 HD
ENDBRANCH   4  15
TORSDOF 4
ENDMDL
MODEL 2
REMARK VINA RESULT:      -5.3      3.391      6.508
REMARK  4 active torsions:
REMARK  status: ('A' for Active; 'I' for Inactive)
REMARK    1  A    between atoms: C_2  and  S_3 
REMARK    2  A    between atoms: S_3  and  C_4 
REMARK    3  A    between atoms: C_8  and  N_9 
REMARK       I    between atoms: N_9  and  C_10 
REMARK       I    between atoms: C_10  and  N_12 
REMARK    4  A    between atoms: N_12  and  C_13 
ROOT
HETATM    1  N   UNL     1     -40.666 -49.294  11.358  1.00  0.00    -0.337 N 
HETATM    2  C   UNL     1     -41.920 -48.732  11.213  1.00  0.00     0.322 C 
HETATM    3  O   UNL     1     -42.744 -48.696  12.120  1.00  0.00    -0.247 OA
HETATM    4  N   UNL     1     -42.052 -48.152   9.972  1.00  0.00    -0.294 N 
HETATM    5  H   UNL     1     -40.240 -49.657  10.516  1.00  0.00     0.164 HD
HETATM    6  H   UNL     1     -41.204 -47.805   9.553  1.00  0.00     0.172 HD
ENDROOT
BRANCH   1   7
HETATM    7  C   UNL     1     -40.151 -49.743  12.648  1.00  0.00     0.100 C 
HETATM    8  C   UNL     1     -39.105 -48.795  13.274  1.00  0.00     0.070 C 
HETATM    9  C   UNL     1     -37.804 -49.139  12.539  1.00  0.00     0.017 C 
HETATM   10  C   UNL     1     -37.936 -50.611  12.127  1.00  0.00     0.003 C 
HETATM   11  C   UNL     1     -39.349 -51.041  12.517  1.00  0.00     0.026 C 
BRANCH   8  12
HETATM   12  S   UNL     1     -39.397 -46.988  13.206  1.00  0.00    -0.163 SA
BRANCH  12  13
HETATM   13  C   UNL     1     -38.770 -46.454  14.831  1.00  0.00     0.070 C 
HETATM   14  C   UNL     1     -38.478 -47.590  15.794  1.00  0.00     0.016 C 
ENDBRANCH  12  13
ENDBRANCH   8  12
ENDBRANCH   1   7
BRANCH   4  15
HETATM   15  C   UNL     1     -43.153 -47.419   9.600  1.00  0.00     0.125 C 
HETATM   16  C   UNL     1     -43.225 -46.125   9.032  1.00  0.00     0.069 C 
HETATM   17  C   UNL     1     -44.566 -45.893   8.828  1.00  0.00     0.113 C 
HETATM   18  N   UNL     1     -45.197 -47.032   9.232  1.00  0.00    -0.306 N 
HETATM   19  C   UNL     1     -46.587 -47.370   9.033  1.00  0.00     0.177 C 
HETATM   20  N   UNL     1     -44.372 -47.930   9.803  1.00  0.00    -0.284 N 
ATOM     21  HN  UNL     1     -44.620 -48.798  10.280  1.00  0.00     0.188 HD
ENDBRANCH   4  15
TORSDOF 4
ENDMDL
MODEL 3
REMARK VINA RESULT:      -5.3      2.761      6.926
REMARK  4 active torsions:
REMARK  status: ('A' for Active; 'I' for Inactive)
REMARK    1  A    between atoms: C_2  and  S_3 
REMARK    2  A    between atoms: S_3  and  C_4 
REMARK    3  A    between atoms: C_8  and  N_9 
REMARK       I    between atoms: N_9  and  C_10 
REMARK       I    between atoms: C_10  and  N_12 
REMARK    4  A    between atoms: N_12  and  C_13 
ROOT
HETATM    1  N   UNL     1     -41.422 -51.350  12.445  1.00  0.00    -0.337 N 
HETATM    2  C   UNL     1     -42.053 -50.150  12.175  1.00  0.00     0.322 C 
HETATM    3  O   UNL     1     -42.927 -49.679  12.893  1.00  0.00    -0.247 OA
HETATM    4  N   UNL     1     -41.492 -49.544  11.074  1.00  0.00    -0.294 N 
HETATM    5  H   UNL     1     -41.060 -51.852  11.646  1.00  0.00     0.164 HD
HETATM    6  H   UNL     1     -40.520 -49.744  10.904  1.00  0.00     0.172 HD
ENDROOT
BRANCH   1   7
HETATM    7  C   UNL     1     -41.623 -52.079  13.694  1.00  0.00     0.100 C 
HETATM    8  C   UNL     1     -40.346 -52.225  14.550  1.00  0.00     0.070 C 
HETATM    9  C   UNL     1     -39.590 -53.388  13.894  1.00  0.00     0.017 C 
HETATM   10  C   UNL     1     -40.665 -54.274  13.254  1.00  0.00     0.003 C 
HETATM   11  C   UNL     1     -41.993 -53.542  13.442  1.00  0.00     0.026 C 
BRANCH   8  12
HETATM   12  S   UNL     1     -39.232 -50.783  14.730  1.00  0.00    -0.163 SA
BRANCH  12  13
HETATM   13  C   UNL     1     -37.954 -51.149  13.484  1.00  0.00     0.070 C 
HETATM   14  C   UNL     1     -37.925 -50.181  12.314  1.00  0.00     0.016 C 
ENDBRANCH  12  13
ENDBRANCH   8  12
ENDBRANCH   1   7
BRANCH   4  15
HETATM   15  C   UNL     1     -41.845 -48.285  10.649  1.00  0.00     0.125 C 
HETATM   16  C   UNL     1     -41.155 -47.059  10.791  1.00  0.00     0.069 C 
HETATM   17  C   UNL     1     -41.940 -46.126  10.154  1.00  0.00     0.113 C 
HETATM   18  N   UNL     1     -42.997 -46.822   9.650  1.00  0.00    -0.306 N 
HETATM   19  C   UNL     1     -43.996 -46.337   8.729  1.00  0.00     0.177 C 
HETATM   20  N   UNL     1     -43.018 -48.115  10.028  1.00  0.00    -0.284 N 
ATOM     21  HN  UNL     1     -43.756 -48.803   9.876  1.00  0.00     0.188 HD
ENDBRANCH   4  15
TORSDOF 4
ENDMDL
MODEL 4
REMARK VINA RESULT:      -5.2      2.601      6.968
REMARK  4 active torsions:
REMARK  status: ('A' for Active; 'I' for Inactive)
REMARK    1  A    between atoms: C_2  and  S_3 
REMARK    2  A    between atoms: S_3  and  C_4 
REMARK    3  A    between atoms: C_8  and  N_9 
REMARK       I    between atoms: N_9  and  C_10 
REMARK       I    between atoms: C_10  and  N_12 
REMARK    4  A    between atoms: N_12  and  C_13 
ROOT
HETATM    1  N   UNL     1     -44.005 -50.165  12.509  1.00  0.00    -0.337 N 
HETATM    2  C   UNL     1     -43.373 -48.942  12.635  1.00  0.00     0.322 C 
HETATM    3  O   UNL     1     -42.978 -48.502  13.708  1.00  0.00    -0.247 OA
HETATM    4  N   UNL     1     -43.175 -48.369  11.399  1.00  0.00    -0.294 N 
HETATM    5  H   UNL     1     -44.646 -50.258  11.733  1.00  0.00     0.164 HD
HETATM    6  H   UNL     1     -43.066 -49.006  10.627  1.00  0.00     0.172 HD
ENDROOT
BRANCH   1   7
HETATM    7  C   UNL     1     -44.106 -51.113  13.615  1.00  0.00     0.100 C 
HETATM    8  C   UNL     1     -43.518 -52.507  13.306  1.00  0.00     0.070 C 
HETATM    9  C   UNL     1     -44.618 -53.204  12.495  1.00  0.00     0.017 C 
HETATM   10  C   UNL     1     -45.938 -52.580  12.963  1.00  0.00     0.003 C 
HETATM   11  C   UNL     1     -45.564 -51.459  13.931  1.00  0.00     0.026 C 
BRANCH   8  12
HETATM   12  S   UNL     1     -41.924 -52.616  12.411  1.00  0.00    -0.163 SA
BRANCH  12  13
HETATM   13  C   UNL     1     -41.142 -54.046  13.225  1.00  0.00     0.070 C 
HETATM   14  C   UNL     1     -41.741 -54.403  14.573  1.00  0.00     0.016 C 
ENDBRANCH  12  13
ENDBRANCH   8  12
ENDBRANCH   1   7
BRANCH   4  15
HETATM   15  C   UNL     1     -42.466 -47.206  11.217  1.00  0.00     0.125 C 
HETATM   16  C   UNL     1     -41.174 -47.013  10.674  1.00  0.00     0.069 C 
HETATM   17  C   UNL     1     -40.972 -45.652  10.696  1.00  0.00     0.113 C 
HETATM   18  N   UNL     1     -42.124 -45.121  11.194  1.00  0.00    -0.306 N 
HETATM   19  C   UNL     1     -42.493 -43.725  11.227  1.00  0.00     0.177 C 
HETATM   20  N   UNL     1     -43.004 -46.048  11.618  1.00  0.00    -0.284 N 
ATOM     21  HN  UNL     1     -43.877 -45.902  12.125  1.00  0.00     0.188 HD
ENDBRANCH   4  15
TORSDOF 4
ENDMDL
MODEL 5
REMARK VINA RESULT:      -5.1      2.580      7.347
REMARK  4 active torsions:
REMARK  status: ('A' for Active; 'I' for Inactive)
REMARK    1  A    between atoms: C_2  and  S_3 
REMARK    2  A    between atoms: S_3  and  C_4 
REMARK    3  A    between atoms: C_8  and  N_9 
REMARK       I    between atoms: N_9  and  C_10 
REMARK       I    between atoms: C_10  and  N_12 
REMARK    4  A    between atoms: N_12  and  C_13 
ROOT
HETATM    1  N   UNL     1     -42.557 -51.010  12.465  1.00  0.00    -0.337 N 
HETATM    2  C   UNL     1     -42.632 -49.636  12.332  1.00  0.00     0.322 C 
HETATM    3  O   UNL     1     -43.023 -48.898  13.229  1.00  0.00    -0.247 OA
HETATM    4  N   UNL     1     -42.120 -49.238  11.118  1.00  0.00    -0.294 N 
HETATM    5  H   UNL     1     -42.642 -51.546  11.613  1.00  0.00     0.164 HD
HETATM    6  H   UNL     1     -41.402 -49.825  10.725  1.00  0.00     0.172 HD
ENDROOT
BRANCH   1   7
HETATM    7  C   UNL     1     -42.778 -51.688  13.740  1.00  0.00     0.100 C 
HETATM    8  C   UNL     1     -41.768 -52.817  14.036  1.00  0.00     0.070 C 
HETATM    9  C   UNL     1     -42.288 -54.005  13.217  1.00  0.00     0.017 C 
HETATM   10  C   UNL     1     -43.804 -53.804  13.109  1.00  0.00     0.003 C 
HETATM   11  C   UNL     1     -44.105 -52.451  13.752  1.00  0.00     0.026 C 
BRANCH   8  12
HETATM   12  S   UNL     1     -39.996 -52.538  13.668  1.00  0.00    -0.163 SA
BRANCH  12  13
HETATM   13  C   UNL     1     -39.300 -54.202  13.927  1.00  0.00     0.070 C 
HETATM   14  C   UNL     1     -39.013 -54.541  15.379  1.00  0.00     0.016 C 
ENDBRANCH  12  13
ENDBRANCH   8  12
ENDBRANCH   1   7
BRANCH   4  15
HETATM   15  C   UNL     1     -41.961 -47.919  10.766  1.00  0.00     0.125 C 
HETATM   16  C   UNL     1     -42.940 -46.941  10.469  1.00  0.00     0.069 C 
HETATM   17  C   UNL     1     -42.234 -45.787  10.217  1.00  0.00     0.113 C 
HETATM   18  N   UNL     1     -40.925 -46.113  10.408  1.00  0.00    -0.306 N 
HETATM   19  C   UNL     1     -39.804 -45.204  10.465  1.00  0.00     0.177 C 
HETATM   20  N   UNL     1     -40.725 -47.425  10.637  1.00  0.00    -0.284 N 
ATOM     21  HN  UNL     1     -39.838 -47.926  10.697  1.00  0.00     0.188 HD
ENDBRANCH   4  15
TORSDOF 4
ENDMDL
MODEL 6
REMARK VINA RESULT:      -4.9      3.369      4.731
REMARK  4 active torsions:
REMARK  status: ('A' for Active; 'I' for Inactive)
REMARK    1  A    between atoms: C_2  and  S_3 
REMARK    2  A    between atoms: S_3  and  C_4 
REMARK    3  A    between atoms: C_8  and  N_9 
REMARK       I    between atoms: N_9  and  C_10 
REMARK       I    between atoms: C_10  and  N_12 
REMARK    4  A    between atoms: N_12  and  C_13 
ROOT
HETATM    1  N   UNL     1     -40.161 -51.295  12.603  1.00  0.00    -0.337 N 
HETATM    2  C   UNL     1     -41.339 -51.656  13.230  1.00  0.00     0.322 C 
HETATM    3  O   UNL     1     -41.561 -51.434  14.414  1.00  0.00    -0.247 OA
HETATM    4  N   UNL     1     -42.227 -52.190  12.323  1.00  0.00    -0.294 N 
HETATM    5  H   UNL     1     -39.888 -51.857  11.808  1.00  0.00     0.164 HD
HETATM    6  H   UNL     1     -42.146 -51.858  11.375  1.00  0.00     0.172 HD
ENDROOT
BRANCH   1   7
HETATM    7  C   UNL     1     -39.148 -50.469  13.254  1.00  0.00     0.100 C 
HETATM    8  C   UNL     1     -38.785 -49.186  12.474  1.00  0.00     0.070 C 
HETATM    9  C   UNL     1     -37.815 -49.672  11.390  1.00  0.00     0.017 C 
HETATM   10  C   UNL     1     -37.123 -50.909  11.975  1.00  0.00     0.003 C 
HETATM   11  C   UNL     1     -37.794 -51.181  13.320  1.00  0.00     0.026 C 
BRANCH   8  12
HETATM   12  S   UNL     1     -40.129 -48.205  11.710  1.00  0.00    -0.163 SA
BRANCH  12  13
HETATM   13  C   UNL     1     -40.422 -46.933  12.980  1.00  0.00     0.070 C 
HETATM   14  C   UNL     1     -39.161 -46.395  13.631  1.00  0.00     0.016 C 
ENDBRANCH  12  13
ENDBRANCH   8  12
ENDBRANCH   1   7
BRANCH   4  15
HETATM   15  C   UNL     1     -43.519 -52.528  12.648  1.00  0.00     0.125 C 
HETATM   16  C   UNL     1     -44.127 -53.803  12.717  1.00  0.00     0.069 C 
HETATM   17  C   UNL     1     -45.421 -53.565  13.121  1.00  0.00     0.113 C 
HETATM   18  N   UNL     1     -45.503 -52.217  13.303  1.00  0.00    -0.306 N 
HETATM   19  C   UNL     1     -46.589 -51.489  13.916  1.00  0.00     0.177 C 
HETATM   20  N   UNL     1     -44.395 -51.554  12.919  1.00  0.00    -0.284 N 
ATOM     21  HN  UNL     1     -44.257 -50.546  12.852  1.00  0.00     0.188 HD
ENDBRANCH   4  15
TORSDOF 4
ENDMDL
MODEL 7
REMARK VINA RESULT:      -4.9      4.920      6.537
REMARK  4 active torsions:
REMARK  status: ('A' for Active; 'I' for Inactive)
REMARK    1  A    between atoms: C_2  and  S_3 
REMARK    2  A    between atoms: S_3  and  C_4 
REMARK    3  A    between atoms: C_8  and  N_9 
REMARK       I    between atoms: N_9  and  C_10 
REMARK       I    between atoms: C_10  and  N_12 
REMARK    4  A    between atoms: N_12  and  C_13 
ROOT
HETATM    1  N   UNL     1     -44.487 -53.569  15.556  1.00  0.00    -0.337 N 
HETATM    2  C   UNL     1     -43.554 -54.588  15.592  1.00  0.00     0.322 C 
HETATM    3  O   UNL     1     -43.737 -55.680  15.066  1.00  0.00    -0.247 OA
HETATM    4  N   UNL     1     -42.394 -54.163  16.198  1.00  0.00    -0.294 N 
HETATM    5  H   UNL     1     -44.458 -52.911  16.323  1.00  0.00     0.164 HD
HETATM    6  H   UNL     1     -42.184 -53.181  16.115  1.00  0.00     0.172 HD
ENDROOT
BRANCH   1   7
HETATM    7  C   UNL     1     -45.701 -53.644  14.747  1.00  0.00     0.100 C 
HETATM    8  C   UNL     1     -45.571 -52.992  13.354  1.00  0.00     0.070 C 
HETATM    9  C   UNL     1     -45.744 -51.492  13.628  1.00  0.00     0.017 C 
HETATM   10  C   UNL     1     -46.631 -51.398  14.875  1.00  0.00     0.003 C 
HETATM   11  C   UNL     1     -46.841 -52.830  15.362  1.00  0.00     0.026 C 
BRANCH   8  12
HETATM   12  S   UNL     1     -44.043 -53.273  12.385  1.00  0.00    -0.163 SA
BRANCH  12  13
HETATM   13  C   UNL     1     -43.025 -51.846  12.881  1.00  0.00     0.070 C 
HETATM   14  C   UNL     1     -41.664 -51.784  12.212  1.00  0.00     0.016 C 
ENDBRANCH  12  13
ENDBRANCH   8  12
ENDBRANCH   1   7
BRANCH   4  15
HETATM   15  C   UNL     1     -41.257 -54.932  16.267  1.00  0.00     0.125 C 
HETATM   16  C   UNL     1     -39.946 -54.646  15.819  1.00  0.00     0.069 C 
HETATM   17  C   UNL     1     -39.196 -55.745  16.170  1.00  0.00     0.113 C 
HETATM   18  N   UNL     1     -40.056 -56.581  16.818  1.00  0.00    -0.306 N 
HETATM   19  C   UNL     1     -39.715 -57.773  17.557  1.00  0.00     0.177 C 
HETATM   20  N   UNL     1     -41.335 -56.159  16.795  1.00  0.00    -0.284 N 
ATOM     21  HN  UNL     1     -42.168 -56.658  17.109  1.00  0.00     0.188 HD
ENDBRANCH   4  15
TORSDOF 4
ENDMDL
MODEL 8
REMARK VINA RESULT:      -4.8      2.634      7.055
REMARK  4 active torsions:
REMARK  status: ('A' for Active; 'I' for Inactive)
REMARK    1  A    between atoms: C_2  and  S_3 
REMARK    2  A    between atoms: S_3  and  C_4 
REMARK    3  A    between atoms: C_8  and  N_9 
REMARK       I    between atoms: N_9  and  C_10 
REMARK       I    between atoms: C_10  and  N_12 
REMARK    4  A    between atoms: N_12  and  C_13 
ROOT
HETATM    1  N   UNL     1     -41.930 -51.670  13.038  1.00  0.00    -0.337 N 
HETATM    2  C   UNL     1     -41.494 -50.651  12.212  1.00  0.00     0.322 C 
HETATM    3  O   UNL     1     -40.652 -50.815  11.337  1.00  0.00    -0.247 OA
HETATM    4  N   UNL     1     -42.204 -49.496  12.451  1.00  0.00    -0.294 N 
HETATM    5  H   UNL     1     -42.267 -51.392  13.949  1.00  0.00     0.164 HD
HETATM    6  H   UNL     1     -43.147 -49.615  12.784  1.00  0.00     0.172 HD
ENDROOT
BRANCH   1   7
HETATM    7  C   UNL     1     -41.550 -53.065  12.831  1.00  0.00     0.100 C 
HETATM    8  C   UNL     1     -42.634 -54.082  13.248  1.00  0.00     0.070 C 
HETATM    9  C   UNL     1     -42.487 -54.179  14.772  1.00  0.00     0.017 C 
HETATM   10  C   UNL     1     -41.016 -53.865  15.068  1.00  0.00     0.003 C 
HETATM   11  C   UNL     1     -40.383 -53.473  13.734  1.00  0.00     0.026 C 
BRANCH   8  12
HETATM   12  S   UNL     1     -44.381 -53.741  12.814  1.00  0.00    -0.163 SA
BRANCH  12  13
HETATM   13  C   UNL     1     -45.255 -55.012  13.783  1.00  0.00     0.070 C 
HETATM   14  C   UNL     1     -46.318 -54.465  14.719  1.00  0.00     0.016 C 
ENDBRANCH  12  13
ENDBRANCH   8  12
ENDBRANCH   1   7
BRANCH   4  15
HETATM   15  C   UNL     1     -42.060 -48.357  11.694  1.00  0.00     0.125 C 
HETATM   16  C   UNL     1     -43.042 -47.592  11.022  1.00  0.00     0.069 C 
HETATM   17  C   UNL     1     -42.356 -46.544  10.453  1.00  0.00     0.113 C 
HETATM   18  N   UNL     1     -41.058 -46.709  10.833  1.00  0.00    -0.306 N 
HETATM   19  C   UNL     1     -39.978 -45.766  10.664  1.00  0.00     0.177 C 
HETATM   20  N   UNL     1     -40.834 -47.860  11.497  1.00  0.00    -0.284 N 
ATOM     21  HN  UNL     1     -39.940 -48.258  11.782  1.00  0.00     0.188 HD
ENDBRANCH   4  15
TORSDOF 4
ENDMDL
MODEL 9
REMARK VINA RESULT:      -4.8      3.314      6.568
REMARK  4 active torsions:
REMARK  status: ('A' for Active; 'I' for Inactive)
REMARK    1  A    between atoms: C_2  and  S_3 
REMARK    2  A    between atoms: S_3  and  C_4 
REMARK    3  A    between atoms: C_8  and  N_9 
REMARK       I    between atoms: N_9  and  C_10 
REMARK       I    between atoms: C_10  and  N_12 
REMARK    4  A    between atoms: N_12  and  C_13 
ROOT
HETATM    1  N   UNL     1     -44.584 -51.072  14.063  1.00  0.00    -0.337 N 
HETATM    2  C   UNL     1     -43.384 -50.422  13.842  1.00  0.00     0.322 C 
HETATM    3  O   UNL     1     -42.534 -50.275  14.711  1.00  0.00    -0.247 OA
HETATM    4  N   UNL     1     -43.260 -50.072  12.516  1.00  0.00    -0.294 N 
HETATM    5  H   UNL     1     -45.358 -50.792  13.478  1.00  0.00     0.164 HD
HETATM    6  H   UNL     1     -43.734 -50.665  11.854  1.00  0.00     0.172 HD
ENDROOT
BRANCH   1   7
HETATM    7  C   UNL     1     -44.871 -51.787  15.304  1.00  0.00     0.100 C 
HETATM    8  C   UNL     1     -45.532 -53.167  15.098  1.00  0.00     0.070 C 
HETATM    9  C   UNL     1     -47.009 -52.839  14.845  1.00  0.00     0.017 C 
HETATM   10  C   UNL     1     -47.275 -51.524  15.589  1.00  0.00     0.003 C 
HETATM   11  C   UNL     1     -45.927 -51.063  16.142  1.00  0.00     0.026 C 
BRANCH   8  12
HETATM   12  S   UNL     1     -44.903 -54.259  13.769  1.00  0.00    -0.163 SA
BRANCH  12  13
HETATM   13  C   UNL     1     -43.162 -54.470  14.260  1.00  0.00     0.070 C 
HETATM   14  C   UNL     1     -42.158 -53.927  13.258  1.00  0.00     0.016 C 
ENDBRANCH  12  13
ENDBRANCH   8  12
ENDBRANCH   1   7
BRANCH   4  15
HETATM   15  C   UNL     1     -42.118 -49.516  11.991  1.00  0.00     0.125 C 
HETATM   16  C   UNL     1     -41.927 -48.254  11.381  1.00  0.00     0.069 C 
HETATM   17  C   UNL     1     -40.588 -48.201  11.071  1.00  0.00     0.113 C 
HETATM   18  N   UNL     1     -40.061 -49.371  11.529  1.00  0.00    -0.306 N 
HETATM   19  C   UNL     1     -38.662 -49.714  11.627  1.00  0.00     0.177 C 
HETATM   20  N   UNL     1     -40.988 -50.232  11.994  1.00  0.00    -0.284 N 
ATOM     21  HN  UNL     1     -40.857 -51.202  12.281  1.00  0.00     0.188 HD
ENDBRANCH   4  15
TORSDOF 4
ENDMDL
