MODEL 1
REMARK VINA RESULT:      -6.0      0.000      0.000
REMARK  3 active torsions:
REMARK  status: ('A' for Active; 'I' for Inactive)
REMARK    1  A    between atoms: O_2  and  C_3 
REMARK    2  A    between atoms: C_9  and  N_10 
REMARK       I    between atoms: N_10  and  C_11 
REMARK       I    between atoms: C_11  and  N_13 
REMARK    3  A    between atoms: N_13  and  C_14 
ROOT
HETATM    1  N   UNL     1     -42.307 -48.035   9.415  1.00  0.00    -0.305 N 
HETATM    2  C   UNL     1     -41.750 -48.323  10.648  1.00  0.00     0.321 C 
HETATM    3  O   UNL     1     -42.166 -47.924  11.729  1.00  0.00    -0.247 OA
HETATM    4  N   UNL     1     -40.677 -49.182  10.567  1.00  0.00    -0.338 N 
HETATM    5  H   UNL     1     -41.737 -48.150   8.590  1.00  0.00     0.171 HD
HETATM    6  H   UNL     1     -40.198 -49.276   9.685  1.00  0.00     0.164 HD
ENDROOT
BRANCH   1   7
HETATM    7  C   UNL     1     -43.535 -47.350   9.217  1.00  0.00     0.087 A 
HETATM    8  C   UNL     1     -43.610 -45.953   9.286  1.00  0.00     0.169 A 
HETATM    9  N   UNL     1     -44.763 -45.246   9.165  1.00  0.00    -0.345 N 
HETATM   10  C   UNL     1     -45.890 -45.944   8.919  1.00  0.00     0.090 A 
ATOM     11  HN  UNL     1     -44.776 -44.230   9.256  1.00  0.00     0.167 HD
HETATM   12  C   UNL     1     -45.913 -47.314   8.754  1.00  0.00     0.019 A 
HETATM   13  C   UNL     1     -44.721 -48.018   8.899  1.00  0.00     0.035 A 
BRANCH   8  14
HETATM   14  O   UNL     1     -42.439 -45.244   9.508  1.00  0.00    -0.339 OA
HETATM   15  C   UNL     1     -42.452 -44.602  10.789  1.00  0.00     0.211 C 
ENDBRANCH   8  14
ENDBRANCH   1   7
BRANCH   4  16
HETATM   16  C   UNL     1     -39.999 -49.612  11.780  1.00  0.00     0.086 C 
HETATM   17  C   UNL     1     -38.471 -49.532  11.691  1.00  0.00     0.025 C 
HETATM   18  C   UNL     1     -37.933 -50.729  12.481  1.00  0.00     0.002 C 
HETATM   19  C   UNL     1     -39.149 -51.417  13.089  1.00  0.00     0.002 C 
HETATM   20  C   UNL     1     -40.285 -51.066  12.142  1.00  0.00     0.025 C 
ENDBRANCH   4  16
TORSDOF 3
ENDMDL
MODEL 2
REMARK VINA RESULT:      -5.8      1.642      7.048
REMARK  3 active torsions:
REMARK  status: ('A' for Active; 'I' for Inactive)
REMARK    1  A    between atoms: O_2  and  C_3 
REMARK    2  A    between atoms: C_9  and  N_10 
REMARK       I    between atoms: N_10  and  C_11 
REMARK       I    between atoms: C_11  and  N_13 
REMARK    3  A    between atoms: N_13  and  C_14 
ROOT
HETATM    1  N   UNL     1     -40.623 -49.553  10.619  1.00  0.00    -0.305 N 
HETATM    2  C   UNL     1     -41.615 -48.632  10.901  1.00  0.00     0.321 C 
HETATM    3  O   UNL     1     -41.875 -48.183  12.011  1.00  0.00    -0.247 OA
HETATM    4  N   UNL     1     -42.281 -48.195   9.779  1.00  0.00    -0.338 N 
HETATM    5  H   UNL     1     -40.683 -50.078   9.758  1.00  0.00     0.171 HD
HETATM    6  H   UNL     1     -42.242 -48.757   8.943  1.00  0.00     0.164 HD
ENDROOT
BRANCH   1   7
HETATM    7  C   UNL     1     -39.651 -50.015  11.546  1.00  0.00     0.087 A 
HETATM    8  C   UNL     1     -39.856 -51.180  12.297  1.00  0.00     0.169 A 
HETATM    9  N   UNL     1     -38.994 -51.638  13.241  1.00  0.00    -0.345 N 
HETATM   10  C   UNL     1     -37.854 -50.941  13.422  1.00  0.00     0.090 A 
ATOM     11  HN  UNL     1     -39.200 -52.473  13.788  1.00  0.00     0.167 HD
HETATM   12  C   UNL     1     -37.519 -49.827  12.681  1.00  0.00     0.019 A 
HETATM   13  C   UNL     1     -38.427 -49.368  11.731  1.00  0.00     0.035 A 
BRANCH   8  14
HETATM   14  O   UNL     1     -41.018 -51.905  12.079  1.00  0.00    -0.339 OA
HETATM   15  C   UNL     1     -40.912 -53.232  12.606  1.00  0.00     0.211 C 
ENDBRANCH   8  14
ENDBRANCH   1   7
BRANCH   4  16
HETATM   16  C   UNL     1     -43.332 -47.197   9.901  1.00  0.00     0.086 C 
HETATM   17  C   UNL     1     -44.746 -47.791   9.902  1.00  0.00     0.025 C 
HETATM   18  C   UNL     1     -45.630 -46.790   9.153  1.00  0.00     0.002 C 
HETATM   19  C   UNL     1     -44.738 -45.600   8.822  1.00  0.00     0.002 C 
HETATM   20  C   UNL     1     -43.340 -46.192   8.753  1.00  0.00     0.025 C 
ENDBRANCH   4  16
TORSDOF 3
ENDMDL
MODEL 3
REMARK VINA RESULT:      -5.7      2.790      4.248
REMARK  3 active torsions:
REMARK  status: ('A' for Active; 'I' for Inactive)
REMARK    1  A    between atoms: O_2  and  C_3 
REMARK    2  A    between atoms: C_9  and  N_10 
REMARK       I    between atoms: N_10  and  C_11 
REMARK       I    between atoms: C_11  and  N_13 
REMARK    3  A    between atoms: N_13  and  C_14 
ROOT
HETATM    1  N   UNL     1     -41.480 -49.565  10.989  1.00  0.00    -0.305 N 
HETATM    2  C   UNL     1     -41.994 -50.175  12.120  1.00  0.00     0.321 C 
HETATM    3  O   UNL     1     -42.208 -49.623  13.192  1.00  0.00    -0.247 OA
HETATM    4  N   UNL     1     -42.319 -51.498  11.918  1.00  0.00    -0.338 N 
HETATM    5  H   UNL     1     -41.065 -50.146  10.275  1.00  0.00     0.171 HD
HETATM    6  H   UNL     1     -41.897 -51.987  11.144  1.00  0.00     0.164 HD
ENDROOT
BRANCH   1   7
HETATM    7  C   UNL     1     -41.253 -48.171  10.848  1.00  0.00     0.087 A 
HETATM    8  C   UNL     1     -42.151 -47.353  10.148  1.00  0.00     0.169 A 
HETATM    9  N   UNL     1     -41.959 -46.027   9.928  1.00  0.00    -0.345 N 
HETATM   10  C   UNL     1     -40.854 -45.469  10.460  1.00  0.00     0.090 A 
ATOM     11  HN  UNL     1     -42.624 -45.478   9.383  1.00  0.00     0.167 HD
HETATM   12  C   UNL     1     -39.948 -46.166  11.232  1.00  0.00     0.019 A 
HETATM   13  C   UNL     1     -40.157 -47.528  11.430  1.00  0.00     0.035 A 
BRANCH   8  14
HETATM   14  O   UNL     1     -43.300 -47.934   9.632  1.00  0.00    -0.339 OA
HETATM   15  C   UNL     1     -43.499 -47.570   8.261  1.00  0.00     0.211 C 
ENDBRANCH   8  14
ENDBRANCH   1   7
BRANCH   4  16
HETATM   16  C   UNL     1     -42.905 -52.274  13.000  1.00  0.00     0.086 C 
HETATM   17  C   UNL     1     -41.890 -53.143  13.752  1.00  0.00     0.025 C 
HETATM   18  C   UNL     1     -42.627 -54.434  14.125  1.00  0.00     0.002 C 
HETATM   19  C   UNL     1     -44.069 -54.244  13.673  1.00  0.00     0.002 C 
HETATM   20  C   UNL     1     -43.971 -53.255  12.523  1.00  0.00     0.025 C 
ENDBRANCH   4  16
TORSDOF 3
ENDMDL
MODEL 4
REMARK VINA RESULT:      -5.5      4.375      6.727
REMARK  3 active torsions:
REMARK  status: ('A' for Active; 'I' for Inactive)
REMARK    1  A    between atoms: O_2  and  C_3 
REMARK    2  A    between atoms: C_9  and  N_10 
REMARK       I    between atoms: N_10  and  C_11 
REMARK       I    between atoms: C_11  and  N_13 
REMARK    3  A    between atoms: N_13  and  C_14 
ROOT
HETATM    1  N   UNL     1     -43.047 -52.331  12.157  1.00  0.00    -0.305 N 
HETATM    2  C   UNL     1     -42.727 -51.047  12.562  1.00  0.00     0.321 C 
HETATM    3  O   UNL     1     -43.085 -50.521  13.609  1.00  0.00    -0.247 OA
HETATM    4  N   UNL     1     -41.887 -50.399  11.686  1.00  0.00    -0.338 N 
HETATM    5  H   UNL     1     -42.968 -52.561  11.178  1.00  0.00     0.171 HD
HETATM    6  H   UNL     1     -41.828 -50.732  10.736  1.00  0.00     0.164 HD
ENDROOT
BRANCH   1   7
HETATM    7  C   UNL     1     -43.721 -53.293  12.956  1.00  0.00     0.087 A 
HETATM    8  C   UNL     1     -45.106 -53.481  12.858  1.00  0.00     0.169 A 
HETATM    9  N   UNL     1     -45.814 -54.340  13.634  1.00  0.00    -0.345 N 
HETATM   10  C   UNL     1     -45.120 -55.083  14.520  1.00  0.00     0.090 A 
ATOM     11  HN  UNL     1     -46.828 -54.420  13.551  1.00  0.00     0.167 HD
HETATM   12  C   UNL     1     -43.747 -55.033  14.641  1.00  0.00     0.019 A 
HETATM   13  C   UNL     1     -43.045 -54.132  13.845  1.00  0.00     0.035 A 
BRANCH   8  14
HETATM   14  O   UNL     1     -45.804 -52.733  11.921  1.00  0.00    -0.339 OA
HETATM   15  C   UNL     1     -46.548 -51.679  12.543  1.00  0.00     0.211 C 
ENDBRANCH   8  14
ENDBRANCH   1   7
BRANCH   4  16
HETATM   16  C   UNL     1     -41.427 -49.052  11.984  1.00  0.00     0.086 C 
HETATM   17  C   UNL     1     -42.062 -47.975  11.096  1.00  0.00     0.025 C 
HETATM   18  C   UNL     1     -40.972 -46.929  10.846  1.00  0.00     0.002 C 
HETATM   19  C   UNL     1     -39.767 -47.367  11.669  1.00  0.00     0.002 C 
HETATM   20  C   UNL     1     -39.925 -48.875  11.785  1.00  0.00     0.025 C 
ENDBRANCH   4  16
TORSDOF 3
ENDMDL
MODEL 5
REMARK VINA RESULT:      -5.5      3.443      5.430
REMARK  3 active torsions:
REMARK  status: ('A' for Active; 'I' for Inactive)
REMARK    1  A    between atoms: O_2  and  C_3 
REMARK    2  A    between atoms: C_9  and  N_10 
REMARK       I    between atoms: N_10  and  C_11 
REMARK       I    between atoms: C_11  and  N_13 
REMARK    3  A    between atoms: N_13  and  C_14 
ROOT
HETATM    1  N   UNL     1     -41.544 -50.666  11.435  1.00  0.00    -0.305 N 
HETATM    2  C   UNL     1     -42.258 -51.148  12.517  1.00  0.00     0.321 C 
HETATM    3  O   UNL     1     -42.498 -50.528  13.546  1.00  0.00    -0.247 OA
HETATM    4  N   UNL     1     -42.751 -52.417  12.315  1.00  0.00    -0.338 N 
HETATM    5  H   UNL     1     -41.147 -51.329  10.785  1.00  0.00     0.171 HD
HETATM    6  H   UNL     1     -42.328 -52.993  11.604  1.00  0.00     0.164 HD
ENDROOT
BRANCH   1   7
HETATM    7  C   UNL     1     -41.100 -49.325  11.283  1.00  0.00     0.087 A 
HETATM    8  C   UNL     1     -39.787 -48.952  11.598  1.00  0.00     0.169 A 
HETATM    9  N   UNL     1     -39.322 -47.678  11.532  1.00  0.00    -0.345 N 
HETATM   10  C   UNL     1     -40.177 -46.733  11.092  1.00  0.00     0.090 A 
ATOM     11  HN  UNL     1     -38.366 -47.446  11.804  1.00  0.00     0.167 HD
HETATM   12  C   UNL     1     -41.465 -47.007  10.682  1.00  0.00     0.019 A 
HETATM   13  C   UNL     1     -41.924 -48.318  10.775  1.00  0.00     0.035 A 
BRANCH   8  14
HETATM   14  O   UNL     1     -38.908 -49.938  12.020  1.00  0.00    -0.339 OA
HETATM   15  C   UNL     1     -37.624 -49.793  11.402  1.00  0.00     0.211 C 
ENDBRANCH   8  14
ENDBRANCH   1   7
BRANCH   4  16
HETATM   16  C   UNL     1     -43.554 -53.056  13.346  1.00  0.00     0.086 C 
HETATM   17  C   UNL     1     -42.734 -53.893  14.333  1.00  0.00     0.025 C 
HETATM   18  C   UNL     1     -43.601 -55.105  14.689  1.00  0.00     0.002 C 
HETATM   19  C   UNL     1     -44.934 -54.895  13.983  1.00  0.00     0.002 C 
HETATM   20  C   UNL     1     -44.586 -54.029  12.783  1.00  0.00     0.025 C 
ENDBRANCH   4  16
TORSDOF 3
ENDMDL
MODEL 6
REMARK VINA RESULT:      -5.3      2.964      4.369
REMARK  3 active torsions:
REMARK  status: ('A' for Active; 'I' for Inactive)
REMARK    1  A    between atoms: O_2  and  C_3 
REMARK    2  A    between atoms: C_9  and  N_10 
REMARK       I    between atoms: N_10  and  C_11 
REMARK       I    between atoms: C_11  and  N_13 
REMARK    3  A    between atoms: N_13  and  C_14 
ROOT
HETATM    1  N   UNL     1     -41.553 -49.683  11.119  1.00  0.00    -0.305 N 
HETATM    2  C   UNL     1     -42.243 -50.270  12.165  1.00  0.00     0.321 C 
HETATM    3  O   UNL     1     -42.784 -49.671  13.087  1.00  0.00    -0.247 OA
HETATM    4  N   UNL     1     -42.330 -51.639  12.052  1.00  0.00    -0.338 N 
HETATM    5  H   UNL     1     -40.903 -50.249  10.593  1.00  0.00     0.171 HD
HETATM    6  H   UNL     1     -41.671 -52.119  11.459  1.00  0.00     0.164 HD
ENDROOT
BRANCH   1   7
HETATM    7  C   UNL     1     -41.486 -48.287  10.869  1.00  0.00     0.087 A 
HETATM    8  C   UNL     1     -40.396 -47.520  11.303  1.00  0.00     0.169 A 
HETATM    9  N   UNL     1     -40.303 -46.175  11.147  1.00  0.00    -0.345 N 
HETATM   10  C   UNL     1     -41.310 -45.560  10.494  1.00  0.00     0.090 A 
ATOM     11  HN  UNL     1     -39.506 -45.652  11.509  1.00  0.00     0.167 HD
HETATM   12  C   UNL     1     -42.389 -46.231   9.958  1.00  0.00     0.019 A 
HETATM   13  C   UNL     1     -42.470 -47.608  10.145  1.00  0.00     0.035 A 
BRANCH   8  14
HETATM   14  O   UNL     1     -39.353 -48.169  11.946  1.00  0.00    -0.339 OA
HETATM   15  C   UNL     1     -39.245 -47.757  13.313  1.00  0.00     0.211 C 
ENDBRANCH   8  14
ENDBRANCH   1   7
BRANCH   4  16
HETATM   16  C   UNL     1     -43.055 -52.405  13.054  1.00  0.00     0.086 C 
HETATM   17  C   UNL     1     -42.157 -53.320  13.896  1.00  0.00     0.025 C 
HETATM   18  C   UNL     1     -42.975 -54.586  14.171  1.00  0.00     0.002 C 
HETATM   19  C   UNL     1     -44.353 -54.338  13.572  1.00  0.00     0.002 C 
HETATM   20  C   UNL     1     -44.099 -53.340  12.454  1.00  0.00     0.025 C 
ENDBRANCH   4  16
TORSDOF 3
ENDMDL
MODEL 7
REMARK VINA RESULT:      -5.3      4.756      6.256
REMARK  3 active torsions:
REMARK  status: ('A' for Active; 'I' for Inactive)
REMARK    1  A    between atoms: O_2  and  C_3 
REMARK    2  A    between atoms: C_9  and  N_10 
REMARK       I    between atoms: N_10  and  C_11 
REMARK       I    between atoms: C_11  and  N_13 
REMARK    3  A    between atoms: N_13  and  C_14 
ROOT
HETATM    1  N   UNL     1     -43.285 -51.799  12.468  1.00  0.00    -0.305 N 
HETATM    2  C   UNL     1     -42.198 -51.144  13.018  1.00  0.00     0.321 C 
HETATM    3  O   UNL     1     -42.148 -50.671  14.147  1.00  0.00    -0.247 OA
HETATM    4  N   UNL     1     -41.105 -51.117  12.182  1.00  0.00    -0.338 N 
HETATM    5  H   UNL     1     -43.341 -51.879  11.463  1.00  0.00     0.171 HD
HETATM    6  H   UNL     1     -41.248 -51.262  11.194  1.00  0.00     0.164 HD
ENDROOT
BRANCH   1   7
HETATM    7  C   UNL     1     -44.465 -52.155  13.174  1.00  0.00     0.087 A 
HETATM    8  C   UNL     1     -44.657 -53.454  13.664  1.00  0.00     0.169 A 
HETATM    9  N   UNL     1     -45.787 -53.870  14.292  1.00  0.00    -0.345 N 
HETATM   10  C   UNL     1     -46.755 -52.952  14.488  1.00  0.00     0.090 A 
ATOM     11  HN  UNL     1     -45.897 -54.835  14.603  1.00  0.00     0.167 HD
HETATM   12  C   UNL     1     -46.633 -51.629  14.117  1.00  0.00     0.019 A 
HETATM   13  C   UNL     1     -45.473 -51.231  13.460  1.00  0.00     0.035 A 
BRANCH   8  14
HETATM   14  O   UNL     1     -43.641 -54.380  13.484  1.00  0.00    -0.339 OA
HETATM   15  C   UNL     1     -43.035 -54.740  14.730  1.00  0.00     0.211 C 
ENDBRANCH   8  14
ENDBRANCH   1   7
BRANCH   4  16
HETATM   16  C   UNL     1     -39.867 -50.495  12.625  1.00  0.00     0.086 C 
HETATM   17  C   UNL     1     -39.118 -49.755  11.511  1.00  0.00     0.025 C 
HETATM   18  C   UNL     1     -37.626 -49.966  11.785  1.00  0.00     0.002 C 
HETATM   19  C   UNL     1     -37.541 -50.734  13.098  1.00  0.00     0.002 C 
HETATM   20  C   UNL     1     -38.854 -51.498  13.167  1.00  0.00     0.025 C 
ENDBRANCH   4  16
TORSDOF 3
ENDMDL
MODEL 8
REMARK VINA RESULT:      -5.3      4.017      6.458
REMARK  3 active torsions:
REMARK  status: ('A' for Active; 'I' for Inactive)
REMARK    1  A    between atoms: O_2  and  C_3 
REMARK    2  A    between atoms: C_9  and  N_10 
REMARK       I    between atoms: N_10  and  C_11 
REMARK       I    between atoms: C_11  and  N_13 
REMARK    3  A    between atoms: N_13  and  C_14 
ROOT
HETATM    1  N   UNL     1     -42.012 -51.218  11.938  1.00  0.00    -0.305 N 
HETATM    2  C   UNL     1     -42.684 -51.542  13.102  1.00  0.00     0.321 C 
HETATM    3  O   UNL     1     -42.214 -51.498  14.233  1.00  0.00    -0.247 OA
HETATM    4  N   UNL     1     -44.002 -51.877  12.888  1.00  0.00    -0.338 N 
HETATM    5  H   UNL     1     -42.370 -51.567  11.061  1.00  0.00     0.171 HD
HETATM    6  H   UNL     1     -44.284 -52.164  11.963  1.00  0.00     0.164 HD
ENDROOT
BRANCH   1   7
HETATM    7  C   UNL     1     -40.714 -50.643  11.880  1.00  0.00     0.087 A 
HETATM    8  C   UNL     1     -40.489 -49.414  11.245  1.00  0.00     0.169 A 
HETATM    9  N   UNL     1     -39.266 -48.843  11.104  1.00  0.00    -0.345 N 
HETATM   10  C   UNL     1     -38.219 -49.490  11.654  1.00  0.00     0.090 A 
ATOM     11  HN  UNL     1     -39.144 -47.962  10.604  1.00  0.00     0.167 HD
HETATM   12  C   UNL     1     -38.341 -50.664  12.368  1.00  0.00     0.019 A 
HETATM   13  C   UNL     1     -39.604 -51.238  12.484  1.00  0.00     0.035 A 
BRANCH   8  14
HETATM   14  O   UNL     1     -41.579 -48.743  10.711  1.00  0.00    -0.339 OA
HETATM   15  C   UNL     1     -41.493 -47.333  10.950  1.00  0.00     0.211 C 
ENDBRANCH   8  14
ENDBRANCH   1   7
BRANCH   4  16
HETATM   16  C   UNL     1     -44.858 -52.211  14.015  1.00  0.00     0.086 C 
HETATM   17  C   UNL     1     -45.456 -53.621  13.936  1.00  0.00     0.025 C 
HETATM   18  C   UNL     1     -46.868 -53.520  14.524  1.00  0.00     0.002 C 
HETATM   19  C   UNL     1     -47.019 -52.088  15.019  1.00  0.00     0.002 C 
HETATM   20  C   UNL     1     -46.066 -51.290  14.143  1.00  0.00     0.025 C 
ENDBRANCH   4  16
TORSDOF 3
ENDMDL
MODEL 9
REMARK VINA RESULT:      -5.1      2.868      6.979
REMARK  3 active torsions:
REMARK  status: ('A' for Active; 'I' for Inactive)
REMARK    1  A    between atoms: O_2  and  C_3 
REMARK    2  A    between atoms: C_9  and  N_10 
REMARK       I    between atoms: N_10  and  C_11 
REMARK       I    between atoms: C_11  and  N_13 
REMARK    3  A    between atoms: N_13  and  C_14 
ROOT
HETATM    1  N   UNL     1     -41.885 -51.414  11.857  1.00  0.00    -0.305 N 
HETATM    2  C   UNL     1     -42.059 -50.083  12.190  1.00  0.00     0.321 C 
HETATM    3  O   UNL     1     -42.128 -49.637  13.329  1.00  0.00    -0.247 OA
HETATM    4  N   UNL     1     -42.091 -49.252  11.093  1.00  0.00    -0.338 N 
HETATM    5  H   UNL     1     -42.140 -51.716  10.928  1.00  0.00     0.171 HD
HETATM    6  H   UNL     1     -42.301 -49.650  10.191  1.00  0.00     0.164 HD
ENDROOT
BRANCH   1   7
HETATM    7  C   UNL     1     -41.612 -52.457  12.782  1.00  0.00     0.087 A 
HETATM    8  C   UNL     1     -40.305 -52.732  13.206  1.00  0.00     0.169 A 
HETATM    9  N   UNL     1     -39.975 -53.752  14.040  1.00  0.00    -0.345 N 
HETATM   10  C   UNL     1     -40.984 -54.509  14.515  1.00  0.00     0.090 A 
ATOM     11  HN  UNL     1     -39.005 -53.936  14.295  1.00  0.00     0.167 HD
HETATM   12  C   UNL     1     -42.312 -54.273  14.224  1.00  0.00     0.019 A 
HETATM   13  C   UNL     1     -42.624 -53.233  13.354  1.00  0.00     0.035 A 
BRANCH   8  14
HETATM   14  O   UNL     1     -39.280 -51.927  12.734  1.00  0.00    -0.339 OA
HETATM   15  C   UNL     1     -38.587 -51.280  13.809  1.00  0.00     0.211 C 
ENDBRANCH   8  14
ENDBRANCH   1   7
BRANCH   4  16
HETATM   16  C   UNL     1     -42.234 -47.816  11.275  1.00  0.00     0.086 C 
HETATM   17  C   UNL     1     -43.383 -47.206  10.465  1.00  0.00     0.025 C 
HETATM   18  C   UNL     1     -42.903 -45.822  10.016  1.00  0.00     0.002 C 
HETATM   19  C   UNL     1     -41.535 -45.621  10.654  1.00  0.00     0.002 C 
HETATM   20  C   UNL     1     -41.000 -47.032  10.839  1.00  0.00     0.025 C 
ENDBRANCH   4  16
TORSDOF 3
ENDMDL
