MODEL 1
REMARK VINA RESULT:      -5.9      0.000      0.000
REMARK  4 active torsions:
REMARK  status: ('A' for Active; 'I' for Inactive)
REMARK    1  A    between atoms: C_2  and  C_3 
REMARK    2  A    between atoms: C_3  and  N_7 
REMARK       I    between atoms: N_7  and  C_8 
REMARK       I    between atoms: C_8  and  N_10 
REMARK    3  A    between atoms: N_10  and  C_11 
REMARK    4  A    between atoms: C_13  and  O_14 
ROOT
HETATM    1  N   UNL     1     -44.276 -52.559  13.996  1.00  0.00    -0.334 N 
HETATM    2  C   UNL     1     -44.469 -53.050  12.736  1.00  0.00     0.322 C 
HETATM    3  O   UNL     1     -45.510 -53.574  12.350  1.00  0.00    -0.247 OA
HETATM    4  N   UNL     1     -43.376 -52.996  11.906  1.00  0.00    -0.295 N 
HETATM    5  H   UNL     1     -43.413 -52.031  14.086  1.00  0.00     0.165 HD
HETATM    6  H   UNL     1     -43.504 -53.500  11.040  1.00  0.00     0.172 HD
ENDROOT
BRANCH   4   7
HETATM    7  C   UNL     1     -42.138 -52.386  12.168  1.00  0.00     0.114 A 
HETATM    8  C   UNL     1     -41.125 -53.131  12.719  1.00  0.00     0.104 A 
HETATM    9  C   UNL     1     -39.983 -52.427  13.022  1.00  0.00     0.146 A 
HETATM   10  N   UNL     1     -39.798 -51.125  12.752  1.00  0.00    -0.333 N 
HETATM   11  C   UNL     1     -40.826 -50.509  12.176  1.00  0.00     0.183 A 
ATOM     12  HN  UNL     1     -38.929 -50.641  12.974  1.00  0.00     0.168 HD
HETATM   13  N   UNL     1     -42.002 -51.071  11.890  1.00  0.00    -0.338 N 
ATOM     14  HN  UNL     1     -42.765 -50.532  11.480  1.00  0.00     0.168 HD
BRANCH   9  15
HETATM   15  O   UNL     1     -38.979 -53.119  13.674  1.00  0.00    -0.341 OA
HETATM   16  C   UNL     1     -39.350 -54.467  13.969  1.00  0.00     0.211 C 
ENDBRANCH   9  15
ENDBRANCH   4   7
BRANCH   1  17
HETATM   17  C   UNL     1     -45.247 -52.512  15.101  1.00  0.00     0.034 C 
HETATM   18  C   UNL     1     -45.697 -53.915  15.593  1.00  0.00     0.031 C 
HETATM   19  C   UNL     1     -44.646 -53.847  16.711  1.00  0.00     0.005 C 
HETATM   20  C   UNL     1     -44.531 -52.332  16.476  1.00  0.00     0.031 C 
BRANCH  17  21
HETATM   21  C   UNL     1     -46.374 -51.515  14.830  1.00  0.00     0.026 C 
HETATM   22  C   UNL     1     -47.334 -51.379  16.005  1.00  0.00     0.007 C 
ENDBRANCH  17  21
ENDBRANCH   1  17
TORSDOF 4
ENDMDL
MODEL 2
REMARK VINA RESULT:      -5.6      1.051      2.152
REMARK  4 active torsions:
REMARK  status: ('A' for Active; 'I' for Inactive)
REMARK    1  A    between atoms: C_2  and  C_3 
REMARK    2  A    between atoms: C_3  and  N_7 
REMARK       I    between atoms: N_7  and  C_8 
REMARK       I    between atoms: C_8  and  N_10 
REMARK    3  A    between atoms: N_10  and  C_11 
REMARK    4  A    between atoms: C_13  and  O_14 
ROOT
HETATM    1  N   UNL     1     -44.215 -52.813  13.923  1.00  0.00    -0.334 N 
HETATM    2  C   UNL     1     -44.119 -53.588  12.802  1.00  0.00     0.322 C 
HETATM    3  O   UNL     1     -44.917 -54.472  12.502  1.00  0.00    -0.247 OA
HETATM    4  N   UNL     1     -43.005 -53.374  12.028  1.00  0.00    -0.295 N 
HETATM    5  H   UNL     1     -43.556 -52.040  13.926  1.00  0.00     0.165 HD
HETATM    6  H   UNL     1     -42.886 -54.059  11.295  1.00  0.00     0.172 HD
ENDROOT
BRANCH   4   7
HETATM    7  C   UNL     1     -42.032 -52.375  12.195  1.00  0.00     0.114 A 
HETATM    8  C   UNL     1     -40.760 -52.732  12.571  1.00  0.00     0.104 A 
HETATM    9  C   UNL     1     -39.903 -51.680  12.796  1.00  0.00     0.146 A 
HETATM   10  N   UNL     1     -40.218 -50.388  12.608  1.00  0.00    -0.333 N 
HETATM   11  C   UNL     1     -41.461 -50.157  12.199  1.00  0.00     0.183 A 
ATOM     12  HN  UNL     1     -39.549 -49.636  12.767  1.00  0.00     0.168 HD
HETATM   13  N   UNL     1     -42.397 -51.089  12.005  1.00  0.00    -0.338 N 
ATOM     14  HN  UNL     1     -43.346 -50.841  11.725  1.00  0.00     0.168 HD
BRANCH   9  15
HETATM   15  O   UNL     1     -38.645 -51.993  13.278  1.00  0.00    -0.341 OA
HETATM   16  C   UNL     1     -37.674 -50.997  12.952  1.00  0.00     0.211 C 
ENDBRANCH   9  15
ENDBRANCH   4   7
BRANCH   1  17
HETATM   17  C   UNL     1     -45.273 -52.840  14.946  1.00  0.00     0.034 C 
HETATM   18  C   UNL     1     -45.609 -51.439  15.528  1.00  0.00     0.031 C 
HETATM   19  C   UNL     1     -46.777 -51.321  14.537  1.00  0.00     0.005 C 
HETATM   20  C   UNL     1     -46.691 -52.836  14.293  1.00  0.00     0.031 C 
BRANCH  17  21
HETATM   21  C   UNL     1     -45.044 -53.945  15.976  1.00  0.00     0.026 C 
HETATM   22  C   UNL     1     -43.603 -54.002  16.467  1.00  0.00     0.007 C 
ENDBRANCH  17  21
ENDBRANCH   1  17
TORSDOF 4
ENDMDL
MODEL 3
REMARK VINA RESULT:      -5.3      4.171      6.100
REMARK  4 active torsions:
REMARK  status: ('A' for Active; 'I' for Inactive)
REMARK    1  A    between atoms: C_2  and  C_3 
REMARK    2  A    between atoms: C_3  and  N_7 
REMARK       I    between atoms: N_7  and  C_8 
REMARK       I    between atoms: C_8  and  N_10 
REMARK    3  A    between atoms: N_10  and  C_11 
REMARK    4  A    between atoms: C_13  and  O_14 
ROOT
HETATM    1  N   UNL     1     -42.214 -49.997  11.972  1.00  0.00    -0.334 N 
HETATM    2  C   UNL     1     -40.918 -49.860  11.562  1.00  0.00     0.322 C 
HETATM    3  O   UNL     1     -40.000 -50.594  11.913  1.00  0.00    -0.247 OA
HETATM    4  N   UNL     1     -40.663 -48.773  10.762  1.00  0.00    -0.295 N 
HETATM    5  H   UNL     1     -42.855 -49.396  11.463  1.00  0.00     0.165 HD
HETATM    6  H   UNL     1     -39.679 -48.614  10.600  1.00  0.00     0.172 HD
ENDROOT
BRANCH   4   7
HETATM    7  C   UNL     1     -41.599 -47.873  10.225  1.00  0.00     0.114 A 
HETATM    8  C   UNL     1     -41.587 -46.564  10.642  1.00  0.00     0.104 A 
HETATM    9  C   UNL     1     -42.595 -45.781  10.130  1.00  0.00     0.146 A 
HETATM   10  N   UNL     1     -43.503 -46.200   9.233  1.00  0.00    -0.333 N 
HETATM   11  C   UNL     1     -43.395 -47.472   8.863  1.00  0.00     0.183 A 
ATOM     12  HN  UNL     1     -44.225 -45.584   8.861  1.00  0.00     0.168 HD
HETATM   13  N   UNL     1     -42.499 -48.341   9.334  1.00  0.00    -0.338 N 
ATOM     14  HN  UNL     1     -42.493 -49.317   9.035  1.00  0.00     0.168 HD
BRANCH   9  15
HETATM   15  O   UNL     1     -42.681 -44.486  10.605  1.00  0.00    -0.341 OA
HETATM   16  C   UNL     1     -42.333 -44.389  11.987  1.00  0.00     0.211 C 
ENDBRANCH   9  15
ENDBRANCH   4   7
BRANCH   1  17
HETATM   17  C   UNL     1     -42.773 -51.038  12.850  1.00  0.00     0.034 C 
HETATM   18  C   UNL     1     -42.340 -50.896  14.335  1.00  0.00     0.031 C 
HETATM   19  C   UNL     1     -43.650 -50.151  14.633  1.00  0.00     0.005 C 
HETATM   20  C   UNL     1     -44.221 -50.675  13.306  1.00  0.00     0.031 C 
BRANCH  17  21
HETATM   21  C   UNL     1     -42.621 -52.435  12.249  1.00  0.00     0.026 C 
HETATM   22  C   UNL     1     -41.941 -53.413  13.198  1.00  0.00     0.007 C 
ENDBRANCH  17  21
ENDBRANCH   1  17
TORSDOF 4
ENDMDL
MODEL 4
REMARK VINA RESULT:      -5.3      4.649      6.319
REMARK  4 active torsions:
REMARK  status: ('A' for Active; 'I' for Inactive)
REMARK    1  A    between atoms: C_2  and  C_3 
REMARK    2  A    between atoms: C_3  and  N_7 
REMARK       I    between atoms: N_7  and  C_8 
REMARK       I    between atoms: C_8  and  N_10 
REMARK    3  A    between atoms: N_10  and  C_11 
REMARK    4  A    between atoms: C_13  and  O_14 
ROOT
HETATM    1  N   UNL     1     -40.806 -47.511  11.587  1.00  0.00    -0.334 N 
HETATM    2  C   UNL     1     -41.361 -48.353  10.665  1.00  0.00     0.322 C 
HETATM    3  O   UNL     1     -42.328 -48.070   9.965  1.00  0.00    -0.247 OA
HETATM    4  N   UNL     1     -40.809 -49.609  10.604  1.00  0.00    -0.295 N 
HETATM    5  H   UNL     1     -39.927 -47.858  11.960  1.00  0.00     0.165 HD
HETATM    6  H   UNL     1     -41.333 -50.251  10.025  1.00  0.00     0.172 HD
ENDROOT
BRANCH   4   7
HETATM    7  C   UNL     1     -39.674 -50.075  11.288  1.00  0.00     0.114 A 
HETATM    8  C   UNL     1     -39.835 -50.777  12.457  1.00  0.00     0.104 A 
HETATM    9  C   UNL     1     -38.666 -51.113  13.100  1.00  0.00     0.146 A 
HETATM   10  N   UNL     1     -37.436 -50.858  12.625  1.00  0.00    -0.333 N 
HETATM   11  C   UNL     1     -37.395 -50.214  11.463  1.00  0.00     0.183 A 
ATOM     12  HN  UNL     1     -36.592 -51.140  13.122  1.00  0.00     0.168 HD
HETATM   13  N   UNL     1     -38.457 -49.786  10.778  1.00  0.00    -0.338 N 
ATOM     14  HN  UNL     1     -38.355 -49.263   9.907  1.00  0.00     0.168 HD
BRANCH   9  15
HETATM   15  O   UNL     1     -38.788 -51.727  14.333  1.00  0.00    -0.341 OA
HETATM   16  C   UNL     1     -39.267 -53.069  14.227  1.00  0.00     0.211 C 
ENDBRANCH   9  15
ENDBRANCH   4   7
BRANCH   1  17
HETATM   17  C   UNL     1     -41.204 -46.129  11.896  1.00  0.00     0.034 C 
HETATM   18  C   UNL     1     -40.083 -45.296  12.575  1.00  0.00     0.031 C 
HETATM   19  C   UNL     1     -39.696 -44.721  11.204  1.00  0.00     0.005 C 
HETATM   20  C   UNL     1     -41.045 -45.203  10.649  1.00  0.00     0.031 C 
BRANCH  17  21
HETATM   21  C   UNL     1     -42.574 -46.065  12.571  1.00  0.00     0.026 C 
HETATM   22  C   UNL     1     -42.664 -46.955  13.803  1.00  0.00     0.007 C 
ENDBRANCH  17  21
ENDBRANCH   1  17
TORSDOF 4
ENDMDL
MODEL 5
REMARK VINA RESULT:      -5.3      2.023      5.724
REMARK  4 active torsions:
REMARK  status: ('A' for Active; 'I' for Inactive)
REMARK    1  A    between atoms: C_2  and  C_3 
REMARK    2  A    between atoms: C_3  and  N_7 
REMARK       I    between atoms: N_7  and  C_8 
REMARK       I    between atoms: C_8  and  N_10 
REMARK    3  A    between atoms: N_10  and  C_11 
REMARK    4  A    between atoms: C_13  and  O_14 
ROOT
HETATM    1  N   UNL     1     -41.759 -52.892  13.758  1.00  0.00    -0.334 N 
HETATM    2  C   UNL     1     -41.922 -52.783  12.406  1.00  0.00     0.322 C 
HETATM    3  O   UNL     1     -41.006 -52.588  11.613  1.00  0.00    -0.247 OA
HETATM    4  N   UNL     1     -43.221 -52.831  11.962  1.00  0.00    -0.295 N 
HETATM    5  H   UNL     1     -42.602 -53.201  14.234  1.00  0.00     0.165 HD
HETATM    6  H   UNL     1     -43.320 -52.598  10.984  1.00  0.00     0.172 HD
ENDROOT
BRANCH   4   7
HETATM    7  C   UNL     1     -44.371 -53.101  12.721  1.00  0.00     0.114 A 
HETATM    8  C   UNL     1     -45.175 -52.060  13.117  1.00  0.00     0.104 A 
HETATM    9  C   UNL     1     -46.226 -52.413  13.930  1.00  0.00     0.146 A 
HETATM   10  N   UNL     1     -46.527 -53.675  14.281  1.00  0.00    -0.333 N 
HETATM   11  C   UNL     1     -45.710 -54.609  13.806  1.00  0.00     0.183 A 
ATOM     12  HN  UNL     1     -47.327 -53.900  14.871  1.00  0.00     0.168 HD
HETATM   13  N   UNL     1     -44.627 -54.384  13.059  1.00  0.00    -0.338 N 
ATOM     14  HN  UNL     1     -44.020 -55.145  12.756  1.00  0.00     0.168 HD
BRANCH   9  15
HETATM   15  O   UNL     1     -46.997 -51.382  14.435  1.00  0.00    -0.341 OA
HETATM   16  C   UNL     1     -47.232 -51.515  15.838  1.00  0.00     0.211 C 
ENDBRANCH   9  15
ENDBRANCH   4   7
BRANCH   1  17
HETATM   17  C   UNL     1     -40.499 -52.847  14.518  1.00  0.00     0.034 C 
HETATM   18  C   UNL     1     -40.602 -53.487  15.930  1.00  0.00     0.031 C 
HETATM   19  C   UNL     1     -40.039 -54.798  15.362  1.00  0.00     0.005 C 
HETATM   20  C   UNL     1     -39.558 -54.027  14.123  1.00  0.00     0.031 C 
BRANCH  17  21
HETATM   21  C   UNL     1     -39.850 -51.464  14.466  1.00  0.00     0.026 C 
HETATM   22  C   UNL     1     -38.453 -51.493  13.860  1.00  0.00     0.007 C 
ENDBRANCH  17  21
ENDBRANCH   1  17
TORSDOF 4
ENDMDL
MODEL 6
REMARK VINA RESULT:      -5.3      5.109      7.569
REMARK  4 active torsions:
REMARK  status: ('A' for Active; 'I' for Inactive)
REMARK    1  A    between atoms: C_2  and  C_3 
REMARK    2  A    between atoms: C_3  and  N_7 
REMARK       I    between atoms: N_7  and  C_8 
REMARK       I    between atoms: C_8  and  N_10 
REMARK    3  A    between atoms: N_10  and  C_11 
REMARK    4  A    between atoms: C_13  and  O_14 
ROOT
HETATM    1  N   UNL     1     -41.932 -47.636  11.846  1.00  0.00    -0.334 N 
HETATM    2  C   UNL     1     -41.602 -48.464  10.811  1.00  0.00     0.322 C 
HETATM    3  O   UNL     1     -40.728 -49.324  10.865  1.00  0.00    -0.247 OA
HETATM    4  N   UNL     1     -42.271 -48.234   9.633  1.00  0.00    -0.295 N 
HETATM    5  H   UNL     1     -42.774 -47.096  11.667  1.00  0.00     0.165 HD
HETATM    6  H   UNL     1     -41.901 -48.758   8.852  1.00  0.00     0.172 HD
ENDROOT
BRANCH   4   7
HETATM    7  C   UNL     1     -43.329 -47.337   9.416  1.00  0.00     0.114 A 
HETATM    8  C   UNL     1     -44.614 -47.818   9.343  1.00  0.00     0.104 A 
HETATM    9  C   UNL     1     -45.571 -46.878   9.040  1.00  0.00     0.146 A 
HETATM   10  N   UNL     1     -45.327 -45.566   8.888  1.00  0.00    -0.333 N 
HETATM   11  C   UNL     1     -44.057 -45.201   9.025  1.00  0.00     0.183 A 
ATOM     12  HN  UNL     1     -46.067 -44.895   8.682  1.00  0.00     0.168 HD
HETATM   13  N   UNL     1     -43.036 -46.028   9.259  1.00  0.00    -0.338 N 
ATOM     14  HN  UNL     1     -42.076 -45.687   9.317  1.00  0.00     0.168 HD
BRANCH   9  15
HETATM   15  O   UNL     1     -46.860 -47.340   8.854  1.00  0.00    -0.341 OA
HETATM   16  C   UNL     1     -46.917 -48.762   8.732  1.00  0.00     0.211 C 
ENDBRANCH   9  15
ENDBRANCH   4   7
BRANCH   1  17
HETATM   17  C   UNL     1     -41.366 -47.626  13.204  1.00  0.00     0.034 C 
HETATM   18  C   UNL     1     -42.257 -46.891  14.243  1.00  0.00     0.031 C 
HETATM   19  C   UNL     1     -42.859 -48.240  14.664  1.00  0.00     0.005 C 
HETATM   20  C   UNL     1     -41.691 -48.951  13.962  1.00  0.00     0.031 C 
BRANCH  17  21
HETATM   21  C   UNL     1     -39.890 -47.232  13.205  1.00  0.00     0.026 C 
HETATM   22  C   UNL     1     -39.674 -45.760  12.880  1.00  0.00     0.007 C 
ENDBRANCH  17  21
ENDBRANCH   1  17
TORSDOF 4
ENDMDL
MODEL 7
REMARK VINA RESULT:      -5.2      1.244      1.997
REMARK  4 active torsions:
REMARK  status: ('A' for Active; 'I' for Inactive)
REMARK    1  A    between atoms: C_2  and  C_3 
REMARK    2  A    between atoms: C_3  and  N_7 
REMARK       I    between atoms: N_7  and  C_8 
REMARK       I    between atoms: C_8  and  N_10 
REMARK    3  A    between atoms: N_10  and  C_11 
REMARK    4  A    between atoms: C_13  and  O_14 
ROOT
HETATM    1  N   UNL     1     -44.687 -52.812  14.093  1.00  0.00    -0.334 N 
HETATM    2  C   UNL     1     -44.864 -52.918  12.743  1.00  0.00     0.322 C 
HETATM    3  O   UNL     1     -45.958 -53.006  12.194  1.00  0.00    -0.247 OA
HETATM    4  N   UNL     1     -43.712 -52.996  12.000  1.00  0.00    -0.295 N 
HETATM    5  H   UNL     1     -43.728 -52.598  14.351  1.00  0.00     0.165 HD
HETATM    6  H   UNL     1     -43.874 -53.224  11.029  1.00  0.00     0.172 HD
ENDROOT
BRANCH   4   7
HETATM    7  C   UNL     1     -42.392 -52.856  12.459  1.00  0.00     0.114 A 
HETATM    8  C   UNL     1     -41.820 -51.608  12.489  1.00  0.00     0.104 A 
HETATM    9  C   UNL     1     -40.498 -51.582  12.868  1.00  0.00     0.146 A 
HETATM   10  N   UNL     1     -39.797 -52.660  13.256  1.00  0.00    -0.333 N 
HETATM   11  C   UNL     1     -40.460 -53.811  13.233  1.00  0.00     0.183 A 
ATOM     12  HN  UNL     1     -38.822 -52.598  13.548  1.00  0.00     0.168 HD
HETATM   13  N   UNL     1     -41.722 -53.969  12.829  1.00  0.00    -0.338 N 
ATOM     14  HN  UNL     1     -42.162 -54.889  12.801  1.00  0.00     0.168 HD
BRANCH   9  15
HETATM   15  O   UNL     1     -39.857 -50.358  12.809  1.00  0.00    -0.341 OA
HETATM   16  C   UNL     1     -40.726 -49.309  12.380  1.00  0.00     0.211 C 
ENDBRANCH   9  15
ENDBRANCH   4   7
BRANCH   1  17
HETATM   17  C   UNL     1     -45.726 -52.740  15.133  1.00  0.00     0.034 C 
HETATM   18  C   UNL     1     -46.352 -54.117  15.483  1.00  0.00     0.031 C 
HETATM   19  C   UNL     1     -45.383 -54.242  16.669  1.00  0.00     0.005 C 
HETATM   20  C   UNL     1     -45.097 -52.736  16.562  1.00  0.00     0.031 C 
BRANCH  17  21
HETATM   21  C   UNL     1     -46.722 -51.611  14.869  1.00  0.00     0.026 C 
HETATM   22  C   UNL     1     -47.509 -51.218  16.112  1.00  0.00     0.007 C 
ENDBRANCH  17  21
ENDBRANCH   1  17
TORSDOF 4
ENDMDL
MODEL 8
REMARK VINA RESULT:      -5.1      2.965      4.687
REMARK  4 active torsions:
REMARK  status: ('A' for Active; 'I' for Inactive)
REMARK    1  A    between atoms: C_2  and  C_3 
REMARK    2  A    between atoms: C_3  and  N_7 
REMARK       I    between atoms: N_7  and  C_8 
REMARK       I    between atoms: C_8  and  N_10 
REMARK    3  A    between atoms: N_10  and  C_11 
REMARK    4  A    between atoms: C_13  and  O_14 
ROOT
HETATM    1  N   UNL     1     -42.155 -51.444  12.681  1.00  0.00    -0.334 N 
HETATM    2  C   UNL     1     -41.123 -51.904  11.914  1.00  0.00     0.322 C 
HETATM    3  O   UNL     1     -40.806 -53.086  11.818  1.00  0.00    -0.247 OA
HETATM    4  N   UNL     1     -40.378 -50.938  11.283  1.00  0.00    -0.295 N 
HETATM    5  H   UNL     1     -42.361 -50.462  12.519  1.00  0.00     0.165 HD
HETATM    6  H   UNL     1     -39.539 -51.296  10.850  1.00  0.00     0.172 HD
ENDROOT
BRANCH   4   7
HETATM    7  C   UNL     1     -40.634 -49.557  11.242  1.00  0.00     0.114 A 
HETATM    8  C   UNL     1     -39.858 -48.707  11.991  1.00  0.00     0.104 A 
HETATM    9  C   UNL     1     -40.240 -47.387  11.956  1.00  0.00     0.146 A 
HETATM   10  N   UNL     1     -41.245 -46.906  11.206  1.00  0.00    -0.333 N 
HETATM   11  C   UNL     1     -41.902 -47.808  10.484  1.00  0.00     0.183 A 
ATOM     12  HN  UNL     1     -41.488 -45.915  11.191  1.00  0.00     0.168 HD
HETATM   13  N   UNL     1     -41.661 -49.121  10.482  1.00  0.00    -0.338 N 
ATOM     14  HN  UNL     1     -42.228 -49.766   9.931  1.00  0.00     0.168 HD
BRANCH   9  15
HETATM   15  O   UNL     1     -39.550 -46.516  12.778  1.00  0.00    -0.341 OA
HETATM   16  C   UNL     1     -39.694 -45.154  12.373  1.00  0.00     0.211 C 
ENDBRANCH   9  15
ENDBRANCH   4   7
BRANCH   1  17
HETATM   17  C   UNL     1     -43.097 -52.235  13.489  1.00  0.00     0.034 C 
HETATM   18  C   UNL     1     -44.363 -51.445  13.918  1.00  0.00     0.031 C 
HETATM   19  C   UNL     1     -45.123 -52.037  12.722  1.00  0.00     0.005 C 
HETATM   20  C   UNL     1     -44.026 -53.104  12.584  1.00  0.00     0.031 C 
BRANCH  17  21
HETATM   21  C   UNL     1     -42.388 -53.003  14.604  1.00  0.00     0.026 C 
HETATM   22  C   UNL     1     -42.639 -54.504  14.536  1.00  0.00     0.007 C 
ENDBRANCH  17  21
ENDBRANCH   1  17
TORSDOF 4
ENDMDL
MODEL 9
REMARK VINA RESULT:      -4.9      2.770      5.406
REMARK  4 active torsions:
REMARK  status: ('A' for Active; 'I' for Inactive)
REMARK    1  A    between atoms: C_2  and  C_3 
REMARK    2  A    between atoms: C_3  and  N_7 
REMARK       I    between atoms: N_7  and  C_8 
REMARK       I    between atoms: C_8  and  N_10 
REMARK    3  A    between atoms: N_10  and  C_11 
REMARK    4  A    between atoms: C_13  and  O_14 
ROOT
HETATM    1  N   UNL     1     -41.323 -49.778  12.633  1.00  0.00    -0.334 N 
HETATM    2  C   UNL     1     -40.618 -50.382  11.632  1.00  0.00     0.322 C 
HETATM    3  O   UNL     1     -39.805 -49.808  10.914  1.00  0.00    -0.247 OA
HETATM    4  N   UNL     1     -40.925 -51.702  11.406  1.00  0.00    -0.295 N 
HETATM    5  H   UNL     1     -41.832 -50.439  13.213  1.00  0.00     0.165 HD
HETATM    6  H   UNL     1     -40.501 -52.076  10.568  1.00  0.00     0.172 HD
ENDROOT
BRANCH   4   7
HETATM    7  C   UNL     1     -41.782 -52.518  12.163  1.00  0.00     0.114 A 
HETATM    8  C   UNL     1     -41.281 -53.191  13.250  1.00  0.00     0.104 A 
HETATM    9  C   UNL     1     -42.171 -54.034  13.874  1.00  0.00     0.146 A 
HETATM   10  N   UNL     1     -43.462 -54.169  13.527  1.00  0.00    -0.333 N 
HETATM   11  C   UNL     1     -43.854 -53.437  12.490  1.00  0.00     0.183 A 
ATOM     12  HN  UNL     1     -44.097 -54.790  14.027  1.00  0.00     0.168 HD
HETATM   13  N   UNL     1     -43.069 -52.632  11.770  1.00  0.00    -0.338 N 
ATOM     14  HN  UNL     1     -43.425 -52.124  10.960  1.00  0.00     0.168 HD
BRANCH   9  15
HETATM   15  O   UNL     1     -41.677 -54.808  14.907  1.00  0.00    -0.341 OA
HETATM   16  C   UNL     1     -42.715 -55.382  15.702  1.00  0.00     0.211 C 
ENDBRANCH   9  15
ENDBRANCH   4   7
BRANCH   1  17
HETATM   17  C   UNL     1     -41.231 -48.378  13.079  1.00  0.00     0.034 C 
HETATM   18  C   UNL     1     -41.615 -47.350  11.980  1.00  0.00     0.031 C 
HETATM   19  C   UNL     1     -43.038 -47.284  12.555  1.00  0.00     0.005 C 
HETATM   20  C   UNL     1     -42.521 -47.942  13.844  1.00  0.00     0.031 C 
BRANCH  17  21
HETATM   21  C   UNL     1     -39.923 -48.098  13.817  1.00  0.00     0.026 C 
HETATM   22  C   UNL     1     -39.444 -46.663  13.642  1.00  0.00     0.007 C 
ENDBRANCH  17  21
ENDBRANCH   1  17
TORSDOF 4
ENDMDL
