MODEL 1
REMARK VINA RESULT:      -6.3      0.000      0.000
REMARK  5 active torsions:
REMARK  status: ('A' for Active; 'I' for Inactive)
REMARK    1  A    between atoms: C_2  and  N_3 
REMARK    2  A    between atoms: C_2  and  C_18 
REMARK       I    between atoms: N_3  and  C_4 
REMARK    3  A    between atoms: C_4  and  C_6 
REMARK    4  A    between atoms: C_6  and  N_7 
REMARK    5  A    between atoms: C_9  and  C_14 
ROOT
HETATM    1  C   UNL     1     -40.739 -49.443  11.171  1.00  0.00     0.234 C 
ENDROOT
BRANCH   1   2
HETATM    2  C   UNL     1     -41.429 -50.071  12.383  1.00  0.00     0.236 C 
HETATM    3  N   UNL     1     -42.232 -51.155  12.105  1.00  0.00    -0.353 N 
HETATM    4  H   UNL     1     -42.475 -51.344  11.137  1.00  0.00     0.163 HD
HETATM    5  O   UNL     1     -41.215 -49.672  13.527  1.00  0.00    -0.272 OA
BRANCH   3   6
HETATM    6  C   UNL     1     -43.000 -51.849  13.141  1.00  0.00     0.109 C 
HETATM    7  C   UNL     1     -43.015 -53.343  12.816  1.00  0.00     0.035 C 
BRANCH   6   8
HETATM    8  C   UNL     1     -44.413 -51.234  13.279  1.00  0.00     0.143 C 
HETATM    9  C   UNL     1     -44.903 -51.050  14.713  1.00  0.00     0.036 C 
HETATM   10  C   UNL     1     -46.388 -51.354  14.657  1.00  0.00     0.029 C 
HETATM   11  C   UNL     1     -46.665 -51.666  13.203  1.00  0.00     0.168 C 
HETATM   12  O   UNL     1     -45.408 -52.056  12.640  1.00  0.00    -0.384 OA
ENDBRANCH   6   8
ENDBRANCH   3   6
ENDBRANCH   1   2
BRANCH   1  13
HETATM   13  N   UNL     1     -41.312 -48.136  10.846  1.00  0.00    -0.315 N 
HETATM   14  C   UNL     1     -42.536 -48.065  10.194  1.00  0.00     0.110 A 
HETATM   15  C   UNL     1     -43.082 -46.887   9.839  1.00  0.00     0.063 A 
HETATM   16  C   UNL     1     -42.368 -45.665  10.166  1.00  0.00     0.023 A 
HETATM   17  C   UNL     1     -41.198 -45.700  10.819  1.00  0.00     0.075 A 
HETATM   18  C   UNL     1     -40.599 -47.000  11.219  1.00  0.00     0.247 A 
HETATM   19  O   UNL     1     -39.531 -47.017  11.826  1.00  0.00    -0.268 OA
BRANCH  15  20
HETATM   20  C   UNL     1     -44.387 -46.804   9.094  1.00  0.00     0.418 C 
HETATM   21  F   UNL     1     -44.400 -47.555   7.961  1.00  0.00    -0.166 F 
HETATM   22  F   UNL     1     -45.424 -47.237   9.856  1.00  0.00    -0.166 F 
HETATM   23  F   UNL     1     -44.677 -45.533   8.720  1.00  0.00    -0.166 F 
ENDBRANCH  15  20
ENDBRANCH   1  13
TORSDOF 5
ENDMDL
MODEL 2
REMARK VINA RESULT:      -6.2      2.738      6.175
REMARK  5 active torsions:
REMARK  status: ('A' for Active; 'I' for Inactive)
REMARK    1  A    between atoms: C_2  and  N_3 
REMARK    2  A    between atoms: C_2  and  C_18 
REMARK       I    between atoms: N_3  and  C_4 
REMARK    3  A    between atoms: C_4  and  C_6 
REMARK    4  A    between atoms: C_6  and  N_7 
REMARK    5  A    between atoms: C_9  and  C_14 
ROOT
HETATM    1  C   UNL     1     -41.380 -50.267  13.295  1.00  0.00     0.234 C 
ENDROOT
BRANCH   1   2
HETATM    2  C   UNL     1     -41.161 -49.533  11.972  1.00  0.00     0.236 C 
HETATM    3  N   UNL     1     -41.548 -48.211  11.964  1.00  0.00    -0.353 N 
HETATM    4  H   UNL     1     -42.119 -47.867  12.731  1.00  0.00     0.163 HD
HETATM    5  O   UNL     1     -40.610 -50.075  11.015  1.00  0.00    -0.272 OA
BRANCH   3   6
HETATM    6  C   UNL     1     -41.450 -47.371  10.768  1.00  0.00     0.109 C 
HETATM    7  C   UNL     1     -40.279 -46.404  10.948  1.00  0.00     0.035 C 
BRANCH   6   8
HETATM    8  C   UNL     1     -42.796 -46.664  10.484  1.00  0.00     0.143 C 
HETATM    9  C   UNL     1     -43.999 -47.591  10.337  1.00  0.00     0.036 C 
HETATM   10  C   UNL     1     -44.849 -46.955   9.254  1.00  0.00     0.029 C 
HETATM   11  C   UNL     1     -44.104 -45.697   8.866  1.00  0.00     0.168 C 
HETATM   12  O   UNL     1     -42.744 -45.911   9.256  1.00  0.00    -0.384 OA
ENDBRANCH   6   8
ENDBRANCH   3   6
ENDBRANCH   1   2
BRANCH   1  13
HETATM   13  N   UNL     1     -42.353 -51.351  13.151  1.00  0.00    -0.315 N 
HETATM   14  C   UNL     1     -43.710 -51.075  13.256  1.00  0.00     0.110 A 
HETATM   15  C   UNL     1     -44.640 -52.044  13.172  1.00  0.00     0.063 A 
HETATM   16  C   UNL     1     -44.198 -53.410  12.950  1.00  0.00     0.023 A 
HETATM   17  C   UNL     1     -42.898 -53.705  12.817  1.00  0.00     0.075 A 
HETATM   18  C   UNL     1     -41.871 -52.633  12.902  1.00  0.00     0.247 A 
HETATM   19  O   UNL     1     -40.683 -52.916  12.769  1.00  0.00    -0.268 OA
BRANCH  15  20
HETATM   20  C   UNL     1     -46.109 -51.758  13.328  1.00  0.00     0.418 C 
HETATM   21  F   UNL     1     -46.379 -50.918  14.362  1.00  0.00    -0.166 F 
HETATM   22  F   UNL     1     -46.624 -51.177  12.213  1.00  0.00    -0.166 F 
HETATM   23  F   UNL     1     -46.825 -52.889  13.549  1.00  0.00    -0.166 F 
ENDBRANCH  15  20
ENDBRANCH   1  13
TORSDOF 5
ENDMDL
MODEL 3
REMARK VINA RESULT:      -6.1      5.157      7.439
REMARK  5 active torsions:
REMARK  status: ('A' for Active; 'I' for Inactive)
REMARK    1  A    between atoms: C_2  and  N_3 
REMARK    2  A    between atoms: C_2  and  C_18 
REMARK       I    between atoms: N_3  and  C_4 
REMARK    3  A    between atoms: C_4  and  C_6 
REMARK    4  A    between atoms: C_6  and  N_7 
REMARK    5  A    between atoms: C_9  and  C_14 
ROOT
HETATM    1  C   UNL     1     -45.105 -55.053  14.171  1.00  0.00     0.234 C 
ENDROOT
BRANCH   1   2
HETATM    2  C   UNL     1     -43.643 -55.057  14.617  1.00  0.00     0.236 C 
HETATM    3  N   UNL     1     -42.889 -53.996  14.166  1.00  0.00    -0.353 N 
HETATM    4  H   UNL     1     -43.270 -53.408  13.431  1.00  0.00     0.163 HD
HETATM    5  O   UNL     1     -43.203 -55.913  15.384  1.00  0.00    -0.272 OA
BRANCH   3   6
HETATM    6  C   UNL     1     -41.461 -53.865  14.463  1.00  0.00     0.109 C 
HETATM    7  C   UNL     1     -41.306 -53.165  15.813  1.00  0.00     0.035 C 
BRANCH   6   8
HETATM    8  C   UNL     1     -40.725 -53.147  13.308  1.00  0.00     0.143 C 
HETATM    9  C   UNL     1     -39.523 -52.305  13.727  1.00  0.00     0.036 C 
HETATM   10  C   UNL     1     -39.556 -51.098  12.810  1.00  0.00     0.029 C 
HETATM   11  C   UNL     1     -40.749 -51.329  11.909  1.00  0.00     0.168 C 
HETATM   12  O   UNL     1     -41.600 -52.239  12.612  1.00  0.00    -0.384 OA
ENDBRANCH   6   8
ENDBRANCH   3   6
ENDBRANCH   1   2
BRANCH   1  13
HETATM   13  N   UNL     1     -45.695 -53.717  14.279  1.00  0.00    -0.315 N 
HETATM   14  C   UNL     1     -46.152 -53.266  15.509  1.00  0.00     0.110 A 
HETATM   15  C   UNL     1     -46.738 -52.062  15.650  1.00  0.00     0.063 A 
HETATM   16  C   UNL     1     -46.876 -51.217  14.476  1.00  0.00     0.023 A 
HETATM   17  C   UNL     1     -46.420 -51.614  13.280  1.00  0.00     0.075 A 
HETATM   18  C   UNL     1     -45.765 -52.940  13.126  1.00  0.00     0.247 A 
HETATM   19  O   UNL     1     -45.343 -53.287  12.026  1.00  0.00    -0.268 OA
BRANCH  15  20
HETATM   20  C   UNL     1     -47.275 -51.584  16.972  1.00  0.00     0.418 C 
HETATM   21  F   UNL     1     -46.618 -50.494  17.448  1.00  0.00    -0.166 F 
HETATM   22  F   UNL     1     -48.585 -51.237  16.881  1.00  0.00    -0.166 F 
HETATM   23  F   UNL     1     -47.187 -52.540  17.930  1.00  0.00    -0.166 F 
ENDBRANCH  15  20
ENDBRANCH   1  13
TORSDOF 5
ENDMDL
MODEL 4
REMARK VINA RESULT:      -6.1      3.613      7.105
REMARK  5 active torsions:
REMARK  status: ('A' for Active; 'I' for Inactive)
REMARK    1  A    between atoms: C_2  and  N_3 
REMARK    2  A    between atoms: C_2  and  C_18 
REMARK       I    between atoms: N_3  and  C_4 
REMARK    3  A    between atoms: C_4  and  C_6 
REMARK    4  A    between atoms: C_6  and  N_7 
REMARK    5  A    between atoms: C_9  and  C_14 
ROOT
HETATM    1  C   UNL     1     -41.236 -51.985  11.785  1.00  0.00     0.234 C 
ENDROOT
BRANCH   1   2
HETATM    2  C   UNL     1     -41.404 -50.554  12.298  1.00  0.00     0.236 C 
HETATM    3  N   UNL     1     -41.995 -49.680  11.413  1.00  0.00    -0.353 N 
HETATM    4  H   UNL     1     -42.095 -49.964  10.443  1.00  0.00     0.163 HD
HETATM    5  O   UNL     1     -41.096 -50.239  13.446  1.00  0.00    -0.272 OA
BRANCH   3   6
HETATM    6  C   UNL     1     -42.195 -48.262  11.725  1.00  0.00     0.109 C 
HETATM    7  C   UNL     1     -43.479 -47.790  11.043  1.00  0.00     0.035 C 
BRANCH   6   8
HETATM    8  C   UNL     1     -40.948 -47.435  11.332  1.00  0.00     0.143 C 
HETATM    9  C   UNL     1     -40.214 -46.775  12.496  1.00  0.00     0.036 C 
HETATM   10  C   UNL     1     -39.746 -45.439  11.951  1.00  0.00     0.029 C 
HETATM   11  C   UNL     1     -40.212 -45.423  10.512  1.00  0.00     0.168 C 
HETATM   12  O   UNL     1     -41.293 -46.358  10.440  1.00  0.00    -0.384 OA
ENDBRANCH   6   8
ENDBRANCH   3   6
ENDBRANCH   1   2
BRANCH   1  13
HETATM   13  N   UNL     1     -41.762 -52.962  12.740  1.00  0.00    -0.315 N 
HETATM   14  C   UNL     1     -43.128 -53.203  12.793  1.00  0.00     0.110 A 
HETATM   15  C   UNL     1     -43.662 -54.062  13.681  1.00  0.00     0.063 A 
HETATM   16  C   UNL     1     -42.771 -54.758  14.594  1.00  0.00     0.023 A 
HETATM   17  C   UNL     1     -41.446 -54.566  14.549  1.00  0.00     0.075 A 
HETATM   18  C   UNL     1     -40.855 -53.625  13.561  1.00  0.00     0.247 A 
HETATM   19  O   UNL     1     -39.638 -53.466  13.526  1.00  0.00    -0.268 OA
BRANCH  15  20
HETATM   20  C   UNL     1     -45.146 -54.296  13.773  1.00  0.00     0.418 C 
HETATM   21  F   UNL     1     -45.494 -55.589  13.538  1.00  0.00    -0.166 F 
HETATM   22  F   UNL     1     -45.624 -53.986  15.006  1.00  0.00    -0.166 F 
HETATM   23  F   UNL     1     -45.835 -53.540  12.882  1.00  0.00    -0.166 F 
ENDBRANCH  15  20
ENDBRANCH   1  13
TORSDOF 5
ENDMDL
MODEL 5
REMARK VINA RESULT:      -6.1      2.277      3.401
REMARK  5 active torsions:
REMARK  status: ('A' for Active; 'I' for Inactive)
REMARK    1  A    between atoms: C_2  and  N_3 
REMARK    2  A    between atoms: C_2  and  C_18 
REMARK       I    between atoms: N_3  and  C_4 
REMARK    3  A    between atoms: C_4  and  C_6 
REMARK    4  A    between atoms: C_6  and  N_7 
REMARK    5  A    between atoms: C_9  and  C_14 
ROOT
HETATM    1  C   UNL     1     -42.659 -48.104  12.247  1.00  0.00     0.234 C 
ENDROOT
BRANCH   1   2
HETATM    2  C   UNL     1     -42.055 -49.486  11.994  1.00  0.00     0.236 C 
HETATM    3  N   UNL     1     -42.726 -50.535  12.582  1.00  0.00    -0.353 N 
HETATM    4  H   UNL     1     -43.429 -50.330  13.285  1.00  0.00     0.163 HD
HETATM    5  O   UNL     1     -41.083 -49.641  11.257  1.00  0.00    -0.272 OA
BRANCH   3   6
HETATM    6  C   UNL     1     -42.261 -51.921  12.478  1.00  0.00     0.109 C 
HETATM    7  C   UNL     1     -43.480 -52.834  12.345  1.00  0.00     0.035 C 
BRANCH   6   8
HETATM    8  C   UNL     1     -41.347 -52.282  13.672  1.00  0.00     0.143 C 
HETATM    9  C   UNL     1     -39.849 -52.211  13.388  1.00  0.00     0.036 C 
HETATM   10  C   UNL     1     -39.250 -53.362  14.175  1.00  0.00     0.029 C 
HETATM   11  C   UNL     1     -40.426 -54.002  14.879  1.00  0.00     0.168 C 
HETATM   12  O   UNL     1     -41.584 -53.628  14.127  1.00  0.00    -0.384 OA
ENDBRANCH   6   8
ENDBRANCH   3   6
ENDBRANCH   1   2
BRANCH   1  13
HETATM   13  N   UNL     1     -43.253 -47.548  11.030  1.00  0.00    -0.315 N 
HETATM   14  C   UNL     1     -44.490 -48.005  10.598  1.00  0.00     0.110 A 
HETATM   15  C   UNL     1     -45.057 -47.553   9.464  1.00  0.00     0.063 A 
HETATM   16  C   UNL     1     -44.349 -46.549   8.688  1.00  0.00     0.023 A 
HETATM   17  C   UNL     1     -43.166 -46.069   9.093  1.00  0.00     0.075 A 
HETATM   18  C   UNL     1     -42.544 -46.561  10.351  1.00  0.00     0.247 A 
HETATM   19  O   UNL     1     -41.463 -46.104  10.714  1.00  0.00    -0.268 OA
BRANCH  15  20
HETATM   20  C   UNL     1     -46.378 -48.076   8.967  1.00  0.00     0.418 C 
HETATM   21  F   UNL     1     -47.363 -47.139   8.993  1.00  0.00    -0.166 F 
HETATM   22  F   UNL     1     -46.291 -48.509   7.683  1.00  0.00    -0.166 F 
HETATM   23  F   UNL     1     -46.819 -49.124   9.707  1.00  0.00    -0.166 F 
ENDBRANCH  15  20
ENDBRANCH   1  13
TORSDOF 5
ENDMDL
MODEL 6
REMARK VINA RESULT:      -5.9      3.947      7.467
REMARK  5 active torsions:
REMARK  status: ('A' for Active; 'I' for Inactive)
REMARK    1  A    between atoms: C_2  and  N_3 
REMARK    2  A    between atoms: C_2  and  C_18 
REMARK       I    between atoms: N_3  and  C_4 
REMARK    3  A    between atoms: C_4  and  C_6 
REMARK    4  A    between atoms: C_6  and  N_7 
REMARK    5  A    between atoms: C_9  and  C_14 
ROOT
HETATM    1  C   UNL     1     -41.592 -52.709  12.001  1.00  0.00     0.234 C 
ENDROOT
BRANCH   1   2
HETATM    2  C   UNL     1     -41.607 -51.235  12.410  1.00  0.00     0.236 C 
HETATM    3  N   UNL     1     -41.277 -50.346  11.411  1.00  0.00    -0.353 N 
HETATM    4  H   UNL     1     -40.862 -50.707  10.557  1.00  0.00     0.163 HD
HETATM    5  O   UNL     1     -41.960 -50.880  13.533  1.00  0.00    -0.272 OA
BRANCH   3   6
HETATM    6  C   UNL     1     -41.200 -48.901  11.639  1.00  0.00     0.109 C 
HETATM    7  C   UNL     1     -41.702 -48.183  10.386  1.00  0.00     0.035 C 
BRANCH   6   8
HETATM    8  C   UNL     1     -39.768 -48.488  12.055  1.00  0.00     0.143 C 
HETATM    9  C   UNL     1     -38.653 -49.381  11.518  1.00  0.00     0.036 C 
HETATM   10  C   UNL     1     -37.631 -49.441  12.638  1.00  0.00     0.029 C 
HETATM   11  C   UNL     1     -38.204 -48.565  13.731  1.00  0.00     0.168 C 
HETATM   12  O   UNL     1     -39.612 -48.504  13.487  1.00  0.00    -0.384 OA
ENDBRANCH   6   8
ENDBRANCH   3   6
ENDBRANCH   1   2
BRANCH   1  13
HETATM   13  N   UNL     1     -42.165 -53.560  13.045  1.00  0.00    -0.315 N 
HETATM   14  C   UNL     1     -43.536 -53.779  13.077  1.00  0.00     0.110 A 
HETATM   15  C   UNL     1     -44.113 -54.520  14.040  1.00  0.00     0.063 A 
HETATM   16  C   UNL     1     -43.265 -55.113  15.061  1.00  0.00     0.023 A 
HETATM   17  C   UNL     1     -41.936 -54.942  15.041  1.00  0.00     0.075 A 
HETATM   18  C   UNL     1     -41.297 -54.130  13.972  1.00  0.00     0.247 A 
HETATM   19  O   UNL     1     -40.077 -53.990  13.962  1.00  0.00    -0.268 OA
BRANCH  15  20
HETATM   20  C   UNL     1     -45.602 -54.727  14.106  1.00  0.00     0.418 C 
HETATM   21  F   UNL     1     -46.297 -53.816  13.374  1.00  0.00    -0.166 F 
HETATM   22  F   UNL     1     -45.957 -55.951  13.635  1.00  0.00    -0.166 F 
HETATM   23  F   UNL     1     -46.070 -54.643  15.376  1.00  0.00    -0.166 F 
ENDBRANCH  15  20
ENDBRANCH   1  13
TORSDOF 5
ENDMDL
MODEL 7
REMARK VINA RESULT:      -5.8      3.129      6.545
REMARK  5 active torsions:
REMARK  status: ('A' for Active; 'I' for Inactive)
REMARK    1  A    between atoms: C_2  and  N_3 
REMARK    2  A    between atoms: C_2  and  C_18 
REMARK       I    between atoms: N_3  and  C_4 
REMARK    3  A    between atoms: C_4  and  C_6 
REMARK    4  A    between atoms: C_6  and  N_7 
REMARK    5  A    between atoms: C_9  and  C_14 
ROOT
HETATM    1  C   UNL     1     -41.366 -52.562  14.826  1.00  0.00     0.234 C 
ENDROOT
BRANCH   1   2
HETATM    2  C   UNL     1     -40.447 -52.432  13.610  1.00  0.00     0.236 C 
HETATM    3  N   UNL     1     -39.872 -51.192  13.441  1.00  0.00    -0.353 N 
HETATM    4  H   UNL     1     -40.230 -50.412  13.984  1.00  0.00     0.163 HD
HETATM    5  O   UNL     1     -40.192 -53.393  12.887  1.00  0.00    -0.272 OA
BRANCH   3   6
HETATM    6  C   UNL     1     -39.000 -50.879  12.306  1.00  0.00     0.109 C 
HETATM    7  C   UNL     1     -37.554 -50.834  12.802  1.00  0.00     0.035 C 
BRANCH   6   8
HETATM    8  C   UNL     1     -39.454 -49.575  11.610  1.00  0.00     0.143 C 
HETATM    9  C   UNL     1     -39.409 -48.323  12.481  1.00  0.00     0.036 C 
HETATM   10  C   UNL     1     -40.618 -47.511  12.058  1.00  0.00     0.029 C 
HETATM   11  C   UNL     1     -41.265 -48.326  10.959  1.00  0.00     0.168 C 
HETATM   12  O   UNL     1     -40.817 -49.671  11.153  1.00  0.00    -0.384 OA
ENDBRANCH   6   8
ENDBRANCH   3   6
ENDBRANCH   1   2
BRANCH   1  13
HETATM   13  N   UNL     1     -42.687 -53.068  14.447  1.00  0.00    -0.315 N 
HETATM   14  C   UNL     1     -43.613 -52.207  13.873  1.00  0.00     0.110 A 
HETATM   15  C   UNL     1     -44.853 -52.616  13.546  1.00  0.00     0.063 A 
HETATM   16  C   UNL     1     -45.213 -54.002  13.793  1.00  0.00     0.023 A 
HETATM   17  C   UNL     1     -44.333 -54.863  14.320  1.00  0.00     0.075 A 
HETATM   18  C   UNL     1     -42.960 -54.414  14.674  1.00  0.00     0.247 A 
HETATM   19  O   UNL     1     -42.160 -55.217  15.148  1.00  0.00    -0.268 OA
BRANCH  15  20
HETATM   20  C   UNL     1     -45.876 -51.679  12.964  1.00  0.00     0.418 C 
HETATM   21  F   UNL     1     -46.503 -52.189  11.871  1.00  0.00    -0.166 F 
HETATM   22  F   UNL     1     -46.849 -51.382  13.864  1.00  0.00    -0.166 F 
HETATM   23  F   UNL     1     -45.323 -50.501  12.580  1.00  0.00    -0.166 F 
ENDBRANCH  15  20
ENDBRANCH   1  13
TORSDOF 5
ENDMDL
MODEL 8
REMARK VINA RESULT:      -5.7      4.699      7.284
REMARK  5 active torsions:
REMARK  status: ('A' for Active; 'I' for Inactive)
REMARK    1  A    between atoms: C_2  and  N_3 
REMARK    2  A    between atoms: C_2  and  C_18 
REMARK       I    between atoms: N_3  and  C_4 
REMARK    3  A    between atoms: C_4  and  C_6 
REMARK    4  A    between atoms: C_6  and  N_7 
REMARK    5  A    between atoms: C_9  and  C_14 
ROOT
HETATM    1  C   UNL     1     -41.302 -52.975  11.776  1.00  0.00     0.234 C 
ENDROOT
BRANCH   1   2
HETATM    2  C   UNL     1     -40.977 -51.514  12.089  1.00  0.00     0.236 C 
HETATM    3  N   UNL     1     -39.635 -51.216  12.172  1.00  0.00    -0.353 N 
HETATM    4  H   UNL     1     -38.970 -51.982  12.222  1.00  0.00     0.163 HD
HETATM    5  O   UNL     1     -41.859 -50.662  12.186  1.00  0.00    -0.272 OA
BRANCH   3   6
HETATM    6  C   UNL     1     -39.147 -49.876  12.506  1.00  0.00     0.109 C 
HETATM    7  C   UNL     1     -37.946 -49.560  11.614  1.00  0.00     0.035 C 
BRANCH   6   8
HETATM    8  C   UNL     1     -38.838 -49.768  14.018  1.00  0.00     0.143 C 
HETATM    9  C   UNL     1     -38.200 -51.006  14.642  1.00  0.00     0.036 C 
HETATM   10  C   UNL     1     -38.804 -51.096  16.030  1.00  0.00     0.029 C 
HETATM   11  C   UNL     1     -39.724 -49.899  16.130  1.00  0.00     0.168 C 
HETATM   12  O   UNL     1     -40.035 -49.531  14.783  1.00  0.00    -0.384 OA
ENDBRANCH   6   8
ENDBRANCH   3   6
ENDBRANCH   1   2
BRANCH   1  13
HETATM   13  N   UNL     1     -41.900 -53.650  12.929  1.00  0.00    -0.315 N 
HETATM   14  C   UNL     1     -43.273 -53.854  12.970  1.00  0.00     0.110 A 
HETATM   15  C   UNL     1     -43.872 -54.433  14.027  1.00  0.00     0.063 A 
HETATM   16  C   UNL     1     -43.046 -54.864  15.142  1.00  0.00     0.023 A 
HETATM   17  C   UNL     1     -41.716 -54.704  15.120  1.00  0.00     0.075 A 
HETATM   18  C   UNL     1     -41.052 -54.073  13.949  1.00  0.00     0.247 A 
HETATM   19  O   UNL     1     -39.831 -53.942  13.939  1.00  0.00    -0.268 OA
BRANCH  15  20
HETATM   20  C   UNL     1     -45.364 -54.619  14.097  1.00  0.00     0.418 C 
HETATM   21  F   UNL     1     -46.047 -53.717  13.344  1.00  0.00    -0.166 F 
HETATM   22  F   UNL     1     -45.734 -55.849  13.655  1.00  0.00    -0.166 F 
HETATM   23  F   UNL     1     -45.830 -54.500  15.365  1.00  0.00    -0.166 F 
ENDBRANCH  15  20
ENDBRANCH   1  13
TORSDOF 5
ENDMDL
MODEL 9
REMARK VINA RESULT:      -5.6      3.939      7.040
REMARK  5 active torsions:
REMARK  status: ('A' for Active; 'I' for Inactive)
REMARK    1  A    between atoms: C_2  and  N_3 
REMARK    2  A    between atoms: C_2  and  C_18 
REMARK       I    between atoms: N_3  and  C_4 
REMARK    3  A    between atoms: C_4  and  C_6 
REMARK    4  A    between atoms: C_6  and  N_7 
REMARK    5  A    between atoms: C_9  and  C_14 
ROOT
HETATM    1  C   UNL     1     -41.752 -52.820  15.431  1.00  0.00     0.234 C 
ENDROOT
BRANCH   1   2
HETATM    2  C   UNL     1     -41.224 -51.385  15.421  1.00  0.00     0.236 C 
HETATM    3  N   UNL     1     -40.721 -50.954  14.214  1.00  0.00    -0.353 N 
HETATM    4  H   UNL     1     -40.546 -51.641  13.486  1.00  0.00     0.163 HD
HETATM    5  O   UNL     1     -41.314 -50.657  16.408  1.00  0.00    -0.272 OA
BRANCH   3   6
HETATM    6  C   UNL     1     -40.135 -49.623  14.038  1.00  0.00     0.109 C 
HETATM    7  C   UNL     1     -41.059 -48.799  13.142  1.00  0.00     0.035 C 
BRANCH   6   8
HETATM    8  C   UNL     1     -38.688 -49.728  13.501  1.00  0.00     0.143 C 
HETATM    9  C   UNL     1     -38.468 -49.144  12.109  1.00  0.00     0.036 C 
HETATM   10  C   UNL     1     -37.463 -50.072  11.453  1.00  0.00     0.029 C 
HETATM   11  C   UNL     1     -37.149 -51.109  12.509  1.00  0.00     0.168 C 
HETATM   12  O   UNL     1     -38.260 -51.100  13.410  1.00  0.00    -0.384 OA
ENDBRANCH   6   8
ENDBRANCH   3   6
ENDBRANCH   1   2
BRANCH   1  13
HETATM   13  N   UNL     1     -42.949 -52.955  14.598  1.00  0.00    -0.315 N 
HETATM   14  C   UNL     1     -44.116 -52.296  14.961  1.00  0.00     0.110 A 
HETATM   15  C   UNL     1     -45.252 -52.423  14.250  1.00  0.00     0.063 A 
HETATM   16  C   UNL     1     -45.238 -53.264  13.066  1.00  0.00     0.023 A 
HETATM   17  C   UNL     1     -44.120 -53.892  12.675  1.00  0.00     0.075 A 
HETATM   18  C   UNL     1     -42.863 -53.745  13.455  1.00  0.00     0.247 A 
HETATM   19  O   UNL     1     -41.844 -54.318  13.080  1.00  0.00    -0.268 OA
BRANCH  15  20
HETATM   20  C   UNL     1     -46.532 -51.746  14.661  1.00  0.00     0.418 C 
HETATM   21  F   UNL     1     -46.355 -50.833  15.652  1.00  0.00    -0.166 F 
HETATM   22  F   UNL     1     -47.100 -51.082  13.621  1.00  0.00    -0.166 F 
HETATM   23  F   UNL     1     -47.453 -52.635  15.111  1.00  0.00    -0.166 F 
ENDBRANCH  15  20
ENDBRANCH   1  13
TORSDOF 5
ENDMDL
