MODEL 1
REMARK VINA RESULT:      -7.2      0.000      0.000
REMARK  4 active torsions:
REMARK  status: ('A' for Active; 'I' for Inactive)
REMARK    1  A    between atoms: C_2  and  N_3 
REMARK    2  A    between atoms: C_2  and  C_15 
REMARK       I    between atoms: N_3  and  C_4 
REMARK       I    between atoms: C_4  and  N_6 
REMARK    3  A    between atoms: N_6  and  C_7 
REMARK       I    between atoms: C_15  and  N_17 
REMARK    4  A    between atoms: N_17  and  C_18 
ROOT
HETATM    1  N   UNL     1     -42.000 -48.798  10.901  1.00  0.00    -0.330 N 
HETATM    2  C   UNL     1     -41.554 -47.552  10.596  1.00  0.00     0.322 C 
HETATM    3  O   UNL     1     -40.653 -47.005  11.226  1.00  0.00    -0.247 OA
HETATM    4  N   UNL     1     -42.197 -46.872   9.607  1.00  0.00    -0.288 N 
HETATM    5  H   UNL     1     -42.732 -49.196  10.318  1.00  0.00     0.165 HD
HETATM    6  H   UNL     1     -41.911 -45.915   9.462  1.00  0.00     0.172 HD
ENDROOT
BRANCH   1   7
HETATM    7  C   UNL     1     -41.386 -49.671  11.898  1.00  0.00     0.174 C 
HETATM    8  C   UNL     1     -40.156 -50.346  11.289  1.00  0.00     0.042 C 
BRANCH   7   9
HETATM    9  C   UNL     1     -42.325 -50.766  12.473  1.00  0.00     0.240 C 
HETATM   10  O   UNL     1     -41.938 -51.922  12.648  1.00  0.00    -0.271 OA
HETATM   11  N   UNL     1     -43.566 -50.345  12.909  1.00  0.00    -0.355 N 
HETATM   12  H   UNL     1     -43.683 -49.344  13.036  1.00  0.00     0.162 HD
BRANCH  11  13
HETATM   13  C   UNL     1     -44.440 -51.250  13.634  1.00  0.00     0.084 C 
HETATM   14  C   UNL     1     -45.835 -51.371  13.018  1.00  0.00     0.025 C 
HETATM   15  C   UNL     1     -46.817 -51.446  14.187  1.00  0.00     0.002 C 
HETATM   16  C   UNL     1     -45.972 -51.504  15.452  1.00  0.00     0.002 C 
HETATM   17  C   UNL     1     -44.681 -50.798  15.072  1.00  0.00     0.025 C 
ENDBRANCH  11  13
ENDBRANCH   7   9
ENDBRANCH   1   7
BRANCH   4  18
HETATM   18  C   UNL     1     -43.231 -47.366   8.865  1.00  0.00     0.169 A 
HETATM   19  N   UNL     1     -43.200 -47.852   7.646  1.00  0.00    -0.279 N 
HETATM   20  N   UNL     1     -44.430 -48.333   7.258  1.00  0.00    -0.296 N 
ATOM     21  HN  UNL     1     -42.367 -47.870   7.058  1.00  0.00     0.189 HD
HETATM   22  C   UNL     1     -45.334 -48.209   8.209  1.00  0.00     0.066 A 
ATOM     23  HN  UNL     1     -44.619 -48.739   6.342  1.00  0.00     0.187 HD
HETATM   24  C   UNL     1     -46.721 -48.717   8.117  1.00  0.00     0.078 C 
HETATM   25  S   UNL     1     -44.757 -47.419   9.626  1.00  0.00    -0.038 SA
ENDBRANCH   4  18
TORSDOF 4
ENDMDL
MODEL 2
REMARK VINA RESULT:      -6.6      3.732      5.840
REMARK  4 active torsions:
REMARK  status: ('A' for Active; 'I' for Inactive)
REMARK    1  A    between atoms: C_2  and  N_3 
REMARK    2  A    between atoms: C_2  and  C_15 
REMARK       I    between atoms: N_3  and  C_4 
REMARK       I    between atoms: C_4  and  N_6 
REMARK    3  A    between atoms: N_6  and  C_7 
REMARK       I    between atoms: C_15  and  N_17 
REMARK    4  A    between atoms: N_17  and  C_18 
ROOT
HETATM    1  N   UNL     1     -41.404 -47.092  11.158  1.00  0.00    -0.330 N 
HETATM    2  C   UNL     1     -40.052 -46.979  11.099  1.00  0.00     0.322 C 
HETATM    3  O   UNL     1     -39.494 -45.911  10.855  1.00  0.00    -0.247 OA
HETATM    4  N   UNL     1     -39.313 -48.113  11.237  1.00  0.00    -0.288 N 
HETATM    5  H   UNL     1     -41.794 -48.002  11.391  1.00  0.00     0.165 HD
HETATM    6  H   UNL     1     -38.318 -48.019  11.095  1.00  0.00     0.172 HD
ENDROOT
BRANCH   1   7
HETATM    7  C   UNL     1     -42.330 -45.965  11.080  1.00  0.00     0.174 C 
HETATM    8  C   UNL     1     -43.102 -45.854  12.396  1.00  0.00     0.042 C 
BRANCH   7   9
HETATM    9  C   UNL     1     -43.345 -46.035   9.908  1.00  0.00     0.240 C 
HETATM   10  O   UNL     1     -43.211 -45.347   8.895  1.00  0.00    -0.271 OA
HETATM   11  N   UNL     1     -44.321 -47.009   9.997  1.00  0.00    -0.355 N 
HETATM   12  H   UNL     1     -44.168 -47.738  10.687  1.00  0.00     0.162 HD
BRANCH  11  13
HETATM   13  C   UNL     1     -45.196 -47.282   8.871  1.00  0.00     0.084 C 
HETATM   14  C   UNL     1     -46.471 -48.033   9.260  1.00  0.00     0.025 C 
HETATM   15  C   UNL     1     -46.740 -49.035   8.138  1.00  0.00     0.002 C 
HETATM   16  C   UNL     1     -45.703 -48.757   7.059  1.00  0.00     0.002 C 
HETATM   17  C   UNL     1     -44.529 -48.158   7.814  1.00  0.00     0.025 C 
ENDBRANCH  11  13
ENDBRANCH   7   9
ENDBRANCH   1   7
BRANCH   4  18
HETATM   18  C   UNL     1     -39.826 -49.355  11.475  1.00  0.00     0.169 A 
HETATM   19  N   UNL     1     -40.351 -50.198  10.617  1.00  0.00    -0.279 N 
HETATM   20  N   UNL     1     -40.685 -51.392  11.215  1.00  0.00    -0.296 N 
ATOM     21  HN  UNL     1     -40.493 -49.994   9.628  1.00  0.00     0.189 HD
HETATM   22  C   UNL     1     -40.381 -51.408  12.497  1.00  0.00     0.066 A 
ATOM     23  HN  UNL     1     -41.119 -52.174  10.723  1.00  0.00     0.187 HD
HETATM   24  C   UNL     1     -40.540 -52.584  13.380  1.00  0.00     0.078 C 
HETATM   25  S   UNL     1     -39.729 -49.925  13.080  1.00  0.00    -0.038 SA
ENDBRANCH   4  18
TORSDOF 4
ENDMDL
MODEL 3
REMARK VINA RESULT:      -6.5      3.062      3.997
REMARK  4 active torsions:
REMARK  status: ('A' for Active; 'I' for Inactive)
REMARK    1  A    between atoms: C_2  and  N_3 
REMARK    2  A    between atoms: C_2  and  C_15 
REMARK       I    between atoms: N_3  and  C_4 
REMARK       I    between atoms: C_4  and  N_6 
REMARK    3  A    between atoms: N_6  and  C_7 
REMARK       I    between atoms: C_15  and  N_17 
REMARK    4  A    between atoms: N_17  and  C_18 
ROOT
HETATM    1  N   UNL     1     -40.410 -51.678  13.021  1.00  0.00    -0.330 N 
HETATM    2  C   UNL     1     -39.110 -51.443  12.705  1.00  0.00     0.322 C 
HETATM    3  O   UNL     1     -38.188 -52.086  13.201  1.00  0.00    -0.247 OA
HETATM    4  N   UNL     1     -38.838 -50.401  11.873  1.00  0.00    -0.288 N 
HETATM    5  H   UNL     1     -41.120 -51.123  12.551  1.00  0.00     0.165 HD
HETATM    6  H   UNL     1     -37.862 -50.186  11.729  1.00  0.00     0.172 HD
ENDROOT
BRANCH   1   7
HETATM    7  C   UNL     1     -40.867 -52.785  13.858  1.00  0.00     0.174 C 
HETATM    8  C   UNL     1     -41.145 -54.003  12.975  1.00  0.00     0.042 C 
BRANCH   7   9
HETATM    9  C   UNL     1     -42.131 -52.482  14.706  1.00  0.00     0.240 C 
HETATM   10  O   UNL     1     -42.049 -52.087  15.870  1.00  0.00    -0.271 OA
HETATM   11  N   UNL     1     -43.343 -52.540  14.046  1.00  0.00    -0.355 N 
HETATM   12  H   UNL     1     -43.304 -52.546  13.031  1.00  0.00     0.162 HD
BRANCH  11  13
HETATM   13  C   UNL     1     -44.561 -52.090  14.697  1.00  0.00     0.084 C 
HETATM   14  C   UNL     1     -45.435 -53.236  15.210  1.00  0.00     0.025 C 
HETATM   15  C   UNL     1     -46.883 -52.825  14.942  1.00  0.00     0.002 C 
HETATM   16  C   UNL     1     -46.831 -51.401  14.408  1.00  0.00     0.002 C 
HETATM   17  C   UNL     1     -45.463 -51.294  13.757  1.00  0.00     0.025 C 
ENDBRANCH  11  13
ENDBRANCH   7   9
ENDBRANCH   1   7
BRANCH   4  18
HETATM   18  C   UNL     1     -39.777 -49.599  11.293  1.00  0.00     0.169 A 
HETATM   19  N   UNL     1     -40.506 -49.837  10.228  1.00  0.00    -0.279 N 
HETATM   20  N   UNL     1     -41.409 -48.825   9.992  1.00  0.00    -0.296 N 
ATOM     21  HN  UNL     1     -40.415 -50.669   9.646  1.00  0.00     0.189 HD
HETATM   22  C   UNL     1     -41.338 -47.873  10.901  1.00  0.00     0.066 A 
ATOM     23  HN  UNL     1     -42.058 -48.813   9.205  1.00  0.00     0.187 HD
HETATM   24  C   UNL     1     -42.241 -46.704  10.961  1.00  0.00     0.078 C 
HETATM   25  S   UNL     1     -40.100 -48.116  12.073  1.00  0.00    -0.038 SA
ENDBRANCH   4  18
TORSDOF 4
ENDMDL
MODEL 4
REMARK VINA RESULT:      -6.2      2.957      6.231
REMARK  4 active torsions:
REMARK  status: ('A' for Active; 'I' for Inactive)
REMARK    1  A    between atoms: C_2  and  N_3 
REMARK    2  A    between atoms: C_2  and  C_15 
REMARK       I    between atoms: N_3  and  C_4 
REMARK       I    between atoms: C_4  and  N_6 
REMARK    3  A    between atoms: N_6  and  C_7 
REMARK       I    between atoms: C_15  and  N_17 
REMARK    4  A    between atoms: N_17  and  C_18 
ROOT
HETATM    1  N   UNL     1     -42.363 -51.033  12.528  1.00  0.00    -0.330 N 
HETATM    2  C   UNL     1     -41.782 -52.196  12.135  1.00  0.00     0.322 C 
HETATM    3  O   UNL     1     -40.650 -52.234  11.657  1.00  0.00    -0.247 OA
HETATM    4  N   UNL     1     -42.526 -53.333  12.207  1.00  0.00    -0.288 N 
HETATM    5  H   UNL     1     -43.292 -51.082  12.940  1.00  0.00     0.165 HD
HETATM    6  H   UNL     1     -42.107 -54.167  11.822  1.00  0.00     0.172 HD
ENDROOT
BRANCH   1   7
HETATM    7  C   UNL     1     -41.683 -49.740  12.559  1.00  0.00     0.174 C 
HETATM    8  C   UNL     1     -42.149 -48.954  13.786  1.00  0.00     0.042 C 
BRANCH   7   9
HETATM    9  C   UNL     1     -41.889 -48.865  11.294  1.00  0.00     0.240 C 
HETATM   10  O   UNL     1     -41.052 -48.826  10.392  1.00  0.00    -0.271 OA
HETATM   11  N   UNL     1     -43.117 -48.246  11.168  1.00  0.00    -0.355 N 
HETATM   12  H   UNL     1     -43.857 -48.587  11.774  1.00  0.00     0.162 HD
BRANCH  11  13
HETATM   13  C   UNL     1     -43.478 -47.565   9.938  1.00  0.00     0.084 C 
HETATM   14  C   UNL     1     -43.021 -46.106   9.895  1.00  0.00     0.025 C 
HETATM   15  C   UNL     1     -44.145 -45.322   9.217  1.00  0.00     0.002 C 
HETATM   16  C   UNL     1     -45.168 -46.353   8.758  1.00  0.00     0.002 C 
HETATM   17  C   UNL     1     -44.988 -47.513   9.723  1.00  0.00     0.025 C 
ENDBRANCH  11  13
ENDBRANCH   7   9
ENDBRANCH   1   7
BRANCH   4  18
HETATM   18  C   UNL     1     -43.801 -53.403  12.687  1.00  0.00     0.169 A 
HETATM   19  N   UNL     1     -44.898 -52.914  12.158  1.00  0.00    -0.279 N 
HETATM   20  N   UNL     1     -46.013 -53.257  12.889  1.00  0.00    -0.296 N 
ATOM     21  HN  UNL     1     -44.922 -52.348  11.310  1.00  0.00     0.189 HD
HETATM   22  C   UNL     1     -45.713 -54.009  13.929  1.00  0.00     0.066 A 
ATOM     23  HN  UNL     1     -46.962 -52.964  12.653  1.00  0.00     0.187 HD
HETATM   24  C   UNL     1     -46.709 -54.604  14.847  1.00  0.00     0.078 C 
HETATM   25  S   UNL     1     -44.025 -54.286  14.129  1.00  0.00    -0.038 SA
ENDBRANCH   4  18
TORSDOF 4
ENDMDL
MODEL 5
REMARK VINA RESULT:      -6.2      3.240      6.350
REMARK  4 active torsions:
REMARK  status: ('A' for Active; 'I' for Inactive)
REMARK    1  A    between atoms: C_2  and  N_3 
REMARK    2  A    between atoms: C_2  and  C_15 
REMARK       I    between atoms: N_3  and  C_4 
REMARK       I    between atoms: C_4  and  N_6 
REMARK    3  A    between atoms: N_6  and  C_7 
REMARK       I    between atoms: C_15  and  N_17 
REMARK    4  A    between atoms: N_17  and  C_18 
ROOT
HETATM    1  N   UNL     1     -41.562 -50.973  11.924  1.00  0.00    -0.330 N 
HETATM    2  C   UNL     1     -41.286 -52.273  12.207  1.00  0.00     0.322 C 
HETATM    3  O   UNL     1     -40.162 -52.750  12.067  1.00  0.00    -0.247 OA
HETATM    4  N   UNL     1     -42.321 -53.076  12.578  1.00  0.00    -0.288 N 
HETATM    5  H   UNL     1     -42.510 -50.643  12.089  1.00  0.00     0.165 HD
HETATM    6  H   UNL     1     -42.109 -54.056  12.691  1.00  0.00     0.172 HD
ENDROOT
BRANCH   1   7
HETATM    7  C   UNL     1     -40.557 -49.977  11.563  1.00  0.00     0.174 C 
HETATM    8  C   UNL     1     -39.703 -49.654  12.790  1.00  0.00     0.042 C 
BRANCH   7   9
HETATM    9  C   UNL     1     -41.128 -48.653  10.987  1.00  0.00     0.240 C 
HETATM   10  O   UNL     1     -42.291 -48.570  10.592  1.00  0.00    -0.271 OA
HETATM   11  N   UNL     1     -40.311 -47.543  11.074  1.00  0.00    -0.355 N 
HETATM   12  H   UNL     1     -39.515 -47.616  11.700  1.00  0.00     0.162 HD
BRANCH  11  13
HETATM   13  C   UNL     1     -40.821 -46.224  10.741  1.00  0.00     0.084 C 
HETATM   14  C   UNL     1     -39.729 -45.239  10.322  1.00  0.00     0.025 C 
HETATM   15  C   UNL     1     -40.112 -43.888  10.929  1.00  0.00     0.002 C 
HETATM   16  C   UNL     1     -41.480 -44.080  11.569  1.00  0.00     0.002 C 
HETATM   17  C   UNL     1     -41.524 -45.558  11.921  1.00  0.00     0.025 C 
ENDBRANCH  11  13
ENDBRANCH   7   9
ENDBRANCH   1   7
BRANCH   4  18
HETATM   18  C   UNL     1     -43.613 -52.663  12.731  1.00  0.00     0.169 A 
HETATM   19  N   UNL     1     -44.618 -52.806  11.899  1.00  0.00    -0.279 N 
HETATM   20  N   UNL     1     -45.795 -52.335  12.436  1.00  0.00    -0.296 N 
ATOM     21  HN  UNL     1     -44.536 -53.215  10.968  1.00  0.00     0.189 HD
HETATM   22  C   UNL     1     -45.633 -51.874  13.660  1.00  0.00     0.066 A 
ATOM     23  HN  UNL     1     -46.688 -52.342  11.943  1.00  0.00     0.187 HD
HETATM   24  C   UNL     1     -46.731 -51.386  14.522  1.00  0.00     0.078 C 
HETATM   25  S   UNL     1     -44.003 -51.916  14.214  1.00  0.00    -0.038 SA
ENDBRANCH   4  18
TORSDOF 4
ENDMDL
MODEL 6
REMARK VINA RESULT:      -6.2      4.668      7.054
REMARK  4 active torsions:
REMARK  status: ('A' for Active; 'I' for Inactive)
REMARK    1  A    between atoms: C_2  and  N_3 
REMARK    2  A    between atoms: C_2  and  C_15 
REMARK       I    between atoms: N_3  and  C_4 
REMARK       I    between atoms: C_4  and  N_6 
REMARK    3  A    between atoms: N_6  and  C_7 
REMARK       I    between atoms: C_15  and  N_17 
REMARK    4  A    between atoms: N_17  and  C_18 
ROOT
HETATM    1  N   UNL     1     -39.531 -50.238  12.084  1.00  0.00    -0.330 N 
HETATM    2  C   UNL     1     -40.693 -49.981  11.429  1.00  0.00     0.322 C 
HETATM    3  O   UNL     1     -40.921 -48.895  10.900  1.00  0.00    -0.247 OA
HETATM    4  N   UNL     1     -41.655 -50.944  11.441  1.00  0.00    -0.288 N 
HETATM    5  H   UNL     1     -39.403 -51.168  12.474  1.00  0.00     0.165 HD
HETATM    6  H   UNL     1     -42.543 -50.694  11.030  1.00  0.00     0.172 HD
ENDROOT
BRANCH   1   7
HETATM    7  C   UNL     1     -38.387 -49.331  12.120  1.00  0.00     0.174 C 
HETATM    8  C   UNL     1     -37.229 -49.948  11.334  1.00  0.00     0.042 C 
BRANCH   7   9
HETATM    9  C   UNL     1     -37.888 -48.966  13.544  1.00  0.00     0.240 C 
HETATM   10  O   UNL     1     -37.991 -47.824  13.992  1.00  0.00    -0.271 OA
HETATM   11  N   UNL     1     -37.457 -50.016  14.332  1.00  0.00    -0.355 N 
HETATM   12  H   UNL     1     -37.710 -50.948  14.018  1.00  0.00     0.162 HD
BRANCH  11  13
HETATM   13  C   UNL     1     -37.153 -49.809  15.736  1.00  0.00     0.084 C 
HETATM   14  C   UNL     1     -35.665 -49.946  16.063  1.00  0.00     0.025 C 
HETATM   15  C   UNL     1     -35.584 -50.658  17.413  1.00  0.00     0.002 C 
HETATM   16  C   UNL     1     -37.017 -50.799  17.908  1.00  0.00     0.002 C 
HETATM   17  C   UNL     1     -37.851 -50.823  16.639  1.00  0.00     0.025 C 
ENDBRANCH  11  13
ENDBRANCH   7   9
ENDBRANCH   1   7
BRANCH   4  18
HETATM   18  C   UNL     1     -41.525 -52.170  12.025  1.00  0.00     0.169 A 
HETATM   19  N   UNL     1     -40.938 -53.242  11.548  1.00  0.00    -0.279 N 
HETATM   20  N   UNL     1     -40.933 -54.271  12.462  1.00  0.00    -0.296 N 
ATOM     21  HN  UNL     1     -40.535 -53.305  10.613  1.00  0.00     0.189 HD
HETATM   22  C   UNL     1     -41.499 -53.926  13.601  1.00  0.00     0.066 A 
ATOM     23  HN  UNL     1     -40.536 -55.193  12.280  1.00  0.00     0.187 HD
HETATM   24  C   UNL     1     -41.563 -54.790  14.800  1.00  0.00     0.078 C 
HETATM   25  S   UNL     1     -42.150 -52.332  13.604  1.00  0.00    -0.038 SA
ENDBRANCH   4  18
TORSDOF 4
ENDMDL
MODEL 7
REMARK VINA RESULT:      -6.1      4.278      5.930
REMARK  4 active torsions:
REMARK  status: ('A' for Active; 'I' for Inactive)
REMARK    1  A    between atoms: C_2  and  N_3 
REMARK    2  A    between atoms: C_2  and  C_15 
REMARK       I    between atoms: N_3  and  C_4 
REMARK       I    between atoms: C_4  and  N_6 
REMARK    3  A    between atoms: N_6  and  C_7 
REMARK       I    between atoms: C_15  and  N_17 
REMARK    4  A    between atoms: N_17  and  C_18 
ROOT
HETATM    1  N   UNL     1     -43.999 -53.148  13.204  1.00  0.00    -0.330 N 
HETATM    2  C   UNL     1     -43.076 -54.072  13.579  1.00  0.00     0.322 C 
HETATM    3  O   UNL     1     -43.376 -55.076  14.222  1.00  0.00    -0.247 OA
HETATM    4  N   UNL     1     -41.770 -53.817  13.294  1.00  0.00    -0.288 N 
HETATM    5  H   UNL     1     -43.680 -52.357  12.651  1.00  0.00     0.165 HD
HETATM    6  H   UNL     1     -41.095 -54.469  13.665  1.00  0.00     0.172 HD
ENDROOT
BRANCH   1   7
HETATM    7  C   UNL     1     -45.439 -53.300  13.392  1.00  0.00     0.174 C 
HETATM    8  C   UNL     1     -46.173 -52.308  12.487  1.00  0.00     0.042 C 
BRANCH   7   9
HETATM    9  C   UNL     1     -45.931 -53.104  14.852  1.00  0.00     0.240 C 
HETATM   10  O   UNL     1     -45.976 -54.041  15.650  1.00  0.00    -0.271 OA
HETATM   11  N   UNL     1     -46.177 -51.804  15.248  1.00  0.00    -0.355 N 
HETATM   12  H   UNL     1     -45.805 -51.072  14.650  1.00  0.00     0.162 HD
BRANCH  11  13
HETATM   13  C   UNL     1     -46.453 -51.497  16.640  1.00  0.00     0.084 C 
HETATM   14  C   UNL     1     -47.927 -51.193  16.914  1.00  0.00     0.025 C 
HETATM   15  C   UNL     1     -47.950 -50.052  17.932  1.00  0.00     0.002 C 
HETATM   16  C   UNL     1     -46.502 -49.808  18.332  1.00  0.00     0.002 C 
HETATM   17  C   UNL     1     -45.699 -50.261  17.125  1.00  0.00     0.025 C 
ENDBRANCH  11  13
ENDBRANCH   7   9
ENDBRANCH   1   7
BRANCH   4  18
HETATM   18  C   UNL     1     -41.318 -52.720  12.618  1.00  0.00     0.169 A 
HETATM   19  N   UNL     1     -41.251 -52.534  11.321  1.00  0.00    -0.279 N 
HETATM   20  N   UNL     1     -40.818 -51.265  11.010  1.00  0.00    -0.296 N 
ATOM     21  HN  UNL     1     -41.490 -53.243  10.627  1.00  0.00     0.189 HD
HETATM   22  C   UNL     1     -40.595 -50.538  12.086  1.00  0.00     0.066 A 
ATOM     23  HN  UNL     1     -40.685 -50.926  10.057  1.00  0.00     0.187 HD
HETATM   24  C   UNL     1     -40.208 -49.111  12.068  1.00  0.00     0.078 C 
HETATM   25  S   UNL     1     -40.829 -51.389  13.566  1.00  0.00    -0.038 SA
ENDBRANCH   4  18
TORSDOF 4
ENDMDL
MODEL 8
REMARK VINA RESULT:      -6.0      1.710      2.160
REMARK  4 active torsions:
REMARK  status: ('A' for Active; 'I' for Inactive)
REMARK    1  A    between atoms: C_2  and  N_3 
REMARK    2  A    between atoms: C_2  and  C_15 
REMARK       I    between atoms: N_3  and  C_4 
REMARK       I    between atoms: C_4  and  N_6 
REMARK    3  A    between atoms: N_6  and  C_7 
REMARK       I    between atoms: C_15  and  N_17 
REMARK    4  A    between atoms: N_17  and  C_18 
ROOT
HETATM    1  N   UNL     1     -41.037 -49.776  12.723  1.00  0.00    -0.330 N 
HETATM    2  C   UNL     1     -40.272 -48.656  12.794  1.00  0.00     0.322 C 
HETATM    3  O   UNL     1     -39.406 -48.507  13.653  1.00  0.00    -0.247 OA
HETATM    4  N   UNL     1     -40.545 -47.644  11.926  1.00  0.00    -0.288 N 
HETATM    5  H   UNL     1     -41.716 -49.839  11.968  1.00  0.00     0.165 HD
HETATM    6  H   UNL     1     -40.028 -46.787  12.059  1.00  0.00     0.172 HD
ENDROOT
BRANCH   1   7
HETATM    7  C   UNL     1     -40.837 -50.965  13.548  1.00  0.00     0.174 C 
HETATM    8  C   UNL     1     -39.864 -51.911  12.842  1.00  0.00     0.042 C 
BRANCH   7   9
HETATM    9  C   UNL     1     -42.133 -51.745  13.893  1.00  0.00     0.240 C 
HETATM   10  O   UNL     1     -42.121 -52.958  14.103  1.00  0.00    -0.271 OA
HETATM   11  N   UNL     1     -43.271 -50.988  14.093  1.00  0.00    -0.355 N 
HETATM   12  H   UNL     1     -43.132 -49.991  14.227  1.00  0.00     0.162 HD
BRANCH  11  13
HETATM   13  C   UNL     1     -44.484 -51.600  14.605  1.00  0.00     0.084 C 
HETATM   14  C   UNL     1     -45.603 -51.694  13.566  1.00  0.00     0.025 C 
HETATM   15  C   UNL     1     -46.906 -51.391  14.306  1.00  0.00     0.002 C 
HETATM   16  C   UNL     1     -46.540 -51.262  15.778  1.00  0.00     0.002 C 
HETATM   17  C   UNL     1     -45.088 -50.814  15.766  1.00  0.00     0.025 C 
ENDBRANCH  11  13
ENDBRANCH   7   9
ENDBRANCH   1   7
BRANCH   4  18
HETATM   18  C   UNL     1     -41.504 -47.685  10.956  1.00  0.00     0.169 A 
HETATM   19  N   UNL     1     -41.488 -48.345   9.821  1.00  0.00    -0.279 N 
HETATM   20  N   UNL     1     -42.674 -48.210   9.136  1.00  0.00    -0.296 N 
ATOM     21  HN  UNL     1     -40.693 -48.891   9.488  1.00  0.00     0.189 HD
HETATM   22  C   UNL     1     -43.545 -47.470   9.792  1.00  0.00     0.066 A 
ATOM     23  HN  UNL     1     -42.858 -48.634   8.227  1.00  0.00     0.187 HD
HETATM   24  C   UNL     1     -44.934 -47.222   9.349  1.00  0.00     0.078 C 
HETATM   25  S   UNL     1     -42.941 -46.820  11.268  1.00  0.00    -0.038 SA
ENDBRANCH   4  18
TORSDOF 4
ENDMDL
MODEL 9
REMARK VINA RESULT:      -5.8      3.821      5.358
REMARK  4 active torsions:
REMARK  status: ('A' for Active; 'I' for Inactive)
REMARK    1  A    between atoms: C_2  and  N_3 
REMARK    2  A    between atoms: C_2  and  C_15 
REMARK       I    between atoms: N_3  and  C_4 
REMARK       I    between atoms: C_4  and  N_6 
REMARK    3  A    between atoms: N_6  and  C_7 
REMARK       I    between atoms: C_15  and  N_17 
REMARK    4  A    between atoms: N_17  and  C_18 
ROOT
HETATM    1  N   UNL     1     -41.970 -51.260  12.543  1.00  0.00    -0.330 N 
HETATM    2  C   UNL     1     -40.842 -51.757  11.972  1.00  0.00     0.322 C 
HETATM    3  O   UNL     1     -40.505 -52.932  12.101  1.00  0.00    -0.247 OA
HETATM    4  N   UNL     1     -40.031 -50.889  11.307  1.00  0.00    -0.288 N 
HETATM    5  H   UNL     1     -42.199 -50.284  12.369  1.00  0.00     0.165 HD
HETATM    6  H   UNL     1     -39.154 -51.262  10.973  1.00  0.00     0.172 HD
ENDROOT
BRANCH   1   7
HETATM    7  C   UNL     1     -42.964 -52.068  13.244  1.00  0.00     0.174 C 
HETATM    8  C   UNL     1     -44.248 -51.254  13.413  1.00  0.00     0.042 C 
BRANCH   7   9
HETATM    9  C   UNL     1     -42.515 -52.592  14.635  1.00  0.00     0.240 C 
HETATM   10  O   UNL     1     -42.876 -52.045  15.678  1.00  0.00    -0.271 OA
HETATM   11  N   UNL     1     -41.813 -53.780  14.647  1.00  0.00    -0.355 N 
HETATM   12  H   UNL     1     -41.843 -54.331  13.794  1.00  0.00     0.162 HD
BRANCH  11  13
HETATM   13  C   UNL     1     -41.515 -54.449  15.901  1.00  0.00     0.084 C 
HETATM   14  C   UNL     1     -40.076 -54.958  15.992  1.00  0.00     0.025 C 
HETATM   15  C   UNL     1     -40.142 -56.312  16.700  1.00  0.00     0.002 C 
HETATM   16  C   UNL     1     -41.591 -56.501  17.127  1.00  0.00     0.002 C 
HETATM   17  C   UNL     1     -42.386 -55.684  16.123  1.00  0.00     0.025 C 
ENDBRANCH  11  13
ENDBRANCH   7   9
ENDBRANCH   1   7
BRANCH   4  18
HETATM   18  C   UNL     1     -40.288 -49.561  11.130  1.00  0.00     0.169 A 
HETATM   19  N   UNL     1     -41.092 -48.994  10.261  1.00  0.00    -0.279 N 
HETATM   20  N   UNL     1     -41.155 -47.631  10.439  1.00  0.00    -0.296 N 
ATOM     21  HN  UNL     1     -41.606 -49.503   9.542  1.00  0.00     0.189 HD
HETATM   22  C   UNL     1     -40.412 -47.226  11.449  1.00  0.00     0.066 A 
ATOM     23  HN  UNL     1     -41.714 -47.006   9.857  1.00  0.00     0.187 HD
HETATM   24  C   UNL     1     -40.348 -45.831  11.935  1.00  0.00     0.078 C 
HETATM   25  S   UNL     1     -39.517 -48.486  12.208  1.00  0.00    -0.038 SA
ENDBRANCH   4  18
TORSDOF 4
ENDMDL
