MODEL 1
REMARK VINA RESULT:      -6.3      0.000      0.000
REMARK  6 active torsions:
REMARK  status: ('A' for Active; 'I' for Inactive)
REMARK    1  A    between atoms: CA_2  and  C_4 
REMARK    2  A    between atoms: CA_2  and  N_3 
REMARK       I    between atoms: N_3  and  C_9 
REMARK    3  A    between atoms: C_4  and  OXT_6 
REMARK    4  A    between atoms: C_9  and  C_11 
REMARK    5  A    between atoms: C_11  and  C_12 
REMARK    6  A    between atoms: C_15  and  C_18 
ROOT
HETATM    1  C   UNK A   0     -42.619 -48.369  12.308  1.00  0.00     0.160 C 
ENDROOT
BRANCH   1   2
HETATM    2  C   UNK A   0     -42.822 -48.026  10.845  1.00  0.00     0.224 C 
ATOM      3  N   ALA A   1     -44.057 -47.500  10.538  1.00  0.00    -0.347 N 
ATOM      4  H   ALA A   1     -44.709 -47.248  11.278  1.00  0.00     0.163 HD
HETATM    5  O   UNK A   0     -41.970 -48.235   9.983  1.00  0.00    -0.273 OA
BRANCH   3   6
ATOM      6  CA  ALA A   1     -44.452 -47.189   9.169  1.00  0.00     0.178 C 
ATOM      7  CB  ALA A   1     -45.962 -47.017   9.056  1.00  0.00     0.043 C 
BRANCH   6   8
ATOM      8  C   ALA A   1     -43.758 -45.894   8.740  1.00  0.00     0.163 C 
ATOM      9  O   ALA A   1     -44.134 -44.779   9.077  1.00  0.00    -0.648 OA
BRANCH   8  10
ATOM     10  OXT ALA A   1     -42.696 -46.085   7.923  1.00  0.00    -0.775 OA
ATOM     11  HXT ALA A   1     -42.864 -46.689   7.175  1.00  0.00     0.167 HD
ENDBRANCH   8  10
ENDBRANCH   6   8
ENDBRANCH   3   6
ENDBRANCH   1   2
BRANCH   1  12
HETATM   12  C   UNK A   0     -42.981 -49.780  12.628  1.00  0.00     0.025 A 
HETATM   13  C   UNK A   0     -42.133 -50.869  12.659  1.00  0.00     0.077 A 
HETATM   14  S   UNK A   0     -43.012 -52.296  12.993  1.00  0.00    -0.086 SA
HETATM   15  C   UNK A   0     -44.477 -51.382  13.056  1.00  0.00     0.058 A 
HETATM   16  N   UNK A   0     -44.315 -50.087  12.860  1.00  0.00    -0.356 N 
ATOM     17  HN  UNK A   0     -45.071 -49.402  12.876  1.00  0.00     0.166 HD
BRANCH  15  18
HETATM   18  C   UNK A   0     -45.827 -52.055  13.302  1.00  0.00    -0.002 C 
HETATM   19  C   UNK A   0     -45.649 -53.560  13.574  1.00  0.00     0.021 C 
HETATM   20  C   UNK A   0     -46.513 -51.426  14.534  1.00  0.00     0.021 C 
HETATM   21  C   UNK A   0     -46.762 -51.857  12.092  1.00  0.00     0.021 C 
ENDBRANCH  15  18
ENDBRANCH   1  12
TORSDOF 6
ENDMDL
MODEL 2
REMARK VINA RESULT:      -6.1      2.590      4.563
REMARK  6 active torsions:
REMARK  status: ('A' for Active; 'I' for Inactive)
REMARK    1  A    between atoms: CA_2  and  C_4 
REMARK    2  A    between atoms: CA_2  and  N_3 
REMARK       I    between atoms: N_3  and  C_9 
REMARK    3  A    between atoms: C_4  and  OXT_6 
REMARK    4  A    between atoms: C_9  and  C_11 
REMARK    5  A    between atoms: C_11  and  C_12 
REMARK    6  A    between atoms: C_15  and  C_18 
ROOT
HETATM    1  C   UNK A   0     -42.840 -48.440  12.169  1.00  0.00     0.160 C 
ENDROOT
BRANCH   1   2
HETATM    2  C   UNK A   0     -43.018 -47.986  10.733  1.00  0.00     0.224 C 
ATOM      3  N   ALA A   1     -44.244 -47.425  10.449  1.00  0.00    -0.347 N 
ATOM      4  H   ALA A   1     -44.904 -47.222  11.198  1.00  0.00     0.163 HD
HETATM    5  O   UNK A   0     -42.156 -48.139   9.869  1.00  0.00    -0.273 OA
BRANCH   3   6
ATOM      6  CA  ALA A   1     -44.616 -47.008   9.103  1.00  0.00     0.178 C 
ATOM      7  CB  ALA A   1     -46.108 -46.711   9.010  1.00  0.00     0.043 C 
BRANCH   6   8
ATOM      8  C   ALA A   1     -43.823 -45.749   8.743  1.00  0.00     0.163 C 
ATOM      9  O   ALA A   1     -44.118 -44.627   9.131  1.00  0.00    -0.648 OA
BRANCH   8  10
ATOM     10  OXT ALA A   1     -42.770 -45.979   7.924  1.00  0.00    -0.775 OA
ATOM     11  HXT ALA A   1     -42.961 -45.854   6.974  1.00  0.00     0.167 HD
ENDBRANCH   8  10
ENDBRANCH   6   8
ENDBRANCH   3   6
ENDBRANCH   1   2
BRANCH   1  12
HETATM   12  C   UNK A   0     -41.773 -49.472  12.323  1.00  0.00     0.025 A 
HETATM   13  C   UNK A   0     -41.949 -50.824  12.538  1.00  0.00     0.077 A 
HETATM   14  S   UNK A   0     -40.437 -51.595  12.733  1.00  0.00    -0.086 SA
HETATM   15  C   UNK A   0     -39.635 -50.076  12.541  1.00  0.00     0.058 A 
HETATM   16  N   UNK A   0     -40.447 -49.059  12.324  1.00  0.00    -0.356 N 
ATOM     17  HN  UNK A   0     -40.141 -48.097  12.176  1.00  0.00     0.166 HD
BRANCH  15  18
HETATM   18  C   UNK A   0     -38.114 -49.959  12.641  1.00  0.00    -0.002 C 
HETATM   19  C   UNK A   0     -37.712 -48.757  13.515  1.00  0.00     0.021 C 
HETATM   20  C   UNK A   0     -37.528 -51.233  13.286  1.00  0.00     0.021 C 
HETATM   21  C   UNK A   0     -37.487 -49.811  11.241  1.00  0.00     0.021 C 
ENDBRANCH  15  18
ENDBRANCH   1  12
TORSDOF 6
ENDMDL
MODEL 3
REMARK VINA RESULT:      -5.9      1.453      1.801
REMARK  6 active torsions:
REMARK  status: ('A' for Active; 'I' for Inactive)
REMARK    1  A    between atoms: CA_2  and  C_4 
REMARK    2  A    between atoms: CA_2  and  N_3 
REMARK       I    between atoms: N_3  and  C_9 
REMARK    3  A    between atoms: C_4  and  OXT_6 
REMARK    4  A    between atoms: C_9  and  C_11 
REMARK    5  A    between atoms: C_11  and  C_12 
REMARK    6  A    between atoms: C_15  and  C_18 
ROOT
HETATM    1  C   UNK A   0     -41.718 -49.516  12.072  1.00  0.00     0.160 C 
ENDROOT
BRANCH   1   2
HETATM    2  C   UNK A   0     -42.667 -48.421  11.625  1.00  0.00     0.224 C 
ATOM      3  N   ALA A   1     -42.822 -48.308  10.261  1.00  0.00    -0.347 N 
ATOM      4  H   ALA A   1     -42.423 -49.007   9.637  1.00  0.00     0.163 HD
HETATM    5  O   UNK A   0     -43.230 -47.660  12.410  1.00  0.00    -0.273 OA
BRANCH   3   6
ATOM      6  CA  ALA A   1     -43.633 -47.259   9.654  1.00  0.00     0.178 C 
ATOM      7  CB  ALA A   1     -42.836 -45.970   9.493  1.00  0.00     0.043 C 
BRANCH   6   8
ATOM      8  C   ALA A   1     -44.107 -47.740   8.281  1.00  0.00     0.163 C 
ATOM      9  O   ALA A   1     -43.349 -48.039   7.367  1.00  0.00    -0.648 OA
BRANCH   8  10
ATOM     10  OXT ALA A   1     -45.453 -47.780   8.148  1.00  0.00    -0.775 OA
ATOM     11  HXT ALA A   1     -45.767 -47.853   7.226  1.00  0.00     0.167 HD
ENDBRANCH   8  10
ENDBRANCH   6   8
ENDBRANCH   3   6
ENDBRANCH   1   2
BRANCH   1  12
HETATM   12  C   UNK A   0     -42.425 -50.764  12.485  1.00  0.00     0.025 A 
HETATM   13  C   UNK A   0     -41.909 -52.044  12.506  1.00  0.00     0.077 A 
HETATM   14  S   UNK A   0     -43.114 -53.162  12.972  1.00  0.00    -0.086 SA
HETATM   15  C   UNK A   0     -44.262 -51.876  13.098  1.00  0.00     0.058 A 
HETATM   16  N   UNK A   0     -43.768 -50.681  12.829  1.00  0.00    -0.356 N 
ATOM     17  HN  UNK A   0     -44.302 -49.814  12.868  1.00  0.00     0.166 HD
BRANCH  15  18
HETATM   18  C   UNK A   0     -45.720 -52.141  13.475  1.00  0.00    -0.002 C 
HETATM   19  C   UNK A   0     -45.935 -53.627  13.818  1.00  0.00     0.021 C 
HETATM   20  C   UNK A   0     -46.104 -51.305  14.714  1.00  0.00     0.021 C 
HETATM   21  C   UNK A   0     -46.661 -51.736  12.324  1.00  0.00     0.021 C 
ENDBRANCH  15  18
ENDBRANCH   1  12
TORSDOF 6
ENDMDL
MODEL 4
REMARK VINA RESULT:      -5.5      1.902      2.232
REMARK  6 active torsions:
REMARK  status: ('A' for Active; 'I' for Inactive)
REMARK    1  A    between atoms: CA_2  and  C_4 
REMARK    2  A    between atoms: CA_2  and  N_3 
REMARK       I    between atoms: N_3  and  C_9 
REMARK    3  A    between atoms: C_4  and  OXT_6 
REMARK    4  A    between atoms: C_9  and  C_11 
REMARK    5  A    between atoms: C_11  and  C_12 
REMARK    6  A    between atoms: C_15  and  C_18 
ROOT
HETATM    1  C   UNK A   0     -43.185 -48.371  12.520  1.00  0.00     0.160 C 
ENDROOT
BRANCH   1   2
HETATM    2  C   UNK A   0     -42.842 -47.487  11.336  1.00  0.00     0.224 C 
ATOM      3  N   ALA A   1     -43.602 -47.708  10.208  1.00  0.00    -0.347 N 
ATOM      4  H   ALA A   1     -44.410 -48.326  10.243  1.00  0.00     0.163 HD
HETATM    5  O   UNK A   0     -41.930 -46.663  11.357  1.00  0.00    -0.273 OA
BRANCH   3   6
ATOM      6  CA  ALA A   1     -43.355 -47.007   8.954  1.00  0.00     0.178 C 
ATOM      7  CB  ALA A   1     -43.664 -47.894   7.755  1.00  0.00     0.043 C 
BRANCH   6   8
ATOM      8  C   ALA A   1     -44.241 -45.760   8.907  1.00  0.00     0.163 C 
ATOM      9  O   ALA A   1     -43.811 -44.618   9.001  1.00  0.00    -0.648 OA
BRANCH   8  10
ATOM     10  OXT ALA A   1     -45.561 -46.029   8.780  1.00  0.00    -0.775 OA
ATOM     11  HXT ALA A   1     -46.040 -45.432   8.174  1.00  0.00     0.167 HD
ENDBRANCH   8  10
ENDBRANCH   6   8
ENDBRANCH   3   6
ENDBRANCH   1   2
BRANCH   1  12
HETATM   12  C   UNK A   0     -42.497 -49.694  12.475  1.00  0.00     0.025 A 
HETATM   13  C   UNK A   0     -41.296 -49.986  11.861  1.00  0.00     0.077 A 
HETATM   14  S   UNK A   0     -40.947 -51.653  12.003  1.00  0.00    -0.086 SA
HETATM   15  C   UNK A   0     -42.431 -51.893  12.857  1.00  0.00     0.058 A 
HETATM   16  N   UNK A   0     -43.133 -50.791  13.042  1.00  0.00    -0.356 N 
ATOM     17  HN  UNK A   0     -44.024 -50.750  13.537  1.00  0.00     0.166 HD
BRANCH  15  18
HETATM   18  C   UNK A   0     -42.867 -53.282  13.324  1.00  0.00    -0.002 C 
HETATM   19  C   UNK A   0     -41.708 -54.289  13.205  1.00  0.00     0.021 C 
HETATM   20  C   UNK A   0     -43.299 -53.227  14.805  1.00  0.00     0.021 C 
HETATM   21  C   UNK A   0     -44.070 -53.780  12.501  1.00  0.00     0.021 C 
ENDBRANCH  15  18
ENDBRANCH   1  12
TORSDOF 6
ENDMDL
MODEL 5
REMARK VINA RESULT:      -5.4      4.000      5.358
REMARK  6 active torsions:
REMARK  status: ('A' for Active; 'I' for Inactive)
REMARK    1  A    between atoms: CA_2  and  C_4 
REMARK    2  A    between atoms: CA_2  and  N_3 
REMARK       I    between atoms: N_3  and  C_9 
REMARK    3  A    between atoms: C_4  and  OXT_6 
REMARK    4  A    between atoms: C_9  and  C_11 
REMARK    5  A    between atoms: C_11  and  C_12 
REMARK    6  A    between atoms: C_15  and  C_18 
ROOT
HETATM    1  C   UNK A   0     -40.212 -45.633  10.581  1.00  0.00     0.160 C 
ENDROOT
BRANCH   1   2
HETATM    2  C   UNK A   0     -41.674 -45.637  10.177  1.00  0.00     0.224 C 
ATOM      3  N   ALA A   1     -42.107 -46.798   9.577  1.00  0.00    -0.347 N 
ATOM      4  H   ALA A   1     -41.505 -47.618   9.545  1.00  0.00     0.163 HD
HETATM    5  O   UNK A   0     -42.414 -44.667  10.333  1.00  0.00    -0.273 OA
BRANCH   3   6
ATOM      6  CA  ALA A   1     -43.460 -46.945   9.052  1.00  0.00     0.178 C 
ATOM      7  CB  ALA A   1     -43.465 -47.740   7.753  1.00  0.00     0.043 C 
BRANCH   6   8
ATOM      8  C   ALA A   1     -44.314 -47.668  10.096  1.00  0.00     0.163 C 
ATOM      9  O   ALA A   1     -43.942 -47.892  11.240  1.00  0.00    -0.648 OA
BRANCH   8  10
ATOM     10  OXT ALA A   1     -45.521 -48.071   9.635  1.00  0.00    -0.775 OA
ATOM     11  HXT ALA A   1     -45.767 -48.982   9.886  1.00  0.00     0.167 HD
ENDBRANCH   8  10
ENDBRANCH   6   8
ENDBRANCH   3   6
ENDBRANCH   1   2
BRANCH   1  12
HETATM   12  C   UNK A   0     -39.915 -46.584  11.692  1.00  0.00     0.025 A 
HETATM   13  C   UNK A   0     -40.084 -46.362  13.044  1.00  0.00     0.077 A 
HETATM   14  S   UNK A   0     -39.530 -47.708  13.940  1.00  0.00    -0.086 SA
HETATM   15  C   UNK A   0     -39.076 -48.500  12.473  1.00  0.00     0.058 A 
HETATM   16  N   UNK A   0     -39.341 -47.810  11.380  1.00  0.00    -0.356 N 
ATOM     17  HN  UNK A   0     -39.150 -48.134  10.432  1.00  0.00     0.166 HD
BRANCH  15  18
HETATM   18  C   UNK A   0     -38.408 -49.876  12.483  1.00  0.00    -0.002 C 
HETATM   19  C   UNK A   0     -37.443 -50.026  11.293  1.00  0.00     0.021 C 
HETATM   20  C   UNK A   0     -37.594 -50.057  13.782  1.00  0.00     0.021 C 
HETATM   21  C   UNK A   0     -39.467 -50.995  12.432  1.00  0.00     0.021 C 
ENDBRANCH  15  18
ENDBRANCH   1  12
TORSDOF 6
ENDMDL
MODEL 6
REMARK VINA RESULT:      -5.3      3.600      4.616
REMARK  6 active torsions:
REMARK  status: ('A' for Active; 'I' for Inactive)
REMARK    1  A    between atoms: CA_2  and  C_4 
REMARK    2  A    between atoms: CA_2  and  N_3 
REMARK       I    between atoms: N_3  and  C_9 
REMARK    3  A    between atoms: C_4  and  OXT_6 
REMARK    4  A    between atoms: C_9  and  C_11 
REMARK    5  A    between atoms: C_11  and  C_12 
REMARK    6  A    between atoms: C_15  and  C_18 
ROOT
HETATM    1  C   UNK A   0     -41.215 -53.101  12.638  1.00  0.00     0.160 C 
ENDROOT
BRANCH   1   2
HETATM    2  C   UNK A   0     -40.616 -51.742  12.946  1.00  0.00     0.224 C 
ATOM      3  N   ALA A   1     -39.914 -51.169  11.909  1.00  0.00    -0.347 N 
ATOM      4  H   ALA A   1     -39.929 -51.589  10.981  1.00  0.00     0.163 HD
HETATM    5  O   UNK A   0     -40.710 -51.202  14.046  1.00  0.00    -0.273 OA
BRANCH   3   6
ATOM      6  CA  ALA A   1     -39.205 -49.903  12.055  1.00  0.00     0.178 C 
ATOM      7  CB  ALA A   1     -37.795 -49.991  11.482  1.00  0.00     0.043 C 
BRANCH   6   8
ATOM      8  C   ALA A   1     -39.987 -48.815  11.316  1.00  0.00     0.163 C 
ATOM      9  O   ALA A   1     -39.904 -47.622  11.579  1.00  0.00    -0.648 OA
BRANCH   8  10
ATOM     10  OXT ALA A   1     -40.814 -49.289  10.355  1.00  0.00    -0.775 OA
ATOM     11  HXT ALA A   1     -40.429 -49.995   9.801  1.00  0.00     0.167 HD
ENDBRANCH   8  10
ENDBRANCH   6   8
ENDBRANCH   3   6
ENDBRANCH   1   2
BRANCH   1  12
HETATM   12  C   UNK A   0     -42.436 -53.393  13.444  1.00  0.00     0.025 A 
HETATM   13  C   UNK A   0     -42.678 -54.516  14.209  1.00  0.00     0.077 A 
HETATM   14  S   UNK A   0     -44.247 -54.447  14.884  1.00  0.00    -0.086 SA
HETATM   15  C   UNK A   0     -44.521 -52.932  14.098  1.00  0.00     0.058 A 
HETATM   16  N   UNK A   0     -43.495 -52.496  13.391  1.00  0.00    -0.356 N 
ATOM     17  HN  UNK A   0     -43.482 -51.616  12.875  1.00  0.00     0.166 HD
BRANCH  15  18
HETATM   18  C   UNK A   0     -45.858 -52.201  14.219  1.00  0.00    -0.002 C 
HETATM   19  C   UNK A   0     -46.281 -51.603  12.865  1.00  0.00     0.021 C 
HETATM   20  C   UNK A   0     -46.958 -53.186  14.669  1.00  0.00     0.021 C 
HETATM   21  C   UNK A   0     -45.771 -51.080  15.273  1.00  0.00     0.021 C 
ENDBRANCH  15  18
ENDBRANCH   1  12
TORSDOF 6
ENDMDL
MODEL 7
REMARK VINA RESULT:      -5.3      3.227      4.751
REMARK  6 active torsions:
REMARK  status: ('A' for Active; 'I' for Inactive)
REMARK    1  A    between atoms: CA_2  and  C_4 
REMARK    2  A    between atoms: CA_2  and  N_3 
REMARK       I    between atoms: N_3  and  C_9 
REMARK    3  A    between atoms: C_4  and  OXT_6 
REMARK    4  A    between atoms: C_9  and  C_11 
REMARK    5  A    between atoms: C_11  and  C_12 
REMARK    6  A    between atoms: C_15  and  C_18 
ROOT
HETATM    1  C   UNK A   0     -42.713 -48.414  12.456  1.00  0.00     0.160 C 
ENDROOT
BRANCH   1   2
HETATM    2  C   UNK A   0     -42.822 -48.132  10.970  1.00  0.00     0.224 C 
ATOM      3  N   ALA A   1     -44.078 -47.768  10.539  1.00  0.00    -0.347 N 
ATOM      4  H   ALA A   1     -44.820 -47.581  11.211  1.00  0.00     0.163 HD
HETATM    5  O   UNK A   0     -41.876 -48.255  10.194  1.00  0.00    -0.273 OA
BRANCH   3   6
ATOM      6  CA  ALA A   1     -44.382 -47.539   9.132  1.00  0.00     0.178 C 
ATOM      7  CB  ALA A   1     -45.837 -47.867   8.821  1.00  0.00     0.043 C 
BRANCH   6   8
ATOM      8  C   ALA A   1     -44.111 -46.068   8.805  1.00  0.00     0.163 C 
ATOM      9  O   ALA A   1     -43.050 -45.658   8.354  1.00  0.00    -0.648 OA
BRANCH   8  10
ATOM     10  OXT ALA A   1     -45.145 -45.243   9.087  1.00  0.00    -0.775 OA
ATOM     11  HXT ALA A   1     -45.843 -45.219   8.404  1.00  0.00     0.167 HD
ENDBRANCH   8  10
ENDBRANCH   6   8
ENDBRANCH   3   6
ENDBRANCH   1   2
BRANCH   1  12
HETATM   12  C   UNK A   0     -41.305 -48.386  12.951  1.00  0.00     0.025 A 
HETATM   13  C   UNK A   0     -40.599 -47.282  13.384  1.00  0.00     0.077 A 
HETATM   14  S   UNK A   0     -38.994 -47.721  13.776  1.00  0.00    -0.086 SA
HETATM   15  C   UNK A   0     -39.329 -49.355  13.324  1.00  0.00     0.058 A 
HETATM   16  N   UNK A   0     -40.570 -49.563  12.925  1.00  0.00    -0.356 N 
ATOM     17  HN  UNK A   0     -40.939 -50.469  12.635  1.00  0.00     0.166 HD
BRANCH  15  18
HETATM   18  C   UNK A   0     -38.248 -50.435  13.379  1.00  0.00    -0.002 C 
HETATM   19  C   UNK A   0     -37.489 -50.520  12.042  1.00  0.00     0.021 C 
HETATM   20  C   UNK A   0     -37.226 -50.102  14.486  1.00  0.00     0.021 C 
HETATM   21  C   UNK A   0     -38.867 -51.808  13.708  1.00  0.00     0.021 C 
ENDBRANCH  15  18
ENDBRANCH   1  12
TORSDOF 6
ENDMDL
MODEL 8
REMARK VINA RESULT:      -5.2      4.619      5.511
REMARK  6 active torsions:
REMARK  status: ('A' for Active; 'I' for Inactive)
REMARK    1  A    between atoms: CA_2  and  C_4 
REMARK    2  A    between atoms: CA_2  and  N_3 
REMARK       I    between atoms: N_3  and  C_9 
REMARK    3  A    between atoms: C_4  and  OXT_6 
REMARK    4  A    between atoms: C_9  and  C_11 
REMARK    5  A    between atoms: C_11  and  C_12 
REMARK    6  A    between atoms: C_15  and  C_18 
ROOT
HETATM    1  C   UNK A   0     -40.676 -52.999  14.299  1.00  0.00     0.160 C 
ENDROOT
BRANCH   1   2
HETATM    2  C   UNK A   0     -40.372 -52.096  13.119  1.00  0.00     0.224 C 
ATOM      3  N   ALA A   1     -39.325 -51.224  13.311  1.00  0.00    -0.347 N 
ATOM      4  H   ALA A   1     -38.736 -51.298  14.138  1.00  0.00     0.163 HD
HETATM    5  O   UNK A   0     -41.031 -52.106  12.081  1.00  0.00    -0.273 OA
BRANCH   3   6
ATOM      6  CA  ALA A   1     -38.947 -50.229  12.313  1.00  0.00     0.178 C 
ATOM      7  CB  ALA A   1     -38.754 -48.857  12.948  1.00  0.00     0.043 C 
BRANCH   6   8
ATOM      8  C   ALA A   1     -37.642 -50.672  11.649  1.00  0.00     0.163 C 
ATOM      9  O   ALA A   1     -36.864 -51.474  12.149  1.00  0.00    -0.648 OA
BRANCH   8  10
ATOM     10  OXT ALA A   1     -37.399 -50.074  10.460  1.00  0.00    -0.775 OA
ATOM     11  HXT ALA A   1     -36.702 -49.390  10.485  1.00  0.00     0.167 HD
ENDBRANCH   8  10
ENDBRANCH   6   8
ENDBRANCH   3   6
ENDBRANCH   1   2
BRANCH   1  12
HETATM   12  C   UNK A   0     -42.115 -53.386  14.378  1.00  0.00     0.025 A 
HETATM   13  C   UNK A   0     -42.636 -54.664  14.346  1.00  0.00     0.077 A 
HETATM   14  S   UNK A   0     -44.343 -54.610  14.382  1.00  0.00    -0.086 SA
HETATM   15  C   UNK A   0     -44.290 -52.883  14.416  1.00  0.00     0.058 A 
HETATM   16  N   UNK A   0     -43.071 -52.379  14.421  1.00  0.00    -0.356 N 
ATOM     17  HN  UNK A   0     -42.858 -51.382  14.453  1.00  0.00     0.166 HD
BRANCH  15  18
HETATM   18  C   UNK A   0     -45.570 -52.046  14.420  1.00  0.00    -0.002 C 
HETATM   19  C   UNK A   0     -45.813 -51.409  13.039  1.00  0.00     0.021 C 
HETATM   20  C   UNK A   0     -46.783 -52.940  14.752  1.00  0.00     0.021 C 
HETATM   21  C   UNK A   0     -45.493 -50.940  15.491  1.00  0.00     0.021 C 
ENDBRANCH  15  18
ENDBRANCH   1  12
TORSDOF 6
ENDMDL
MODEL 9
REMARK VINA RESULT:      -5.1      3.609      6.447
REMARK  6 active torsions:
REMARK  status: ('A' for Active; 'I' for Inactive)
REMARK    1  A    between atoms: CA_2  and  C_4 
REMARK    2  A    between atoms: CA_2  and  N_3 
REMARK       I    between atoms: N_3  and  C_9 
REMARK    3  A    between atoms: C_4  and  OXT_6 
REMARK    4  A    between atoms: C_9  and  C_11 
REMARK    5  A    between atoms: C_11  and  C_12 
REMARK    6  A    between atoms: C_15  and  C_18 
ROOT
HETATM    1  C   UNK A   0     -42.964 -49.387  13.402  1.00  0.00     0.160 C 
ENDROOT
BRANCH   1   2
HETATM    2  C   UNK A   0     -42.509 -50.816  13.176  1.00  0.00     0.224 C 
ATOM      3  N   ALA A   1     -41.690 -51.326  14.159  1.00  0.00    -0.347 N 
ATOM      4  H   ALA A   1     -41.533 -50.807  15.020  1.00  0.00     0.163 HD
HETATM    5  O   UNK A   0     -42.809 -51.464  12.175  1.00  0.00    -0.273 OA
BRANCH   3   6
ATOM      6  CA  ALA A   1     -41.094 -52.654  14.064  1.00  0.00     0.178 C 
ATOM      7  CB  ALA A   1     -42.160 -53.725  13.870  1.00  0.00     0.043 C 
BRANCH   6   8
ATOM      8  C   ALA A   1     -40.130 -52.674  12.876  1.00  0.00     0.163 C 
ATOM      9  O   ALA A   1     -39.065 -52.070  12.855  1.00  0.00    -0.648 OA
BRANCH   8  10
ATOM     10  OXT ALA A   1     -40.570 -53.400  11.822  1.00  0.00    -0.775 OA
ATOM     11  HXT ALA A   1     -40.079 -53.249  10.992  1.00  0.00     0.167 HD
ENDBRANCH   8  10
ENDBRANCH   6   8
ENDBRANCH   3   6
ENDBRANCH   1   2
BRANCH   1  12
HETATM   12  C   UNK A   0     -42.690 -48.499  12.235  1.00  0.00     0.025 A 
HETATM   13  C   UNK A   0     -41.598 -47.674  12.056  1.00  0.00     0.077 A 
HETATM   14  S   UNK A   0     -41.757 -46.784  10.606  1.00  0.00    -0.086 SA
HETATM   15  C   UNK A   0     -43.286 -47.535  10.311  1.00  0.00     0.058 A 
HETATM   16  N   UNK A   0     -43.644 -48.412  11.230  1.00  0.00    -0.356 N 
ATOM     17  HN  UNK A   0     -44.508 -48.954  11.204  1.00  0.00     0.166 HD
BRANCH  15  18
HETATM   18  C   UNK A   0     -44.130 -47.174   9.088  1.00  0.00    -0.002 C 
HETATM   19  C   UNK A   0     -43.562 -47.831   7.816  1.00  0.00     0.021 C 
HETATM   20  C   UNK A   0     -45.576 -47.677   9.279  1.00  0.00     0.021 C 
HETATM   21  C   UNK A   0     -44.185 -45.646   8.898  1.00  0.00     0.021 C 
ENDBRANCH  15  18
ENDBRANCH   1  12
TORSDOF 6
ENDMDL
