MODEL 1
REMARK VINA RESULT:      -5.8      0.000      0.000
REMARK  2 active torsions:
REMARK  status: ('A' for Active; 'I' for Inactive)
REMARK       I    between atoms: N_2  and  C_3 
REMARK       I    between atoms: C_3  and  N_5 
REMARK    1  A    between atoms: N_5  and  C_6 
REMARK    2  A    between atoms: C_11  and  C_13 
ROOT
HETATM    1  C   UNL     1     -41.503 -52.503  12.635  1.00  0.00     0.169 A 
HETATM    2  N   UNL     1     -42.285 -52.583  11.589  1.00  0.00    -0.279 N 
ATOM      3  HN  UNL     1     -41.994 -52.352  10.639  1.00  0.00     0.189 HD
HETATM    4  N   UNL     1     -43.544 -53.015  11.923  1.00  0.00    -0.296 N 
ATOM      5  HN  UNL     1     -44.296 -53.146  11.246  1.00  0.00     0.187 HD
HETATM    6  C   UNL     1     -43.678 -53.244  13.213  1.00  0.00     0.074 A 
HETATM    7  S   UNL     1     -42.223 -52.986  14.107  1.00  0.00    -0.037 SA
ENDROOT
BRANCH   1   8
HETATM    8  N   UNL     1     -40.194 -52.111  12.702  1.00  0.00    -0.288 N 
HETATM    9  C   UNL     1     -39.788 -50.963  12.065  1.00  0.00     0.321 C 
HETATM   10  N   UNL     1     -38.412 -50.819  12.116  1.00  0.00    -0.347 N 
HETATM   11  O   UNL     1     -40.505 -50.131  11.531  1.00  0.00    -0.247 OA
HETATM   12  C   UNL     1     -37.832 -49.672  11.456  1.00  0.00     0.151 C 
HETATM   13  H   UNL     1     -37.892 -51.682  12.059  1.00  0.00     0.163 HD
HETATM   14  H   UNL     1     -39.608 -52.522  13.409  1.00  0.00     0.172 HD
ENDBRANCH   1   8
BRANCH   6  15
HETATM   15  C   UNL     1     -44.962 -53.681  13.875  1.00  0.00     0.044 C 
HETATM   16  C   UNL     1     -46.198 -53.062  13.193  1.00  0.00     0.011 C 
HETATM   17  C   UNL     1     -46.390 -51.570  13.487  1.00  0.00     0.001 C 
HETATM   18  C   UNL     1     -46.332 -51.257  14.979  1.00  0.00     0.000 C 
HETATM   19  C   UNL     1     -45.102 -51.855  15.656  1.00  0.00     0.001 C 
HETATM   20  C   UNL     1     -44.968 -53.350  15.376  1.00  0.00     0.011 C 
ENDBRANCH   6  15
TORSDOF 2
ENDMDL
MODEL 2
REMARK VINA RESULT:      -5.8      5.039      6.739
REMARK  2 active torsions:
REMARK  status: ('A' for Active; 'I' for Inactive)
REMARK       I    between atoms: N_2  and  C_3 
REMARK       I    between atoms: C_3  and  N_5 
REMARK    1  A    between atoms: N_5  and  C_6 
REMARK    2  A    between atoms: C_11  and  C_13 
ROOT
HETATM    1  C   UNL     1     -41.515 -48.688  11.193  1.00  0.00     0.169 A 
HETATM    2  N   UNL     1     -40.930 -49.541  10.392  1.00  0.00    -0.279 N 
ATOM      3  HN  UNL     1     -41.384 -49.970   9.586  1.00  0.00     0.189 HD
HETATM    4  N   UNL     1     -39.633 -49.789  10.766  1.00  0.00    -0.296 N 
ATOM      5  HN  UNL     1     -39.011 -50.423  10.264  1.00  0.00     0.187 HD
HETATM    6  C   UNL     1     -39.278 -49.120  11.843  1.00  0.00     0.074 A 
HETATM    7  S   UNL     1     -40.522 -48.084  12.445  1.00  0.00    -0.037 SA
ENDROOT
BRANCH   1   8
HETATM    8  N   UNL     1     -42.793 -48.201  11.147  1.00  0.00    -0.288 N 
HETATM    9  C   UNL     1     -43.307 -47.734   9.961  1.00  0.00     0.321 C 
HETATM   10  N   UNL     1     -44.545 -47.145  10.146  1.00  0.00    -0.347 N 
HETATM   11  O   UNL     1     -42.793 -47.825   8.857  1.00  0.00    -0.247 OA
HETATM   12  C   UNL     1     -45.197 -46.573   8.991  1.00  0.00     0.151 C 
HETATM   13  H   UNL     1     -44.652 -46.644  11.016  1.00  0.00     0.163 HD
HETATM   14  H   UNL     1     -43.415 -48.419  11.907  1.00  0.00     0.172 HD
ENDBRANCH   1   8
BRANCH   6  15
HETATM   15  C   UNL     1     -37.929 -49.229  12.511  1.00  0.00     0.044 C 
HETATM   16  C   UNL     1     -37.429 -50.686  12.559  1.00  0.00     0.011 C 
HETATM   17  C   UNL     1     -38.164 -51.563  13.580  1.00  0.00     0.001 C 
HETATM   18  C   UNL     1     -38.221 -50.923  14.963  1.00  0.00     0.000 C 
HETATM   19  C   UNL     1     -38.729 -49.484  14.924  1.00  0.00     0.001 C 
HETATM   20  C   UNL     1     -37.947 -48.631  13.927  1.00  0.00     0.011 C 
ENDBRANCH   6  15
TORSDOF 2
ENDMDL
MODEL 3
REMARK VINA RESULT:      -5.8      2.829      4.002
REMARK  2 active torsions:
REMARK  status: ('A' for Active; 'I' for Inactive)
REMARK       I    between atoms: N_2  and  C_3 
REMARK       I    between atoms: C_3  and  N_5 
REMARK    1  A    between atoms: N_5  and  C_6 
REMARK    2  A    between atoms: C_11  and  C_13 
ROOT
HETATM    1  C   UNL     1     -39.930 -49.883  11.538  1.00  0.00     0.169 A 
HETATM    2  N   UNL     1     -40.692 -50.687  10.842  1.00  0.00    -0.279 N 
ATOM      3  HN  UNL     1     -41.117 -50.440   9.949  1.00  0.00     0.189 HD
HETATM    4  N   UNL     1     -40.850 -51.903  11.459  1.00  0.00    -0.296 N 
ATOM      5  HN  UNL     1     -41.406 -52.666  11.071  1.00  0.00     0.187 HD
HETATM    6  C   UNL     1     -40.208 -51.979  12.606  1.00  0.00     0.074 A 
HETATM    7  S   UNL     1     -39.309 -50.553  12.982  1.00  0.00    -0.037 SA
ENDROOT
BRANCH   1   8
HETATM    8  N   UNL     1     -39.548 -48.599  11.255  1.00  0.00    -0.288 N 
HETATM    9  C   UNL     1     -40.501 -47.623  11.085  1.00  0.00     0.321 C 
HETATM   10  N   UNL     1     -39.933 -46.436  10.654  1.00  0.00    -0.347 N 
HETATM   11  O   UNL     1     -41.699 -47.726  11.296  1.00  0.00    -0.247 OA
HETATM   12  C   UNL     1     -40.817 -45.323  10.396  1.00  0.00     0.151 C 
HETATM   13  H   UNL     1     -39.150 -46.543  10.026  1.00  0.00     0.163 HD
HETATM   14  H   UNL     1     -38.592 -48.338  11.419  1.00  0.00     0.172 HD
ENDBRANCH   1   8
BRANCH   6  15
HETATM   15  C   UNL     1     -40.240 -53.175  13.526  1.00  0.00     0.044 C 
HETATM   16  C   UNL     1     -41.250 -54.238  13.050  1.00  0.00     0.011 C 
HETATM   17  C   UNL     1     -42.716 -53.848  13.276  1.00  0.00     0.001 C 
HETATM   18  C   UNL     1     -42.983 -53.391  14.707  1.00  0.00     0.000 C 
HETATM   19  C   UNL     1     -41.995 -52.328  15.178  1.00  0.00     0.001 C 
HETATM   20  C   UNL     1     -40.546 -52.769  14.976  1.00  0.00     0.011 C 
ENDBRANCH   6  15
TORSDOF 2
ENDMDL
MODEL 4
REMARK VINA RESULT:      -5.7      2.463      6.368
REMARK  2 active torsions:
REMARK  status: ('A' for Active; 'I' for Inactive)
REMARK       I    between atoms: N_2  and  C_3 
REMARK       I    between atoms: C_3  and  N_5 
REMARK    1  A    between atoms: N_5  and  C_6 
REMARK    2  A    between atoms: C_11  and  C_13 
ROOT
HETATM    1  C   UNL     1     -42.464 -51.799  12.219  1.00  0.00     0.169 A 
HETATM    2  N   UNL     1     -41.537 -52.358  11.484  1.00  0.00    -0.279 N 
ATOM      3  HN  UNL     1     -41.633 -53.273  11.043  1.00  0.00     0.189 HD
HETATM    4  N   UNL     1     -40.421 -51.566  11.378  1.00  0.00    -0.296 N 
ATOM      5  HN  UNL     1     -39.592 -51.826  10.843  1.00  0.00     0.187 HD
HETATM    6  C   UNL     1     -40.536 -50.435  12.041  1.00  0.00     0.074 A 
HETATM    7  S   UNL     1     -42.071 -50.245  12.808  1.00  0.00    -0.037 SA
ENDROOT
BRANCH   1   8
HETATM    8  N   UNL     1     -43.702 -52.277  12.553  1.00  0.00    -0.288 N 
HETATM    9  C   UNL     1     -43.825 -53.522  13.123  1.00  0.00     0.321 C 
HETATM   10  N   UNL     1     -45.153 -53.891  13.245  1.00  0.00    -0.347 N 
HETATM   11  O   UNL     1     -42.917 -54.239  13.514  1.00  0.00    -0.247 OA
HETATM   12  C   UNL     1     -45.441 -55.195  13.796  1.00  0.00     0.151 C 
HETATM   13  H   UNL     1     -45.751 -53.578  12.494  1.00  0.00     0.163 HD
HETATM   14  H   UNL     1     -44.466 -51.627  12.610  1.00  0.00     0.172 HD
ENDBRANCH   1   8
BRANCH   6  15
HETATM   15  C   UNL     1     -39.451 -49.391  12.144  1.00  0.00     0.044 C 
HETATM   16  C   UNL     1     -38.082 -49.940  11.696  1.00  0.00     0.011 C 
HETATM   17  C   UNL     1     -37.441 -50.908  12.697  1.00  0.00     0.001 C 
HETATM   18  C   UNL     1     -37.405 -50.342  14.113  1.00  0.00     0.000 C 
HETATM   19  C   UNL     1     -38.760 -49.810  14.567  1.00  0.00     0.001 C 
HETATM   20  C   UNL     1     -39.348 -48.817  13.566  1.00  0.00     0.011 C 
ENDBRANCH   6  15
TORSDOF 2
ENDMDL
MODEL 5
REMARK VINA RESULT:      -5.5      4.280      6.742
REMARK  2 active torsions:
REMARK  status: ('A' for Active; 'I' for Inactive)
REMARK       I    between atoms: N_2  and  C_3 
REMARK       I    between atoms: C_3  and  N_5 
REMARK    1  A    between atoms: N_5  and  C_6 
REMARK    2  A    between atoms: C_11  and  C_13 
ROOT
HETATM    1  C   UNL     1     -40.496 -49.391  11.066  1.00  0.00     0.169 A 
HETATM    2  N   UNL     1     -39.340 -48.872  11.393  1.00  0.00    -0.279 N 
ATOM      3  HN  UNL     1     -38.516 -49.421  11.638  1.00  0.00     0.189 HD
HETATM    4  N   UNL     1     -39.370 -47.500  11.367  1.00  0.00    -0.296 N 
ATOM      5  HN  UNL     1     -38.565 -46.913  11.588  1.00  0.00     0.187 HD
HETATM    6  C   UNL     1     -40.549 -47.023  11.027  1.00  0.00     0.074 A 
HETATM    7  S   UNL     1     -41.704 -48.254  10.660  1.00  0.00    -0.037 SA
ENDROOT
BRANCH   1   8
HETATM    8  N   UNL     1     -40.854 -50.709  10.983  1.00  0.00    -0.288 N 
HETATM    9  C   UNL     1     -40.722 -51.526  12.081  1.00  0.00     0.321 C 
HETATM   10  N   UNL     1     -40.986 -52.846  11.760  1.00  0.00    -0.347 N 
HETATM   11  O   UNL     1     -40.437 -51.182  13.217  1.00  0.00    -0.247 OA
HETATM   12  C   UNL     1     -40.851 -53.832  12.807  1.00  0.00     0.151 C 
HETATM   13  H   UNL     1     -40.687 -53.127  10.837  1.00  0.00     0.163 HD
HETATM   14  H   UNL     1     -41.434 -50.999  10.214  1.00  0.00     0.172 HD
ENDBRANCH   1   8
BRANCH   6  15
HETATM   15  C   UNL     1     -40.890 -45.554  10.961  1.00  0.00     0.044 C 
HETATM   16  C   UNL     1     -39.846 -44.689  11.694  1.00  0.00     0.011 C 
HETATM   17  C   UNL     1     -39.922 -44.783  13.223  1.00  0.00     0.001 C 
HETATM   18  C   UNL     1     -41.335 -44.559  13.750  1.00  0.00     0.000 C 
HETATM   19  C   UNL     1     -42.371 -45.423  13.038  1.00  0.00     0.001 C 
HETATM   20  C   UNL     1     -42.294 -45.272  11.520  1.00  0.00     0.011 C 
ENDBRANCH   6  15
TORSDOF 2
ENDMDL
MODEL 6
REMARK VINA RESULT:      -5.4      3.015      5.669
REMARK  2 active torsions:
REMARK  status: ('A' for Active; 'I' for Inactive)
REMARK       I    between atoms: N_2  and  C_3 
REMARK       I    between atoms: C_3  and  N_5 
REMARK    1  A    between atoms: N_5  and  C_6 
REMARK    2  A    between atoms: C_11  and  C_13 
ROOT
HETATM    1  C   UNL     1     -41.942 -52.491  12.651  1.00  0.00     0.169 A 
HETATM    2  N   UNL     1     -41.415 -52.493  11.453  1.00  0.00    -0.279 N 
ATOM      3  HN  UNL     1     -41.363 -53.317  10.854  1.00  0.00     0.189 HD
HETATM    4  N   UNL     1     -40.942 -51.254  11.099  1.00  0.00    -0.296 N 
ATOM      5  HN  UNL     1     -40.500 -51.053  10.202  1.00  0.00     0.187 HD
HETATM    6  C   UNL     1     -41.119 -50.354  12.043  1.00  0.00     0.074 A 
HETATM    7  S   UNL     1     -41.942 -50.971  13.431  1.00  0.00    -0.037 SA
ENDROOT
BRANCH   1   8
HETATM    8  N   UNL     1     -42.508 -53.526  13.343  1.00  0.00    -0.288 N 
HETATM    9  C   UNL     1     -43.802 -53.905  13.073  1.00  0.00     0.321 C 
HETATM   10  N   UNL     1     -44.246 -54.857  13.975  1.00  0.00    -0.347 N 
HETATM   11  O   UNL     1     -44.503 -53.507  12.156  1.00  0.00    -0.247 OA
HETATM   12  C   UNL     1     -45.605 -55.328  13.840  1.00  0.00     0.151 C 
HETATM   13  H   UNL     1     -43.901 -54.744  14.917  1.00  0.00     0.163 HD
HETATM   14  H   UNL     1     -41.904 -54.148  13.853  1.00  0.00     0.172 HD
ENDBRANCH   1   8
BRANCH   6  15
HETATM   15  C   UNL     1     -40.657 -48.920  11.954  1.00  0.00     0.044 C 
HETATM   16  C   UNL     1     -41.031 -48.118  13.216  1.00  0.00     0.011 C 
HETATM   17  C   UNL     1     -42.522 -47.779  13.320  1.00  0.00     0.001 C 
HETATM   18  C   UNL     1     -43.065 -47.141  12.045  1.00  0.00     0.000 C 
HETATM   19  C   UNL     1     -42.711 -47.939  10.794  1.00  0.00     0.001 C 
HETATM   20  C   UNL     1     -41.212 -48.221  10.703  1.00  0.00     0.011 C 
ENDBRANCH   6  15
TORSDOF 2
ENDMDL
MODEL 7
REMARK VINA RESULT:      -5.4      1.703      2.047
REMARK  2 active torsions:
REMARK  status: ('A' for Active; 'I' for Inactive)
REMARK       I    between atoms: N_2  and  C_3 
REMARK       I    between atoms: C_3  and  N_5 
REMARK    1  A    between atoms: N_5  and  C_6 
REMARK    2  A    between atoms: C_11  and  C_13 
ROOT
HETATM    1  C   UNL     1     -43.036 -53.078  12.737  1.00  0.00     0.169 A 
HETATM    2  N   UNL     1     -42.696 -54.055  13.538  1.00  0.00    -0.279 N 
ATOM      3  HN  UNL     1     -41.774 -54.491  13.547  1.00  0.00     0.189 HD
HETATM    4  N   UNL     1     -43.729 -54.423  14.364  1.00  0.00    -0.296 N 
ATOM      5  HN  UNL     1     -43.659 -55.164  15.062  1.00  0.00     0.187 HD
HETATM    6  C   UNL     1     -44.821 -53.716  14.159  1.00  0.00     0.074 A 
HETATM    7  S   UNL     1     -44.628 -52.497  12.951  1.00  0.00    -0.037 SA
ENDROOT
BRANCH   1   8
HETATM    8  N   UNL     1     -42.287 -52.449  11.780  1.00  0.00    -0.288 N 
HETATM    9  C   UNL     1     -41.350 -51.513  12.148  1.00  0.00     0.321 C 
HETATM   10  N   UNL     1     -40.809 -50.881  11.042  1.00  0.00    -0.347 N 
HETATM   11  O   UNL     1     -40.986 -51.252  13.284  1.00  0.00    -0.247 OA
HETATM   12  C   UNL     1     -39.832 -49.842  11.273  1.00  0.00     0.151 C 
HETATM   13  H   UNL     1     -41.454 -50.730  10.281  1.00  0.00     0.163 HD
HETATM   14  H   UNL     1     -42.253 -52.852  10.859  1.00  0.00     0.172 HD
ENDBRANCH   1   8
BRANCH   6  15
HETATM   15  C   UNL     1     -46.126 -53.930  14.885  1.00  0.00     0.044 C 
HETATM   16  C   UNL     1     -47.152 -52.828  14.556  1.00  0.00     0.011 C 
HETATM   17  C   UNL     1     -46.847 -51.476  15.211  1.00  0.00     0.001 C 
HETATM   18  C   UNL     1     -46.587 -51.600  16.709  1.00  0.00     0.000 C 
HETATM   19  C   UNL     1     -45.561 -52.679  17.040  1.00  0.00     0.001 C 
HETATM   20  C   UNL     1     -45.921 -54.022  16.406  1.00  0.00     0.011 C 
ENDBRANCH   6  15
TORSDOF 2
ENDMDL
MODEL 8
REMARK VINA RESULT:      -5.3      3.856      5.741
REMARK  2 active torsions:
REMARK  status: ('A' for Active; 'I' for Inactive)
REMARK       I    between atoms: N_2  and  C_3 
REMARK       I    between atoms: C_3  and  N_5 
REMARK    1  A    between atoms: N_5  and  C_6 
REMARK    2  A    between atoms: C_11  and  C_13 
ROOT
HETATM    1  C   UNL     1     -41.401 -50.935  12.010  1.00  0.00     0.169 A 
HETATM    2  N   UNL     1     -40.712 -50.571  10.959  1.00  0.00    -0.279 N 
ATOM      3  HN  UNL     1     -40.047 -51.174  10.475  1.00  0.00     0.189 HD
HETATM    4  N   UNL     1     -40.989 -49.279  10.588  1.00  0.00    -0.296 N 
ATOM      5  HN  UNL     1     -40.555 -48.814   9.790  1.00  0.00     0.187 HD
HETATM    6  C   UNL     1     -41.876 -48.703  11.372  1.00  0.00     0.074 A 
HETATM    7  S   UNL     1     -42.476 -49.750  12.609  1.00  0.00    -0.037 SA
ENDROOT
BRANCH   1   8
HETATM    8  N   UNL     1     -41.395 -52.134  12.670  1.00  0.00    -0.288 N 
HETATM    9  C   UNL     1     -40.209 -52.663  13.120  1.00  0.00     0.321 C 
HETATM   10  N   UNL     1     -40.385 -53.941  13.619  1.00  0.00    -0.347 N 
HETATM   11  O   UNL     1     -39.119 -52.111  13.126  1.00  0.00    -0.247 OA
HETATM   12  C   UNL     1     -39.216 -54.643  14.097  1.00  0.00     0.151 C 
HETATM   13  H   UNL     1     -41.074 -54.496  13.133  1.00  0.00     0.163 HD
HETATM   14  H   UNL     1     -42.265 -52.485  13.032  1.00  0.00     0.172 HD
ENDBRANCH   1   8
BRANCH   6  15
HETATM   15  C   UNL     1     -42.339 -47.273  11.235  1.00  0.00     0.044 C 
HETATM   16  C   UNL     1     -41.361 -46.433  10.390  1.00  0.00     0.011 C 
HETATM   17  C   UNL     1     -40.052 -46.089  11.110  1.00  0.00     0.001 C 
HETATM   18  C   UNL     1     -40.288 -45.490  12.492  1.00  0.00     0.000 C 
HETATM   19  C   UNL     1     -41.243 -46.325  13.339  1.00  0.00     0.001 C 
HETATM   20  C   UNL     1     -42.552 -46.612  12.606  1.00  0.00     0.011 C 
ENDBRANCH   6  15
TORSDOF 2
ENDMDL
MODEL 9
REMARK VINA RESULT:      -5.2      1.426      1.507
REMARK  2 active torsions:
REMARK  status: ('A' for Active; 'I' for Inactive)
REMARK       I    between atoms: N_2  and  C_3 
REMARK       I    between atoms: C_3  and  N_5 
REMARK    1  A    between atoms: N_5  and  C_6 
REMARK    2  A    between atoms: C_11  and  C_13 
ROOT
HETATM    1  C   UNL     1     -41.805 -52.263  12.964  1.00  0.00     0.169 A 
HETATM    2  N   UNL     1     -42.490 -51.221  12.569  1.00  0.00    -0.279 N 
ATOM      3  HN  UNL     1     -42.074 -50.321  12.332  1.00  0.00     0.189 HD
HETATM    4  N   UNL     1     -43.836 -51.485  12.513  1.00  0.00    -0.296 N 
ATOM      5  HN  UNL     1     -44.535 -50.800  12.223  1.00  0.00     0.187 HD
HETATM    6  C   UNL     1     -44.128 -52.717  12.872  1.00  0.00     0.074 A 
HETATM    7  S   UNL     1     -42.737 -53.664  13.261  1.00  0.00    -0.037 SA
ENDROOT
BRANCH   1   8
HETATM    8  N   UNL     1     -40.454 -52.386  13.146  1.00  0.00    -0.288 N 
HETATM    9  C   UNL     1     -39.719 -51.307  13.574  1.00  0.00     0.321 C 
HETATM   10  N   UNL     1     -38.362 -51.580  13.548  1.00  0.00    -0.347 N 
HETATM   11  O   UNL     1     -40.155 -50.234  13.963  1.00  0.00    -0.247 OA
HETATM   12  C   UNL     1     -37.456 -50.525  13.938  1.00  0.00     0.151 C 
HETATM   13  H   UNL     1     -38.062 -52.171  12.787  1.00  0.00     0.163 HD
HETATM   14  H   UNL     1     -40.062 -53.310  13.206  1.00  0.00     0.172 HD
ENDBRANCH   1   8
BRANCH   6  15
HETATM   15  C   UNL     1     -45.528 -53.275  12.953  1.00  0.00     0.044 C 
HETATM   16  C   UNL     1     -46.592 -52.159  12.943  1.00  0.00     0.011 C 
HETATM   17  C   UNL     1     -46.678 -51.369  14.255  1.00  0.00     0.001 C 
HETATM   18  C   UNL     1     -46.801 -52.277  15.474  1.00  0.00     0.000 C 
HETATM   19  C   UNL     1     -45.742 -53.375  15.497  1.00  0.00     0.001 C 
HETATM   20  C   UNL     1     -45.713 -54.167  14.191  1.00  0.00     0.011 C 
ENDBRANCH   6  15
TORSDOF 2
ENDMDL
