MODEL 1
REMARK VINA RESULT:      -6.7      0.000      0.000
REMARK  2 active torsions:
REMARK  status: ('A' for Active; 'I' for Inactive)
REMARK    1  A    between atoms: C_4  and  N_5 
REMARK       I    between atoms: N_5  and  C_6 
REMARK       I    between atoms: C_6  and  N_8 
REMARK    2  A    between atoms: N_8  and  C_9 
ROOT
HETATM    1  N   UNL     1     -41.549 -47.912  10.103  1.00  0.00    -0.293 N 
HETATM    2  C   UNL     1     -41.206 -48.694  11.162  1.00  0.00     0.322 C 
HETATM    3  O   UNL     1     -40.068 -48.642  11.612  1.00  0.00    -0.247 OA
HETATM    4  N   UNL     1     -42.145 -49.584  11.602  1.00  0.00    -0.333 N 
HETATM    5  H   UNL     1     -40.772 -47.411   9.698  1.00  0.00     0.172 HD
HETATM    6  H   UNL     1     -43.102 -49.394  11.306  1.00  0.00     0.165 HD
ENDROOT
BRANCH   1   7
HETATM    7  C   UNL     1     -42.777 -47.802   9.492  1.00  0.00     0.132 A 
HETATM    8  C   UNL     1     -43.963 -47.385  10.138  1.00  0.00     0.084 A 
HETATM    9  C   UNL     1     -44.915 -47.394   9.149  1.00  0.00     0.076 A 
HETATM   10  C   UNL     1     -46.338 -47.027   9.078  1.00  0.00     0.079 C 
HETATM   11  O   UNL     1     -44.353 -47.825   7.993  1.00  0.00    -0.241 OA
HETATM   12  N   UNL     1     -43.010 -48.067   8.198  1.00  0.00    -0.245 N 
ATOM     13  HN  UNL     1     -42.332 -48.383   7.506  1.00  0.00     0.196 HD
ENDBRANCH   1   7
BRANCH   4  14
HETATM   14  C   UNL     1     -41.885 -50.663  12.558  1.00  0.00     0.044 C 
HETATM   15  C   UNL     1     -43.217 -51.350  12.933  1.00  0.00     0.039 C 
HETATM   16  C   UNL     1     -41.215 -50.091  13.830  1.00  0.00     0.046 C 
HETATM   17  C   UNL     1     -40.643 -51.262  14.631  1.00  0.00     0.143 C 
HETATM   18  S   UNL     1     -40.255 -52.530  13.434  1.00  0.00     0.146 S 
HETATM   19  O   UNL     1     -38.818 -52.655  13.341  1.00  0.00    -0.228 OA
HETATM   20  O   UNL     1     -41.111 -53.673  13.676  1.00  0.00    -0.228 OA
HETATM   21  C   UNL     1     -40.852 -51.653  12.007  1.00  0.00     0.170 C 
ENDBRANCH   4  14
TORSDOF 2
ENDMDL
MODEL 2
REMARK VINA RESULT:      -6.6      1.347      1.764
REMARK  2 active torsions:
REMARK  status: ('A' for Active; 'I' for Inactive)
REMARK    1  A    between atoms: C_4  and  N_5 
REMARK       I    between atoms: N_5  and  C_6 
REMARK       I    between atoms: C_6  and  N_8 
REMARK    2  A    between atoms: N_8  and  C_9 
ROOT
HETATM    1  N   UNL     1     -41.983 -46.801   9.720  1.00  0.00    -0.293 N 
HETATM    2  C   UNL     1     -41.272 -47.327  10.754  1.00  0.00     0.322 C 
HETATM    3  O   UNL     1     -40.273 -46.747  11.160  1.00  0.00    -0.247 OA
HETATM    4  N   UNL     1     -41.668 -48.551  11.215  1.00  0.00    -0.333 N 
HETATM    5  H   UNL     1     -41.547 -45.996   9.292  1.00  0.00     0.172 HD
HETATM    6  H   UNL     1     -42.614 -48.831  10.959  1.00  0.00     0.165 HD
ENDROOT
BRANCH   1   7
HETATM    7  C   UNL     1     -43.143 -47.280   9.158  1.00  0.00     0.132 A 
HETATM    8  C   UNL     1     -44.407 -47.274   9.792  1.00  0.00     0.084 A 
HETATM    9  C   UNL     1     -45.262 -47.808   8.860  1.00  0.00     0.076 A 
HETATM   10  C   UNL     1     -46.712 -48.051   8.804  1.00  0.00     0.079 C 
HETATM   11  O   UNL     1     -44.557 -48.152   7.754  1.00  0.00    -0.241 OA
HETATM   12  N   UNL     1     -43.233 -47.808   7.928  1.00  0.00    -0.245 N 
ATOM     13  HN  UNL     1     -42.475 -47.930   7.257  1.00  0.00     0.196 HD
ENDBRANCH   1   7
BRANCH   4  14
HETATM   14  C   UNL     1     -40.895 -49.378  12.145  1.00  0.00     0.044 C 
HETATM   15  C   UNL     1     -40.731 -48.627  13.486  1.00  0.00     0.039 C 
HETATM   16  C   UNL     1     -39.503 -49.688  11.546  1.00  0.00     0.046 C 
HETATM   17  C   UNL     1     -38.879 -50.822  12.360  1.00  0.00     0.143 C 
HETATM   18  S   UNL     1     -40.247 -51.780  12.993  1.00  0.00     0.146 S 
HETATM   19  O   UNL     1     -40.266 -53.060  12.321  1.00  0.00    -0.228 OA
HETATM   20  O   UNL     1     -40.260 -51.670  14.437  1.00  0.00    -0.228 OA
HETATM   21  C   UNL     1     -41.539 -50.758  12.323  1.00  0.00     0.170 C 
ENDBRANCH   4  14
TORSDOF 2
ENDMDL
MODEL 3
REMARK VINA RESULT:      -6.3      4.511      6.116
REMARK  2 active torsions:
REMARK  status: ('A' for Active; 'I' for Inactive)
REMARK    1  A    between atoms: C_4  and  N_5 
REMARK       I    between atoms: N_5  and  C_6 
REMARK       I    between atoms: C_6  and  N_8 
REMARK    2  A    between atoms: N_8  and  C_9 
ROOT
HETATM    1  N   UNL     1     -41.683 -47.375  10.037  1.00  0.00    -0.293 N 
HETATM    2  C   UNL     1     -41.215 -46.231  10.605  1.00  0.00     0.322 C 
HETATM    3  O   UNL     1     -40.093 -46.211  11.095  1.00  0.00    -0.247 OA
HETATM    4  N   UNL     1     -42.086 -45.181  10.686  1.00  0.00    -0.333 N 
HETATM    5  H   UNL     1     -41.077 -48.173  10.167  1.00  0.00     0.172 HD
HETATM    6  H   UNL     1     -42.896 -45.235  10.069  1.00  0.00     0.165 HD
ENDROOT
BRANCH   1   7
HETATM    7  C   UNL     1     -42.889 -47.578   9.406  1.00  0.00     0.132 A 
HETATM    8  C   UNL     1     -44.153 -47.462  10.030  1.00  0.00     0.084 A 
HETATM    9  C   UNL     1     -45.055 -47.714   9.027  1.00  0.00     0.076 A 
HETATM   10  C   UNL     1     -46.523 -47.711   8.929  1.00  0.00     0.079 C 
HETATM   11  O   UNL     1     -44.383 -48.002   7.884  1.00  0.00    -0.241 OA
HETATM   12  N   UNL     1     -43.027 -47.902   8.113  1.00  0.00    -0.245 N 
ATOM     13  HN  UNL     1     -42.279 -48.046   7.434  1.00  0.00     0.196 HD
ENDBRANCH   1   7
BRANCH   4  14
HETATM   14  C   UNL     1     -41.851 -43.964  11.468  1.00  0.00     0.044 C 
HETATM   15  C   UNL     1     -42.964 -42.936  11.165  1.00  0.00     0.039 C 
HETATM   16  C   UNL     1     -40.472 -43.363  11.109  1.00  0.00     0.046 C 
HETATM   17  C   UNL     1     -40.114 -42.329  12.176  1.00  0.00     0.143 C 
HETATM   18  S   UNL     1     -40.931 -42.865  13.672  1.00  0.00     0.146 S 
HETATM   19  O   UNL     1     -39.930 -43.317  14.611  1.00  0.00    -0.228 OA
HETATM   20  O   UNL     1     -41.933 -41.881  14.029  1.00  0.00    -0.228 OA
HETATM   21  C   UNL     1     -41.740 -44.282  12.965  1.00  0.00     0.170 C 
ENDBRANCH   4  14
TORSDOF 2
ENDMDL
MODEL 4
REMARK VINA RESULT:      -6.2      3.977      6.892
REMARK  2 active torsions:
REMARK  status: ('A' for Active; 'I' for Inactive)
REMARK    1  A    between atoms: C_4  and  N_5 
REMARK       I    between atoms: N_5  and  C_6 
REMARK       I    between atoms: C_6  and  N_8 
REMARK    2  A    between atoms: N_8  and  C_9 
ROOT
HETATM    1  N   UNL     1     -41.080 -49.304  10.495  1.00  0.00    -0.293 N 
HETATM    2  C   UNL     1     -41.412 -47.986  10.547  1.00  0.00     0.322 C 
HETATM    3  O   UNL     1     -42.277 -47.548   9.800  1.00  0.00    -0.247 OA
HETATM    4  N   UNL     1     -40.669 -47.195  11.378  1.00  0.00    -0.333 N 
HETATM    5  H   UNL     1     -41.523 -49.807   9.740  1.00  0.00     0.172 HD
HETATM    6  H   UNL     1     -40.137 -47.689  12.093  1.00  0.00     0.165 HD
ENDROOT
BRANCH   1   7
HETATM    7  C   UNL     1     -40.172 -49.982  11.276  1.00  0.00     0.132 A 
HETATM    8  C   UNL     1     -40.481 -50.621  12.499  1.00  0.00     0.084 A 
HETATM    9  C   UNL     1     -39.296 -51.185  12.901  1.00  0.00     0.076 A 
HETATM   10  C   UNL     1     -38.883 -52.035  14.030  1.00  0.00     0.079 C 
HETATM   11  O   UNL     1     -38.328 -50.875  12.004  1.00  0.00    -0.241 OA
HETATM   12  N   UNL     1     -38.874 -50.136  10.976  1.00  0.00    -0.245 N 
ATOM     13  HN  UNL     1     -38.389 -49.778  10.153  1.00  0.00     0.196 HD
ENDBRANCH   1   7
BRANCH   4  14
HETATM   14  C   UNL     1     -40.715 -45.730  11.391  1.00  0.00     0.044 C 
HETATM   15  C   UNL     1     -39.902 -45.182  10.196  1.00  0.00     0.039 C 
HETATM   16  C   UNL     1     -40.124 -45.195  12.716  1.00  0.00     0.046 C 
HETATM   17  C   UNL     1     -40.510 -43.721  12.844  1.00  0.00     0.143 C 
HETATM   18  S   UNL     1     -42.051 -43.539  11.958  1.00  0.00     0.146 S 
HETATM   19  O   UNL     1     -43.108 -43.293  12.913  1.00  0.00    -0.228 OA
HETATM   20  O   UNL     1     -41.829 -42.675  10.817  1.00  0.00    -0.228 OA
HETATM   21  C   UNL     1     -42.162 -45.222  11.395  1.00  0.00     0.170 C 
ENDBRANCH   4  14
TORSDOF 2
ENDMDL
MODEL 5
REMARK VINA RESULT:      -6.1      4.080      6.052
REMARK  2 active torsions:
REMARK  status: ('A' for Active; 'I' for Inactive)
REMARK    1  A    between atoms: C_4  and  N_5 
REMARK       I    between atoms: N_5  and  C_6 
REMARK       I    between atoms: C_6  and  N_8 
REMARK    2  A    between atoms: N_8  and  C_9 
ROOT
HETATM    1  N   UNL     1     -42.394 -52.769  11.695  1.00  0.00    -0.293 N 
HETATM    2  C   UNL     1     -43.515 -52.867  12.461  1.00  0.00     0.322 C 
HETATM    3  O   UNL     1     -44.402 -53.647  12.141  1.00  0.00    -0.247 OA
HETATM    4  N   UNL     1     -43.625 -51.993  13.506  1.00  0.00    -0.333 N 
HETATM    5  H   UNL     1     -42.441 -53.297  10.835  1.00  0.00     0.172 HD
HETATM    6  H   UNL     1     -42.756 -51.551  13.802  1.00  0.00     0.165 HD
ENDROOT
BRANCH   1   7
HETATM    7  C   UNL     1     -41.283 -51.989  11.913  1.00  0.00     0.132 A 
HETATM    8  C   UNL     1     -40.293 -52.252  12.888  1.00  0.00     0.084 A 
HETATM    9  C   UNL     1     -39.373 -51.247  12.724  1.00  0.00     0.076 A 
HETATM   10  C   UNL     1     -38.077 -50.918  13.339  1.00  0.00     0.079 C 
HETATM   11  O   UNL     1     -39.797 -50.409  11.745  1.00  0.00    -0.241 OA
HETATM   12  N   UNL     1     -40.984 -50.878  11.223  1.00  0.00    -0.245 N 
ATOM     13  HN  UNL     1     -41.525 -50.464  10.465  1.00  0.00     0.196 HD
ENDBRANCH   1   7
BRANCH   4  14
HETATM   14  C   UNL     1     -44.846 -51.783  14.288  1.00  0.00     0.044 C 
HETATM   15  C   UNL     1     -45.978 -51.302  13.352  1.00  0.00     0.039 C 
HETATM   16  C   UNL     1     -44.594 -50.727  15.389  1.00  0.00     0.046 C 
HETATM   17  C   UNL     1     -45.751 -50.798  16.387  1.00  0.00     0.143 C 
HETATM   18  S   UNL     1     -46.340 -52.484  16.334  1.00  0.00     0.146 S 
HETATM   19  O   UNL     1     -45.999 -53.133  17.580  1.00  0.00    -0.228 OA
HETATM   20  O   UNL     1     -47.691 -52.485  15.812  1.00  0.00    -0.228 OA
HETATM   21  C   UNL     1     -45.229 -53.048  15.066  1.00  0.00     0.170 C 
ENDBRANCH   4  14
TORSDOF 2
ENDMDL
MODEL 6
REMARK VINA RESULT:      -6.1      4.968      7.107
REMARK  2 active torsions:
REMARK  status: ('A' for Active; 'I' for Inactive)
REMARK    1  A    between atoms: C_4  and  N_5 
REMARK       I    between atoms: N_5  and  C_6 
REMARK       I    between atoms: C_6  and  N_8 
REMARK    2  A    between atoms: N_8  and  C_9 
ROOT
HETATM    1  N   UNL     1     -43.625 -53.663  12.217  1.00  0.00    -0.293 N 
HETATM    2  C   UNL     1     -44.699 -53.323  12.981  1.00  0.00     0.322 C 
HETATM    3  O   UNL     1     -45.830 -53.560  12.577  1.00  0.00    -0.247 OA
HETATM    4  N   UNL     1     -44.443 -52.629  14.130  1.00  0.00    -0.333 N 
HETATM    5  H   UNL     1     -43.870 -54.003  11.298  1.00  0.00     0.172 HD
HETATM    6  H   UNL     1     -43.482 -52.677  14.466  1.00  0.00     0.165 HD
ENDROOT
BRANCH   1   7
HETATM    7  C   UNL     1     -42.291 -53.516  12.516  1.00  0.00     0.132 A 
HETATM    8  C   UNL     1     -41.614 -54.216  13.543  1.00  0.00     0.084 A 
HETATM    9  C   UNL     1     -40.315 -53.783  13.454  1.00  0.00     0.076 A 
HETATM   10  C   UNL     1     -39.062 -54.117  14.151  1.00  0.00     0.079 C 
HETATM   11  O   UNL     1     -40.219 -52.857  12.469  1.00  0.00    -0.241 OA
HETATM   12  N   UNL     1     -41.449 -52.698  11.867  1.00  0.00    -0.245 N 
ATOM     13  HN  UNL     1     -41.675 -52.082  11.086  1.00  0.00     0.196 HD
ENDBRANCH   1   7
BRANCH   4  14
HETATM   14  C   UNL     1     -45.466 -51.974  14.950  1.00  0.00     0.044 C 
HETATM   15  C   UNL     1     -46.518 -51.316  14.028  1.00  0.00     0.039 C 
HETATM   16  C   UNL     1     -44.813 -50.898  15.849  1.00  0.00     0.046 C 
HETATM   17  C   UNL     1     -45.827 -50.498  16.921  1.00  0.00     0.143 C 
HETATM   18  S   UNL     1     -46.859 -51.934  17.178  1.00  0.00     0.146 S 
HETATM   19  O   UNL     1     -46.573 -52.482  18.485  1.00  0.00    -0.228 OA
HETATM   20  O   UNL     1     -48.207 -51.616  16.756  1.00  0.00    -0.228 OA
HETATM   21  C   UNL     1     -46.093 -52.959  15.943  1.00  0.00     0.170 C 
ENDBRANCH   4  14
TORSDOF 2
ENDMDL
MODEL 7
REMARK VINA RESULT:      -6.0      2.943      3.931
REMARK  2 active torsions:
REMARK  status: ('A' for Active; 'I' for Inactive)
REMARK    1  A    between atoms: C_4  and  N_5 
REMARK       I    between atoms: N_5  and  C_6 
REMARK       I    between atoms: C_6  and  N_8 
REMARK    2  A    between atoms: N_8  and  C_9 
ROOT
HETATM    1  N   UNL     1     -42.611 -49.119  13.050  1.00  0.00    -0.293 N 
HETATM    2  C   UNL     1     -43.404 -50.063  13.627  1.00  0.00     0.322 C 
HETATM    3  O   UNL     1     -43.208 -50.392  14.790  1.00  0.00    -0.247 OA
HETATM    4  N   UNL     1     -44.324 -50.672  12.820  1.00  0.00    -0.333 N 
HETATM    5  H   UNL     1     -41.831 -48.835  13.626  1.00  0.00     0.172 HD
HETATM    6  H   UNL     1     -44.541 -50.181  11.954  1.00  0.00     0.165 HD
ENDROOT
BRANCH   1   7
HETATM    7  C   UNL     1     -42.702 -48.595  11.782  1.00  0.00     0.132 A 
HETATM    8  C   UNL     1     -43.612 -47.586  11.391  1.00  0.00     0.084 A 
HETATM    9  C   UNL     1     -43.325 -47.357  10.069  1.00  0.00     0.076 A 
HETATM   10  C   UNL     1     -43.821 -46.420   9.048  1.00  0.00     0.079 C 
HETATM   11  O   UNL     1     -42.337 -48.197   9.675  1.00  0.00    -0.241 OA
HETATM   12  N   UNL     1     -41.932 -48.963  10.748  1.00  0.00    -0.245 N 
ATOM     13  HN  UNL     1     -41.195 -49.668  10.754  1.00  0.00     0.196 HD
ENDBRANCH   1   7
BRANCH   4  14
HETATM   14  C   UNL     1     -45.092 -51.864  13.189  1.00  0.00     0.044 C 
HETATM   15  C   UNL     1     -46.068 -52.220  12.044  1.00  0.00     0.039 C 
HETATM   16  C   UNL     1     -45.887 -51.600  14.490  1.00  0.00     0.046 C 
HETATM   17  C   UNL     1     -46.376 -52.945  15.027  1.00  0.00     0.143 C 
HETATM   18  S   UNL     1     -45.185 -54.156  14.472  1.00  0.00     0.146 S 
HETATM   19  O   UNL     1     -44.443 -54.634  15.617  1.00  0.00    -0.228 OA
HETATM   20  O   UNL     1     -45.841 -55.060  13.550  1.00  0.00    -0.228 OA
HETATM   21  C   UNL     1     -44.164 -53.030  13.550  1.00  0.00     0.170 C 
ENDBRANCH   4  14
TORSDOF 2
ENDMDL
MODEL 8
REMARK VINA RESULT:      -6.0      2.974      4.255
REMARK  2 active torsions:
REMARK  status: ('A' for Active; 'I' for Inactive)
REMARK    1  A    between atoms: C_4  and  N_5 
REMARK       I    between atoms: N_5  and  C_6 
REMARK       I    between atoms: C_6  and  N_8 
REMARK    2  A    between atoms: N_8  and  C_9 
ROOT
HETATM    1  N   UNL     1     -40.433 -50.484  11.066  1.00  0.00    -0.293 N 
HETATM    2  C   UNL     1     -41.064 -51.387  11.866  1.00  0.00     0.322 C 
HETATM    3  O   UNL     1     -40.663 -52.543  11.908  1.00  0.00    -0.247 OA
HETATM    4  N   UNL     1     -42.193 -50.961  12.507  1.00  0.00    -0.333 N 
HETATM    5  H   UNL     1     -39.723 -50.890  10.474  1.00  0.00     0.172 HD
HETATM    6  H   UNL     1     -42.306 -49.950  12.571  1.00  0.00     0.165 HD
ENDROOT
BRANCH   1   7
HETATM    7  C   UNL     1     -40.708 -49.144  10.919  1.00  0.00     0.132 A 
HETATM    8  C   UNL     1     -40.132 -48.114  11.698  1.00  0.00     0.084 A 
HETATM    9  C   UNL     1     -40.664 -46.957  11.185  1.00  0.00     0.076 A 
HETATM   10  C   UNL     1     -40.479 -45.523  11.456  1.00  0.00     0.079 C 
HETATM   11  O   UNL     1     -41.533 -47.268  10.192  1.00  0.00    -0.241 OA
HETATM   12  N   UNL     1     -41.552 -48.635  10.010  1.00  0.00    -0.245 N 
ATOM     13  HN  UNL     1     -42.098 -49.154   9.323  1.00  0.00     0.196 HD
ENDBRANCH   1   7
BRANCH   4  14
HETATM   14  C   UNL     1     -43.132 -51.840  13.208  1.00  0.00     0.044 C 
HETATM   15  C   UNL     1     -42.497 -52.314  14.535  1.00  0.00     0.039 C 
HETATM   16  C   UNL     1     -43.471 -53.064  12.325  1.00  0.00     0.046 C 
HETATM   17  C   UNL     1     -44.698 -53.753  12.923  1.00  0.00     0.143 C 
HETATM   18  S   UNL     1     -45.625 -52.471  13.753  1.00  0.00     0.146 S 
HETATM   19  O   UNL     1     -46.846 -52.232  13.017  1.00  0.00    -0.228 OA
HETATM   20  O   UNL     1     -45.625 -52.747  15.175  1.00  0.00    -0.228 OA
HETATM   21  C   UNL     1     -44.483 -51.148  13.422  1.00  0.00     0.170 C 
ENDBRANCH   4  14
TORSDOF 2
ENDMDL
MODEL 9
REMARK VINA RESULT:      -5.9      3.625      5.056
REMARK  2 active torsions:
REMARK  status: ('A' for Active; 'I' for Inactive)
REMARK    1  A    between atoms: C_4  and  N_5 
REMARK       I    between atoms: N_5  and  C_6 
REMARK       I    between atoms: C_6  and  N_8 
REMARK    2  A    between atoms: N_8  and  C_9 
ROOT
HETATM    1  N   UNL     1     -43.968 -50.764  12.850  1.00  0.00    -0.293 N 
HETATM    2  C   UNL     1     -42.807 -50.118  13.143  1.00  0.00     0.322 C 
HETATM    3  O   UNL     1     -42.773 -48.895  13.124  1.00  0.00    -0.247 OA
HETATM    4  N   UNL     1     -41.702 -50.896  13.343  1.00  0.00    -0.333 N 
HETATM    5  H   UNL     1     -44.705 -50.154  12.527  1.00  0.00     0.172 HD
HETATM    6  H   UNL     1     -41.887 -51.878  13.545  1.00  0.00     0.165 HD
ENDROOT
BRANCH   1   7
HETATM    7  C   UNL     1     -44.211 -52.119  12.859  1.00  0.00     0.132 A 
HETATM    8  C   UNL     1     -44.989 -52.790  13.830  1.00  0.00     0.084 A 
HETATM    9  C   UNL     1     -44.986 -54.102  13.427  1.00  0.00     0.076 A 
HETATM   10  C   UNL     1     -45.623 -55.337  13.911  1.00  0.00     0.079 C 
HETATM   11  O   UNL     1     -44.225 -54.223  12.311  1.00  0.00    -0.241 OA
HETATM   12  N   UNL     1     -43.751 -52.982  11.942  1.00  0.00    -0.245 N 
ATOM     13  HN  UNL     1     -43.168 -52.764  11.134  1.00  0.00     0.196 HD
ENDBRANCH   1   7
BRANCH   4  14
HETATM   14  C   UNL     1     -40.331 -50.386  13.429  1.00  0.00     0.044 C 
HETATM   15  C   UNL     1     -40.241 -49.347  14.570  1.00  0.00     0.039 C 
HETATM   16  C   UNL     1     -39.927 -49.727  12.089  1.00  0.00     0.046 C 
HETATM   17  C   UNL     1     -38.410 -49.536  12.095  1.00  0.00     0.143 C 
HETATM   18  S   UNL     1     -37.757 -50.830  13.139  1.00  0.00     0.146 S 
HETATM   19  O   UNL     1     -37.045 -51.778  12.311  1.00  0.00    -0.228 OA
HETATM   20  O   UNL     1     -37.151 -50.222  14.305  1.00  0.00    -0.228 OA
HETATM   21  C   UNL     1     -39.325 -51.530  13.600  1.00  0.00     0.170 C 
ENDBRANCH   4  14
TORSDOF 2
ENDMDL
