MODEL 1
REMARK VINA RESULT:      -6.9      0.000      0.000
REMARK  5 active torsions:
REMARK  status: ('A' for Active; 'I' for Inactive)
REMARK    1  A    between atoms: O_1  and  C_2 
REMARK    2  A    between atoms: C_2  and  C_3 
REMARK    3  A    between atoms: C_3  and  N_4 
REMARK       I    between atoms: N_4  and  C_5 
REMARK       I    between atoms: C_5  and  N_7 
REMARK    4  A    between atoms: N_7  and  C_8 
REMARK    5  A    between atoms: C_12  and  C_16 
ROOT
HETATM    1  N   UNL     1     -42.688 -52.036  12.515  1.00  0.00    -0.340 N 
HETATM    2  C   UNL     1     -42.370 -50.701  12.458  1.00  0.00     0.320 C 
HETATM    3  O   UNL     1     -42.671 -49.898  13.331  1.00  0.00    -0.247 OA
HETATM    4  N   UNL     1     -41.587 -50.420  11.358  1.00  0.00    -0.306 N 
HETATM    5  H   UNL     1     -42.886 -52.490  11.631  1.00  0.00     0.164 HD
HETATM    6  H   UNL     1     -41.017 -51.201  11.065  1.00  0.00     0.171 HD
ENDROOT
BRANCH   1   7
HETATM    7  C   UNL     1     -43.357 -52.601  13.679  1.00  0.00     0.162 C 
BRANCH   7   8
HETATM    8  C   UNL     1     -44.664 -53.348  13.322  1.00  0.00     0.074 C 
HETATM    9  C   UNL     1     -45.092 -54.331  14.432  1.00  0.00     0.039 C 
HETATM   10  C   UNL     1     -45.139 -53.790  15.858  1.00  0.00     0.003 C 
HETATM   11  C   UNL     1     -46.187 -52.736  16.212  1.00  0.00     0.000 C 
HETATM   12  C   UNL     1     -47.085 -52.202  15.105  1.00  0.00     0.000 C 
HETATM   13  C   UNL     1     -46.347 -51.481  13.984  1.00  0.00     0.003 C 
HETATM   14  C   UNL     1     -45.811 -52.415  12.909  1.00  0.00     0.039 C 
BRANCH   8  15
HETATM   15  O   UNL     1     -44.382 -54.143  12.141  1.00  0.00    -0.388 OA
HETATM   16  H   UNL     1     -44.484 -53.570  11.361  1.00  0.00     0.210 HD
ENDBRANCH   8  15
ENDBRANCH   7   8
ENDBRANCH   1   7
BRANCH   4  17
HETATM   17  C   UNL     1     -41.076 -49.125  11.135  1.00  0.00     0.067 A 
HETATM   18  C   UNL     1     -39.864 -48.737  11.660  1.00  0.00     0.120 A 
HETATM   19  N   UNL     1     -39.366 -47.486  11.565  1.00  0.00    -0.353 N 
HETATM   20  C   UNL     1     -40.105 -46.578  10.887  1.00  0.00     0.085 A 
ATOM     21  HN  UNL     1     -38.471 -47.236  11.986  1.00  0.00     0.166 HD
HETATM   22  N   UNL     1     -41.265 -46.886  10.274  1.00  0.00    -0.353 N 
HETATM   23  C   UNL     1     -41.731 -48.145  10.421  1.00  0.00     0.120 A 
ATOM     24  HN  UNL     1     -41.772 -46.194   9.722  1.00  0.00     0.166 HD
BRANCH  20  25
HETATM   25  C   UNL     1     -39.660 -45.135  10.876  1.00  0.00     0.053 A 
HETATM   26  C   UNL     1     -39.723 -44.308  12.138  1.00  0.00     0.013 A 
HETATM   27  C   UNL     1     -40.661 -44.012  11.002  1.00  0.00     0.013 A 
ENDBRANCH  20  25
ENDBRANCH   4  17
TORSDOF 5
ENDMDL
MODEL 2
REMARK VINA RESULT:      -6.3      2.592      7.763
REMARK  5 active torsions:
REMARK  status: ('A' for Active; 'I' for Inactive)
REMARK    1  A    between atoms: O_1  and  C_2 
REMARK    2  A    between atoms: C_2  and  C_3 
REMARK    3  A    between atoms: C_3  and  N_4 
REMARK       I    between atoms: N_4  and  C_5 
REMARK       I    between atoms: C_5  and  N_7 
REMARK    4  A    between atoms: N_7  and  C_8 
REMARK    5  A    between atoms: C_12  and  C_16 
ROOT
HETATM    1  N   UNL     1     -40.727 -49.327  10.835  1.00  0.00    -0.340 N 
HETATM    2  C   UNL     1     -41.060 -50.179  11.859  1.00  0.00     0.320 C 
HETATM    3  O   UNL     1     -41.318 -49.802  12.995  1.00  0.00    -0.247 OA
HETATM    4  N   UNL     1     -41.166 -51.480  11.412  1.00  0.00    -0.306 N 
HETATM    5  H   UNL     1     -40.064 -49.677  10.154  1.00  0.00     0.164 HD
HETATM    6  H   UNL     1     -41.443 -51.547  10.443  1.00  0.00     0.171 HD
ENDROOT
BRANCH   1   7
HETATM    7  C   UNL     1     -40.730 -47.883  11.028  1.00  0.00     0.162 C 
BRANCH   7   8
HETATM    8  C   UNL     1     -41.989 -47.198  10.443  1.00  0.00     0.074 C 
HETATM    9  C   UNL     1     -43.175 -47.226  11.429  1.00  0.00     0.039 C 
HETATM   10  C   UNL     1     -42.903 -46.754  12.854  1.00  0.00     0.003 C 
HETATM   11  C   UNL     1     -42.574 -45.281  13.093  1.00  0.00     0.000 C 
HETATM   12  C   UNL     1     -42.443 -44.360  11.889  1.00  0.00     0.000 C 
HETATM   13  C   UNL     1     -41.321 -44.733  10.927  1.00  0.00     0.003 C 
HETATM   14  C   UNL     1     -41.723 -45.786   9.904  1.00  0.00     0.039 C 
BRANCH   8  15
HETATM   15  O   UNL     1     -42.386 -47.974   9.283  1.00  0.00    -0.388 OA
HETATM   16  H   UNL     1     -42.416 -48.912   9.543  1.00  0.00     0.210 HD
ENDBRANCH   8  15
ENDBRANCH   7   8
ENDBRANCH   1   7
BRANCH   4  17
HETATM   17  C   UNL     1     -41.573 -52.519  12.274  1.00  0.00     0.067 A 
HETATM   18  C   UNL     1     -42.905 -52.818  12.451  1.00  0.00     0.120 A 
HETATM   19  N   UNL     1     -43.363 -53.733  13.333  1.00  0.00    -0.353 N 
HETATM   20  C   UNL     1     -42.440 -54.405  14.060  1.00  0.00     0.085 A 
ATOM     21  HN  UNL     1     -44.361 -53.910  13.446  1.00  0.00     0.166 HD
HETATM   22  N   UNL     1     -41.113 -54.234  13.900  1.00  0.00    -0.353 N 
HETATM   23  C   UNL     1     -40.709 -53.289  13.022  1.00  0.00     0.120 A 
ATOM     24  HN  UNL     1     -40.440 -54.796  14.421  1.00  0.00     0.166 HD
BRANCH  20  25
HETATM   25  C   UNL     1     -42.907 -55.331  15.156  1.00  0.00     0.053 A 
HETATM   26  C   UNL     1     -43.038 -54.829  16.575  1.00  0.00     0.013 A 
HETATM   27  C   UNL     1     -41.956 -55.811  16.226  1.00  0.00     0.013 A 
ENDBRANCH  20  25
ENDBRANCH   4  17
TORSDOF 5
ENDMDL
MODEL 3
REMARK VINA RESULT:      -6.2      2.831      3.677
REMARK  5 active torsions:
REMARK  status: ('A' for Active; 'I' for Inactive)
REMARK    1  A    between atoms: O_1  and  C_2 
REMARK    2  A    between atoms: C_2  and  C_3 
REMARK    3  A    between atoms: C_3  and  N_4 
REMARK       I    between atoms: N_4  and  C_5 
REMARK       I    between atoms: C_5  and  N_7 
REMARK    4  A    between atoms: N_7  and  C_8 
REMARK    5  A    between atoms: C_12  and  C_16 
ROOT
HETATM    1  N   UNL     1     -41.806 -50.860  11.662  1.00  0.00    -0.340 N 
HETATM    2  C   UNL     1     -42.061 -49.525  11.859  1.00  0.00     0.320 C 
HETATM    3  O   UNL     1     -42.526 -49.072  12.896  1.00  0.00    -0.247 OA
HETATM    4  N   UNL     1     -41.628 -48.771  10.788  1.00  0.00    -0.306 N 
HETATM    5  H   UNL     1     -41.933 -51.210  10.721  1.00  0.00     0.164 HD
HETATM    6  H   UNL     1     -40.843 -49.181  10.303  1.00  0.00     0.171 HD
ENDROOT
BRANCH   1   7
HETATM    7  C   UNL     1     -42.013 -51.830  12.730  1.00  0.00     0.162 C 
BRANCH   7   8
HETATM    8  C   UNL     1     -40.948 -52.952  12.742  1.00  0.00     0.074 C 
HETATM    9  C   UNL     1     -39.691 -52.551  13.541  1.00  0.00     0.039 C 
HETATM   10  C   UNL     1     -39.911 -51.985  14.941  1.00  0.00     0.003 C 
HETATM   11  C   UNL     1     -40.464 -52.903  16.029  1.00  0.00     0.000 C 
HETATM   12  C   UNL     1     -40.859 -54.324  15.652  1.00  0.00     0.000 C 
HETATM   13  C   UNL     1     -41.981 -54.416  14.625  1.00  0.00     0.003 C 
HETATM   14  C   UNL     1     -41.499 -54.315  13.185  1.00  0.00     0.039 C 
BRANCH   8  15
HETATM   15  O   UNL     1     -40.529 -53.146  11.366  1.00  0.00    -0.388 OA
HETATM   16  H   UNL     1     -41.322 -53.113  10.802  1.00  0.00     0.210 HD
ENDBRANCH   8  15
ENDBRANCH   7   8
ENDBRANCH   1   7
BRANCH   4  17
HETATM   17  C   UNL     1     -41.717 -47.364  10.801  1.00  0.00     0.067 A 
HETATM   18  C   UNL     1     -40.652 -46.585  11.194  1.00  0.00     0.120 A 
HETATM   19  N   UNL     1     -40.705 -45.241  11.320  1.00  0.00    -0.353 N 
HETATM   20  C   UNL     1     -41.876 -44.639  11.013  1.00  0.00     0.085 A 
ATOM     21  HN  UNL     1     -39.896 -44.705  11.633  1.00  0.00     0.166 HD
HETATM   22  N   UNL     1     -42.948 -45.311  10.547  1.00  0.00    -0.353 N 
HETATM   23  C   UNL     1     -42.850 -46.655  10.462  1.00  0.00     0.120 A 
ATOM     24  HN  UNL     1     -43.799 -44.822  10.269  1.00  0.00     0.166 HD
BRANCH  20  25
HETATM   25  C   UNL     1     -42.028 -43.160  11.275  1.00  0.00     0.053 A 
HETATM   26  C   UNL     1     -42.823 -42.673  12.463  1.00  0.00     0.013 A 
HETATM   27  C   UNL     1     -43.353 -42.467  11.073  1.00  0.00     0.013 A 
ENDBRANCH  20  25
ENDBRANCH   4  17
TORSDOF 5
ENDMDL
MODEL 4
REMARK VINA RESULT:      -6.1      1.734      2.749
REMARK  5 active torsions:
REMARK  status: ('A' for Active; 'I' for Inactive)
REMARK    1  A    between atoms: O_1  and  C_2 
REMARK    2  A    between atoms: C_2  and  C_3 
REMARK    3  A    between atoms: C_3  and  N_4 
REMARK       I    between atoms: N_4  and  C_5 
REMARK       I    between atoms: C_5  and  N_7 
REMARK    4  A    between atoms: N_7  and  C_8 
REMARK    5  A    between atoms: C_12  and  C_16 
ROOT
HETATM    1  N   UNL     1     -43.785 -51.145  12.900  1.00  0.00    -0.340 N 
HETATM    2  C   UNL     1     -43.013 -50.009  12.918  1.00  0.00     0.320 C 
HETATM    3  O   UNL     1     -42.228 -49.741  13.818  1.00  0.00    -0.247 OA
HETATM    4  N   UNL     1     -43.165 -49.283  11.755  1.00  0.00    -0.306 N 
HETATM    5  H   UNL     1     -44.703 -51.060  12.479  1.00  0.00     0.164 HD
HETATM    6  H   UNL     1     -43.396 -49.856  10.955  1.00  0.00     0.171 HD
ENDROOT
BRANCH   1   7
HETATM    7  C   UNL     1     -43.659 -52.156  13.941  1.00  0.00     0.162 C 
BRANCH   7   8
HETATM    8  C   UNL     1     -43.373 -53.569  13.379  1.00  0.00     0.074 C 
HETATM    9  C   UNL     1     -41.880 -53.771  13.048  1.00  0.00     0.039 C 
HETATM   10  C   UNL     1     -40.873 -53.395  14.130  1.00  0.00     0.003 C 
HETATM   11  C   UNL     1     -40.829 -54.219  15.416  1.00  0.00     0.000 C 
HETATM   12  C   UNL     1     -41.853 -55.328  15.605  1.00  0.00     0.000 C 
HETATM   13  C   UNL     1     -43.301 -54.853  15.639  1.00  0.00     0.003 C 
HETATM   14  C   UNL     1     -43.924 -54.701  14.258  1.00  0.00     0.039 C 
BRANCH   8  15
HETATM   15  O   UNL     1     -44.102 -53.677  12.129  1.00  0.00    -0.388 OA
HETATM   16  H   UNL     1     -44.979 -53.277  12.255  1.00  0.00     0.210 HD
ENDBRANCH   8  15
ENDBRANCH   7   8
ENDBRANCH   1   7
BRANCH   4  17
HETATM   17  C   UNL     1     -42.411 -48.116  11.518  1.00  0.00     0.067 A 
HETATM   18  C   UNL     1     -41.200 -48.169  10.865  1.00  0.00     0.120 A 
HETATM   19  N   UNL     1     -40.387 -47.103  10.693  1.00  0.00    -0.353 N 
HETATM   20  C   UNL     1     -40.818 -45.916  11.177  1.00  0.00     0.085 A 
ATOM     21  HN  UNL     1     -39.488 -47.191  10.220  1.00  0.00     0.166 HD
HETATM   22  N   UNL     1     -42.022 -45.753  11.761  1.00  0.00    -0.353 N 
HETATM   23  C   UNL     1     -42.785 -46.855  11.929  1.00  0.00     0.120 A 
ATOM     24  HN  UNL     1     -42.343 -44.833  12.064  1.00  0.00     0.166 HD
BRANCH  20  25
HETATM   25  C   UNL     1     -39.885 -44.729  11.136  1.00  0.00     0.053 A 
HETATM   26  C   UNL     1     -39.238 -44.224  12.404  1.00  0.00     0.013 A 
HETATM   27  C   UNL     1     -40.293 -43.400  11.722  1.00  0.00     0.013 A 
ENDBRANCH  20  25
ENDBRANCH   4  17
TORSDOF 5
ENDMDL
MODEL 5
REMARK VINA RESULT:      -6.0      2.250      8.098
REMARK  5 active torsions:
REMARK  status: ('A' for Active; 'I' for Inactive)
REMARK    1  A    between atoms: O_1  and  C_2 
REMARK    2  A    between atoms: C_2  and  C_3 
REMARK    3  A    between atoms: C_3  and  N_4 
REMARK       I    between atoms: N_4  and  C_5 
REMARK       I    between atoms: C_5  and  N_7 
REMARK    4  A    between atoms: N_7  and  C_8 
REMARK    5  A    between atoms: C_12  and  C_16 
ROOT
HETATM    1  N   UNL     1     -40.644 -47.984  10.899  1.00  0.00    -0.340 N 
HETATM    2  C   UNL     1     -40.800 -48.979  11.833  1.00  0.00     0.320 C 
HETATM    3  O   UNL     1     -40.354 -48.912  12.971  1.00  0.00    -0.247 OA
HETATM    4  N   UNL     1     -41.604 -49.992  11.354  1.00  0.00    -0.306 N 
HETATM    5  H   UNL     1     -40.552 -48.281   9.935  1.00  0.00     0.164 HD
HETATM    6  H   UNL     1     -42.281 -49.676  10.674  1.00  0.00     0.171 HD
ENDROOT
BRANCH   1   7
HETATM    7  C   UNL     1     -39.983 -46.731  11.239  1.00  0.00     0.162 C 
BRANCH   7   8
HETATM    8  C   UNL     1     -40.857 -45.488  10.947  1.00  0.00     0.074 C 
HETATM    9  C   UNL     1     -42.145 -45.472  11.798  1.00  0.00     0.039 C 
HETATM   10  C   UNL     1     -41.987 -45.694  13.299  1.00  0.00     0.003 C 
HETATM   11  C   UNL     1     -41.273 -44.630  14.131  1.00  0.00     0.000 C 
HETATM   12  C   UNL     1     -40.667 -43.431  13.415  1.00  0.00     0.000 C 
HETATM   13  C   UNL     1     -39.566 -43.779  12.420  1.00  0.00     0.003 C 
HETATM   14  C   UNL     1     -40.089 -44.163  11.043  1.00  0.00     0.039 C 
BRANCH   8  15
HETATM   15  O   UNL     1     -41.269 -45.584   9.559  1.00  0.00    -0.388 OA
HETATM   16  H   UNL     1     -40.468 -45.638   9.010  1.00  0.00     0.210 HD
ENDBRANCH   8  15
ENDBRANCH   7   8
ENDBRANCH   1   7
BRANCH   4  17
HETATM   17  C   UNL     1     -41.966 -51.085  12.168  1.00  0.00     0.067 A 
HETATM   18  C   UNL     1     -41.468 -52.347  11.931  1.00  0.00     0.120 A 
HETATM   19  N   UNL     1     -41.850 -53.449  12.611  1.00  0.00    -0.353 N 
HETATM   20  C   UNL     1     -42.759 -53.280  13.599  1.00  0.00     0.085 A 
ATOM     21  HN  UNL     1     -41.470 -54.369  12.390  1.00  0.00     0.166 HD
HETATM   22  N   UNL     1     -43.243 -52.073  13.953  1.00  0.00    -0.353 N 
HETATM   23  C   UNL     1     -42.847 -51.007  13.224  1.00  0.00     0.120 A 
ATOM     24  HN  UNL     1     -43.884 -51.970  14.740  1.00  0.00     0.166 HD
BRANCH  20  25
HETATM   25  C   UNL     1     -43.322 -54.498  14.290  1.00  0.00     0.053 A 
HETATM   26  C   UNL     1     -44.716 -54.983  13.967  1.00  0.00     0.013 A 
HETATM   27  C   UNL     1     -44.428 -54.372  15.309  1.00  0.00     0.013 A 
ENDBRANCH  20  25
ENDBRANCH   4  17
TORSDOF 5
ENDMDL
MODEL 6
REMARK VINA RESULT:      -5.9      3.292      8.400
REMARK  5 active torsions:
REMARK  status: ('A' for Active; 'I' for Inactive)
REMARK    1  A    between atoms: O_1  and  C_2 
REMARK    2  A    between atoms: C_2  and  C_3 
REMARK    3  A    between atoms: C_3  and  N_4 
REMARK       I    between atoms: N_4  and  C_5 
REMARK       I    between atoms: C_5  and  N_7 
REMARK    4  A    between atoms: N_7  and  C_8 
REMARK    5  A    between atoms: C_12  and  C_16 
ROOT
HETATM    1  N   UNL     1     -39.742 -45.413  11.429  1.00  0.00    -0.340 N 
HETATM    2  C   UNL     1     -40.007 -46.621  12.027  1.00  0.00     0.320 C 
HETATM    3  O   UNL     1     -40.200 -46.750  13.229  1.00  0.00    -0.247 OA
HETATM    4  N   UNL     1     -40.127 -47.627  11.091  1.00  0.00    -0.306 N 
HETATM    5  H   UNL     1     -39.117 -45.432  10.632  1.00  0.00     0.164 HD
HETATM    6  H   UNL     1     -40.460 -47.299  10.195  1.00  0.00     0.171 HD
ENDROOT
BRANCH   1   7
HETATM    7  C   UNL     1     -39.747 -44.176  12.198  1.00  0.00     0.162 C 
BRANCH   7   8
HETATM    8  C   UNL     1     -40.707 -43.109  11.620  1.00  0.00     0.074 C 
HETATM    9  C   UNL     1     -42.188 -43.505  11.797  1.00  0.00     0.039 C 
HETATM   10  C   UNL     1     -42.627 -43.944  13.190  1.00  0.00     0.003 C 
HETATM   11  C   UNL     1     -42.636 -42.915  14.320  1.00  0.00     0.000 C 
HETATM   12  C   UNL     1     -42.121 -41.512  14.030  1.00  0.00     0.000 C 
HETATM   13  C   UNL     1     -40.655 -41.449  13.620  1.00  0.00     0.003 C 
HETATM   14  C   UNL     1     -40.427 -41.690  12.135  1.00  0.00     0.039 C 
BRANCH   8  15
HETATM   15  O   UNL     1     -40.454 -43.048  10.193  1.00  0.00    -0.388 OA
HETATM   16  H   UNL     1     -39.818 -43.750   9.969  1.00  0.00     0.210 HD
ENDBRANCH   8  15
ENDBRANCH   7   8
ENDBRANCH   1   7
BRANCH   4  17
HETATM   17  C   UNL     1     -40.474 -48.940  11.469  1.00  0.00     0.067 A 
HETATM   18  C   UNL     1     -39.510 -49.902  11.671  1.00  0.00     0.120 A 
HETATM   19  N   UNL     1     -39.782 -51.198  11.938  1.00  0.00    -0.353 N 
HETATM   20  C   UNL     1     -41.084 -51.548  12.035  1.00  0.00     0.085 A 
ATOM     21  HN  UNL     1     -39.036 -51.883  12.062  1.00  0.00     0.166 HD
HETATM   22  N   UNL     1     -42.093 -50.660  11.929  1.00  0.00    -0.353 N 
HETATM   23  C   UNL     1     -41.768 -49.382  11.638  1.00  0.00     0.120 A 
ATOM     24  HN  UNL     1     -43.064 -50.944  12.064  1.00  0.00     0.166 HD
BRANCH  20  25
HETATM   25  C   UNL     1     -41.439 -53.007  12.190  1.00  0.00     0.053 A 
HETATM   26  C   UNL     1     -42.015 -53.518  13.490  1.00  0.00     0.013 A 
HETATM   27  C   UNL     1     -40.625 -53.915  13.080  1.00  0.00     0.013 A 
ENDBRANCH  20  25
ENDBRANCH   4  17
TORSDOF 5
ENDMDL
MODEL 7
REMARK VINA RESULT:      -5.8      1.446      1.794
REMARK  5 active torsions:
REMARK  status: ('A' for Active; 'I' for Inactive)
REMARK    1  A    between atoms: O_1  and  C_2 
REMARK    2  A    between atoms: C_2  and  C_3 
REMARK    3  A    between atoms: C_3  and  N_4 
REMARK       I    between atoms: N_4  and  C_5 
REMARK       I    between atoms: C_5  and  N_7 
REMARK    4  A    between atoms: N_7  and  C_8 
REMARK    5  A    between atoms: C_12  and  C_16 
ROOT
HETATM    1  N   UNL     1     -42.743 -51.509  12.628  1.00  0.00    -0.340 N 
HETATM    2  C   UNL     1     -42.553 -50.152  12.720  1.00  0.00     0.320 C 
HETATM    3  O   UNL     1     -42.320 -49.573  13.773  1.00  0.00    -0.247 OA
HETATM    4  N   UNL     1     -42.555 -49.561  11.474  1.00  0.00    -0.306 N 
HETATM    5  H   UNL     1     -43.401 -51.826  11.926  1.00  0.00     0.164 HD
HETATM    6  H   UNL     1     -42.235 -50.178  10.740  1.00  0.00     0.171 HD
ENDROOT
BRANCH   1   7
HETATM    7  C   UNL     1     -42.604 -52.368  13.796  1.00  0.00     0.162 C 
BRANCH   7   8
HETATM    8  C   UNL     1     -42.972 -53.843  13.509  1.00  0.00     0.074 C 
HETATM    9  C   UNL     1     -43.035 -54.687  14.800  1.00  0.00     0.039 C 
HETATM   10  C   UNL     1     -43.861 -54.128  15.954  1.00  0.00     0.003 C 
HETATM   11  C   UNL     1     -45.377 -54.026  15.796  1.00  0.00     0.000 C 
HETATM   12  C   UNL     1     -45.996 -54.404  14.458  1.00  0.00     0.000 C 
HETATM   13  C   UNL     1     -45.545 -53.540  13.286  1.00  0.00     0.003 C 
HETATM   14  C   UNL     1     -44.238 -54.004  12.656  1.00  0.00     0.039 C 
BRANCH   8  15
HETATM   15  O   UNL     1     -41.901 -54.392  12.698  1.00  0.00    -0.388 OA
HETATM   16  H   UNL     1     -41.466 -55.095  13.210  1.00  0.00     0.210 HD
ENDBRANCH   8  15
ENDBRANCH   7   8
ENDBRANCH   1   7
BRANCH   4  17
HETATM   17  C   UNL     1     -42.302 -48.183  11.317  1.00  0.00     0.067 A 
HETATM   18  C   UNL     1     -41.172 -47.735  10.671  1.00  0.00     0.120 A 
HETATM   19  N   UNL     1     -40.825 -46.433  10.573  1.00  0.00    -0.353 N 
HETATM   20  C   UNL     1     -41.663 -45.528  11.128  1.00  0.00     0.085 A 
ATOM     21  HN  UNL     1     -39.968 -46.145  10.102  1.00  0.00     0.166 HD
HETATM   22  N   UNL     1     -42.830 -45.868  11.712  1.00  0.00    -0.353 N 
HETATM   23  C   UNL     1     -43.117 -47.185  11.805  1.00  0.00     0.120 A 
ATOM     24  HN  UNL     1     -43.469 -45.159  12.070  1.00  0.00     0.166 HD
BRANCH  20  25
HETATM   25  C   UNL     1     -41.248 -44.077  11.169  1.00  0.00     0.053 A 
HETATM   26  C   UNL     1     -40.204 -43.611  12.156  1.00  0.00     0.013 A 
HETATM   27  C   UNL     1     -41.636 -43.191  12.328  1.00  0.00     0.013 A 
ENDBRANCH  20  25
ENDBRANCH   4  17
TORSDOF 5
ENDMDL
MODEL 8
REMARK VINA RESULT:      -5.7      3.884      8.399
REMARK  5 active torsions:
REMARK  status: ('A' for Active; 'I' for Inactive)
REMARK    1  A    between atoms: O_1  and  C_2 
REMARK    2  A    between atoms: C_2  and  C_3 
REMARK    3  A    between atoms: C_3  and  N_4 
REMARK       I    between atoms: N_4  and  C_5 
REMARK       I    between atoms: C_5  and  N_7 
REMARK    4  A    between atoms: N_7  and  C_8 
REMARK    5  A    between atoms: C_12  and  C_16 
ROOT
HETATM    1  N   UNL     1     -41.622 -51.300  12.192  1.00  0.00    -0.340 N 
HETATM    2  C   UNL     1     -40.998 -51.830  13.294  1.00  0.00     0.320 C 
HETATM    3  O   UNL     1     -40.639 -51.161  14.254  1.00  0.00    -0.247 OA
HETATM    4  N   UNL     1     -40.931 -53.206  13.217  1.00  0.00    -0.306 N 
HETATM    5  H   UNL     1     -41.420 -51.741  11.303  1.00  0.00     0.164 HD
HETATM    6  H   UNL     1     -41.687 -53.612  12.685  1.00  0.00     0.171 HD
ENDROOT
BRANCH   1   7
HETATM    7  C   UNL     1     -41.966 -49.885  12.130  1.00  0.00     0.162 C 
BRANCH   7   8
HETATM    8  C   UNL     1     -41.078 -49.090  11.144  1.00  0.00     0.074 C 
HETATM    9  C   UNL     1     -41.907 -48.140  10.254  1.00  0.00     0.039 C 
HETATM   10  C   UNL     1     -42.905 -47.225  10.957  1.00  0.00     0.003 C 
HETATM   11  C   UNL     1     -42.376 -46.117  11.866  1.00  0.00     0.000 C 
HETATM   12  C   UNL     1     -40.876 -46.025  12.105  1.00  0.00     0.000 C 
HETATM   13  C   UNL     1     -40.268 -47.245  12.787  1.00  0.00     0.003 C 
HETATM   14  C   UNL     1     -39.907 -48.365  11.821  1.00  0.00     0.039 C 
BRANCH   8  15
HETATM   15  O   UNL     1     -40.459 -50.062  10.262  1.00  0.00    -0.388 OA
HETATM   16  H   UNL     1     -40.901 -50.918  10.398  1.00  0.00     0.210 HD
ENDBRANCH   8  15
ENDBRANCH   7   8
ENDBRANCH   1   7
BRANCH   4  17
HETATM   17  C   UNL     1     -40.399 -53.973  14.274  1.00  0.00     0.067 A 
HETATM   18  C   UNL     1     -39.104 -54.437  14.237  1.00  0.00     0.120 A 
HETATM   19  N   UNL     1     -38.567 -55.254  15.169  1.00  0.00    -0.353 N 
HETATM   20  C   UNL     1     -39.358 -55.608  16.207  1.00  0.00     0.085 A 
ATOM     21  HN  UNL     1     -37.607 -55.590  15.092  1.00  0.00     0.166 HD
HETATM   22  N   UNL     1     -40.613 -55.142  16.367  1.00  0.00    -0.353 N 
HETATM   23  C   UNL     1     -41.109 -54.346  15.394  1.00  0.00     0.120 A 
ATOM     24  HN  UNL     1     -41.166 -55.380  17.191  1.00  0.00     0.166 HD
BRANCH  20  25
HETATM   25  C   UNL     1     -38.853 -56.631  17.195  1.00  0.00     0.053 A 
HETATM   26  C   UNL     1     -39.630 -57.902  17.442  1.00  0.00     0.013 A 
HETATM   27  C   UNL     1     -39.555 -56.852  18.513  1.00  0.00     0.013 A 
ENDBRANCH  20  25
ENDBRANCH   4  17
TORSDOF 5
ENDMDL
MODEL 9
REMARK VINA RESULT:      -5.6      1.358      2.062
REMARK  5 active torsions:
REMARK  status: ('A' for Active; 'I' for Inactive)
REMARK    1  A    between atoms: O_1  and  C_2 
REMARK    2  A    between atoms: C_2  and  C_3 
REMARK    3  A    between atoms: C_3  and  N_4 
REMARK       I    between atoms: N_4  and  C_5 
REMARK       I    between atoms: C_5  and  N_7 
REMARK    4  A    between atoms: N_7  and  C_8 
REMARK    5  A    between atoms: C_12  and  C_16 
ROOT
HETATM    1  N   UNL     1     -42.083 -52.143  12.581  1.00  0.00    -0.340 N 
HETATM    2  C   UNL     1     -42.115 -50.786  12.373  1.00  0.00     0.320 C 
HETATM    3  O   UNL     1     -43.150 -50.136  12.319  1.00  0.00    -0.247 OA
HETATM    4  N   UNL     1     -40.842 -50.255  12.341  1.00  0.00    -0.306 N 
HETATM    5  H   UNL     1     -41.340 -52.653  12.119  1.00  0.00     0.164 HD
HETATM    6  H   UNL     1     -40.179 -50.775  12.899  1.00  0.00     0.171 HD
ENDROOT
BRANCH   1   7
HETATM    7  C   UNL     1     -43.306 -52.895  12.827  1.00  0.00     0.162 C 
BRANCH   7   8
HETATM    8  C   UNL     1     -43.484 -53.290  14.313  1.00  0.00     0.074 C 
HETATM    9  C   UNL     1     -44.298 -52.241  15.098  1.00  0.00     0.039 C 
HETATM   10  C   UNL     1     -45.620 -51.788  14.486  1.00  0.00     0.003 C 
HETATM   11  C   UNL     1     -46.769 -52.790  14.388  1.00  0.00     0.000 C 
HETATM   12  C   UNL     1     -46.520 -54.227  14.822  1.00  0.00     0.000 C 
HETATM   13  C   UNL     1     -45.456 -54.958  14.013  1.00  0.00     0.003 C 
HETATM   14  C   UNL     1     -44.038 -54.708  14.507  1.00  0.00     0.039 C 
BRANCH   8  15
HETATM   15  O   UNL     1     -42.157 -53.321  14.899  1.00  0.00    -0.388 OA
HETATM   16  H   UNL     1     -41.523 -53.552  14.198  1.00  0.00     0.210 HD
ENDBRANCH   8  15
ENDBRANCH   7   8
ENDBRANCH   1   7
BRANCH   4  17
HETATM   17  C   UNL     1     -40.632 -48.867  12.215  1.00  0.00     0.067 A 
HETATM   18  C   UNL     1     -40.797 -48.227  11.007  1.00  0.00     0.120 A 
HETATM   19  N   UNL     1     -40.518 -46.922  10.799  1.00  0.00    -0.353 N 
HETATM   20  C   UNL     1     -40.074 -46.210  11.860  1.00  0.00     0.085 A 
ATOM     21  HN  UNL     1     -40.637 -46.492   9.882  1.00  0.00     0.166 HD
HETATM   22  N   UNL     1     -39.955 -46.732  13.097  1.00  0.00    -0.353 N 
HETATM   23  C   UNL     1     -40.224 -48.047  13.245  1.00  0.00     0.120 A 
ATOM     24  HN  UNL     1     -39.673 -46.155  13.891  1.00  0.00     0.166 HD
BRANCH  20  25
HETATM   25  C   UNL     1     -39.615 -44.788  11.645  1.00  0.00     0.053 A 
HETATM   26  C   UNL     1     -40.621 -43.692  11.388  1.00  0.00     0.013 A 
HETATM   27  C   UNL     1     -39.704 -44.140  10.285  1.00  0.00     0.013 A 
ENDBRANCH  20  25
ENDBRANCH   4  17
TORSDOF 5
ENDMDL
