MODEL 1
REMARK VINA RESULT:      -6.2      0.000      0.000
REMARK  4 active torsions:
REMARK  status: ('A' for Active; 'I' for Inactive)
REMARK    1  A    between atoms: C_4  and  N_5 
REMARK       I    between atoms: N_5  and  C_6 
REMARK       I    between atoms: C_6  and  N_8 
REMARK    2  A    between atoms: N_8  and  C_9 
REMARK    3  A    between atoms: C_9  and  C_10 
REMARK    4  A    between atoms: C_10  and  C_11 
ROOT
HETATM    1  N   UNL     1     -41.542 -47.834  10.132  1.00  0.00    -0.293 N 
HETATM    2  C   UNL     1     -41.111 -48.691  11.095  1.00  0.00     0.321 C 
HETATM    3  O   UNL     1     -39.967 -48.580  11.532  1.00  0.00    -0.247 OA
HETATM    4  N   UNL     1     -41.958 -49.693  11.470  1.00  0.00    -0.343 N 
HETATM    5  H   UNL     1     -40.831 -47.202   9.796  1.00  0.00     0.172 HD
HETATM    6  H   UNL     1     -42.944 -49.565  11.258  1.00  0.00     0.164 HD
ENDROOT
BRANCH   1   7
HETATM    7  C   UNL     1     -42.782 -47.799   9.533  1.00  0.00     0.132 A 
HETATM    8  C   UNL     1     -43.964 -47.366  10.175  1.00  0.00     0.084 A 
HETATM    9  C   UNL     1     -44.924 -47.438   9.196  1.00  0.00     0.076 A 
HETATM   10  C   UNL     1     -46.349 -47.080   9.113  1.00  0.00     0.079 C 
HETATM   11  O   UNL     1     -44.372 -47.935   8.060  1.00  0.00    -0.241 OA
HETATM   12  N   UNL     1     -43.029 -48.161   8.269  1.00  0.00    -0.245 N 
ATOM     13  HN  UNL     1     -42.358 -48.531   7.595  1.00  0.00     0.196 HD
ENDBRANCH   1   7
BRANCH   4  14
HETATM   14  C   UNL     1     -41.542 -50.663  12.442  1.00  0.00     0.127 C 
BRANCH  14  15
HETATM   15  C   UNL     1     -42.068 -52.071  12.196  1.00  0.00     0.051 C 
BRANCH  15  16
HETATM   16  C   UNL     1     -43.354 -52.256  12.996  1.00  0.00     0.123 C 
HETATM   17  C   UNL     1     -44.329 -53.245  12.379  1.00  0.00     0.034 C 
HETATM   18  C   UNL     1     -45.660 -52.842  12.971  1.00  0.00     0.029 C 
HETATM   19  C   UNL     1     -45.410 -51.468  13.568  1.00  0.00     0.168 C 
HETATM   20  O   UNL     1     -44.118 -51.048  13.100  1.00  0.00    -0.386 OA
ENDBRANCH  15  16
ENDBRANCH  14  15
ENDBRANCH   4  14
TORSDOF 4
ENDMDL
MODEL 2
REMARK VINA RESULT:      -6.1      1.915      2.580
REMARK  4 active torsions:
REMARK  status: ('A' for Active; 'I' for Inactive)
REMARK    1  A    between atoms: C_4  and  N_5 
REMARK       I    between atoms: N_5  and  C_6 
REMARK       I    between atoms: C_6  and  N_8 
REMARK    2  A    between atoms: N_8  and  C_9 
REMARK    3  A    between atoms: C_9  and  C_10 
REMARK    4  A    between atoms: C_10  and  C_11 
ROOT
HETATM    1  N   UNL     1     -41.480 -47.685  10.247  1.00  0.00    -0.293 N 
HETATM    2  C   UNL     1     -40.908 -48.656  11.006  1.00  0.00     0.321 C 
HETATM    3  O   UNL     1     -39.810 -48.450  11.520  1.00  0.00    -0.247 OA
HETATM    4  N   UNL     1     -41.556 -49.854  11.088  1.00  0.00    -0.343 N 
HETATM    5  H   UNL     1     -40.897 -46.873  10.108  1.00  0.00     0.172 HD
HETATM    6  H   UNL     1     -42.546 -49.858  10.857  1.00  0.00     0.164 HD
ENDROOT
BRANCH   1   7
HETATM    7  C   UNL     1     -42.698 -47.730   9.604  1.00  0.00     0.132 A 
HETATM    8  C   UNL     1     -43.937 -47.457  10.227  1.00  0.00     0.084 A 
HETATM    9  C   UNL     1     -44.854 -47.556   9.209  1.00  0.00     0.076 A 
HETATM   10  C   UNL     1     -46.304 -47.333   9.094  1.00  0.00     0.079 C 
HETATM   11  O   UNL     1     -44.219 -47.920   8.066  1.00  0.00    -0.241 OA
HETATM   12  N   UNL     1     -42.868 -48.029   8.311  1.00  0.00    -0.245 N 
ATOM     13  HN  UNL     1     -42.142 -48.286   7.641  1.00  0.00     0.196 HD
ENDBRANCH   1   7
BRANCH   4  14
HETATM   14  C   UNL     1     -40.977 -50.938  11.829  1.00  0.00     0.127 C 
BRANCH  14  15
HETATM   15  C   UNL     1     -41.946 -52.066  12.160  1.00  0.00     0.051 C 
BRANCH  15  16
HETATM   16  C   UNL     1     -41.154 -53.228  12.752  1.00  0.00     0.123 C 
HETATM   17  C   UNL     1     -41.745 -53.790  14.033  1.00  0.00     0.034 C 
HETATM   18  C   UNL     1     -40.567 -54.465  14.698  1.00  0.00     0.029 C 
HETATM   19  C   UNL     1     -39.355 -53.934  13.952  1.00  0.00     0.168 C 
HETATM   20  O   UNL     1     -39.823 -52.853  13.129  1.00  0.00    -0.386 OA
ENDBRANCH  15  16
ENDBRANCH  14  15
ENDBRANCH   4  14
TORSDOF 4
ENDMDL
MODEL 3
REMARK VINA RESULT:      -6.0      1.828      2.280
REMARK  4 active torsions:
REMARK  status: ('A' for Active; 'I' for Inactive)
REMARK    1  A    between atoms: C_4  and  N_5 
REMARK       I    between atoms: N_5  and  C_6 
REMARK       I    between atoms: C_6  and  N_8 
REMARK    2  A    between atoms: N_8  and  C_9 
REMARK    3  A    between atoms: C_9  and  C_10 
REMARK    4  A    between atoms: C_10  and  C_11 
ROOT
HETATM    1  N   UNL     1     -41.946 -46.964  10.001  1.00  0.00    -0.293 N 
HETATM    2  C   UNL     1     -41.049 -47.748  10.655  1.00  0.00     0.321 C 
HETATM    3  O   UNL     1     -40.076 -47.227  11.197  1.00  0.00    -0.247 OA
HETATM    4  N   UNL     1     -41.239 -49.099  10.604  1.00  0.00    -0.343 N 
HETATM    5  H   UNL     1     -41.685 -45.991   9.954  1.00  0.00     0.172 HD
HETATM    6  H   UNL     1     -42.173 -49.423  10.366  1.00  0.00     0.164 HD
ENDROOT
BRANCH   1   7
HETATM    7  C   UNL     1     -43.092 -47.364   9.347  1.00  0.00     0.132 A 
HETATM    8  C   UNL     1     -44.369 -47.426   9.948  1.00  0.00     0.084 A 
HETATM    9  C   UNL     1     -45.203 -47.805   8.925  1.00  0.00     0.076 A 
HETATM   10  C   UNL     1     -46.656 -47.996   8.787  1.00  0.00     0.079 C 
HETATM   11  O   UNL     1     -44.471 -48.013   7.801  1.00  0.00    -0.241 OA
HETATM   12  N   UNL     1     -43.147 -47.736   8.063  1.00  0.00    -0.245 N 
ATOM     13  HN  UNL     1     -42.366 -47.802   7.410  1.00  0.00     0.196 HD
ENDBRANCH   1   7
BRANCH   4  14
HETATM   14  C   UNL     1     -40.298 -49.984  11.228  1.00  0.00     0.127 C 
BRANCH  14  15
HETATM   15  C   UNL     1     -40.755 -50.549  12.567  1.00  0.00     0.051 C 
BRANCH  15  16
HETATM   16  C   UNL     1     -41.158 -52.007  12.365  1.00  0.00     0.123 C 
HETATM   17  C   UNL     1     -42.349 -52.440  13.203  1.00  0.00     0.034 C 
HETATM   18  C   UNL     1     -42.197 -53.942  13.283  1.00  0.00     0.029 C 
HETATM   19  C   UNL     1     -40.775 -54.204  12.816  1.00  0.00     0.168 C 
HETATM   20  O   UNL     1     -40.125 -52.923  12.747  1.00  0.00    -0.386 OA
ENDBRANCH  15  16
ENDBRANCH  14  15
ENDBRANCH   4  14
TORSDOF 4
ENDMDL
MODEL 4
REMARK VINA RESULT:      -6.0      3.583      5.680
REMARK  4 active torsions:
REMARK  status: ('A' for Active; 'I' for Inactive)
REMARK    1  A    between atoms: C_4  and  N_5 
REMARK       I    between atoms: N_5  and  C_6 
REMARK       I    between atoms: C_6  and  N_8 
REMARK    2  A    between atoms: N_8  and  C_9 
REMARK    3  A    between atoms: C_9  and  C_10 
REMARK    4  A    between atoms: C_10  and  C_11 
ROOT
HETATM    1  N   UNL     1     -41.654 -47.948  10.609  1.00  0.00    -0.293 N 
HETATM    2  C   UNL     1     -40.658 -47.039  10.774  1.00  0.00     0.321 C 
HETATM    3  O   UNL     1     -39.692 -47.324  11.481  1.00  0.00    -0.247 OA
HETATM    4  N   UNL     1     -40.825 -45.810  10.202  1.00  0.00    -0.343 N 
HETATM    5  H   UNL     1     -41.545 -48.784  11.163  1.00  0.00     0.172 HD
HETATM    6  H   UNL     1     -41.502 -45.744   9.447  1.00  0.00     0.164 HD
ENDROOT
BRANCH   1   7
HETATM    7  C   UNL     1     -42.799 -47.811   9.854  1.00  0.00     0.132 A 
HETATM    8  C   UNL     1     -44.067 -47.484  10.384  1.00  0.00     0.084 A 
HETATM    9  C   UNL     1     -44.880 -47.393   9.281  1.00  0.00     0.076 A 
HETATM   10  C   UNL     1     -46.286 -47.021   9.056  1.00  0.00     0.079 C 
HETATM   11  O   UNL     1     -44.164 -47.701   8.169  1.00  0.00    -0.241 OA
HETATM   12  N   UNL     1     -42.860 -47.963   8.526  1.00  0.00    -0.245 N 
ATOM     13  HN  UNL     1     -42.094 -48.221   7.902  1.00  0.00     0.196 HD
ENDBRANCH   1   7
BRANCH   4  14
HETATM   14  C   UNL     1     -39.834 -44.789  10.384  1.00  0.00     0.127 C 
BRANCH  14  15
HETATM   15  C   UNL     1     -40.343 -43.531  11.077  1.00  0.00     0.051 C 
BRANCH  15  16
HETATM   16  C   UNL     1     -40.266 -43.743  12.586  1.00  0.00     0.123 C 
HETATM   17  C   UNL     1     -38.969 -44.378  13.055  1.00  0.00     0.034 C 
HETATM   18  C   UNL     1     -39.338 -44.990  14.387  1.00  0.00     0.029 C 
HETATM   19  C   UNL     1     -40.857 -44.980  14.402  1.00  0.00     0.168 C 
HETATM   20  O   UNL     1     -41.276 -44.637  13.070  1.00  0.00    -0.386 OA
ENDBRANCH  15  16
ENDBRANCH  14  15
ENDBRANCH   4  14
TORSDOF 4
ENDMDL
MODEL 5
REMARK VINA RESULT:      -5.8      3.576      6.047
REMARK  4 active torsions:
REMARK  status: ('A' for Active; 'I' for Inactive)
REMARK    1  A    between atoms: C_4  and  N_5 
REMARK       I    between atoms: N_5  and  C_6 
REMARK       I    between atoms: C_6  and  N_8 
REMARK    2  A    between atoms: N_8  and  C_9 
REMARK    3  A    between atoms: C_9  and  C_10 
REMARK    4  A    between atoms: C_10  and  C_11 
ROOT
HETATM    1  N   UNL     1     -41.617 -47.945  10.634  1.00  0.00    -0.293 N 
HETATM    2  C   UNL     1     -40.626 -47.030  10.800  1.00  0.00     0.321 C 
HETATM    3  O   UNL     1     -39.658 -47.312  11.506  1.00  0.00    -0.247 OA
HETATM    4  N   UNL     1     -40.801 -45.802  10.231  1.00  0.00    -0.343 N 
HETATM    5  H   UNL     1     -41.502 -48.781  11.186  1.00  0.00     0.172 HD
HETATM    6  H   UNL     1     -41.480 -45.737   9.477  1.00  0.00     0.164 HD
ENDROOT
BRANCH   1   7
HETATM    7  C   UNL     1     -42.763 -47.814   9.881  1.00  0.00     0.132 A 
HETATM    8  C   UNL     1     -44.031 -47.482  10.411  1.00  0.00     0.084 A 
HETATM    9  C   UNL     1     -44.845 -47.399   9.309  1.00  0.00     0.076 A 
HETATM   10  C   UNL     1     -46.252 -47.029   9.084  1.00  0.00     0.079 C 
HETATM   11  O   UNL     1     -44.132 -47.715   8.198  1.00  0.00    -0.241 OA
HETATM   12  N   UNL     1     -42.827 -47.975   8.554  1.00  0.00    -0.245 N 
ATOM     13  HN  UNL     1     -42.063 -48.237   7.931  1.00  0.00     0.196 HD
ENDBRANCH   1   7
BRANCH   4  14
HETATM   14  C   UNL     1     -39.816 -44.775  10.415  1.00  0.00     0.127 C 
BRANCH  14  15
HETATM   15  C   UNL     1     -39.883 -44.070  11.764  1.00  0.00     0.051 C 
BRANCH  15  16
HETATM   16  C   UNL     1     -40.990 -43.022  11.709  1.00  0.00     0.123 C 
HETATM   17  C   UNL     1     -41.833 -42.948  12.971  1.00  0.00     0.034 C 
HETATM   18  C   UNL     1     -43.125 -42.323  12.495  1.00  0.00     0.029 C 
HETATM   19  C   UNL     1     -43.062 -42.428  10.980  1.00  0.00     0.168 C 
HETATM   20  O   UNL     1     -41.948 -43.283  10.677  1.00  0.00    -0.386 OA
ENDBRANCH  15  16
ENDBRANCH  14  15
ENDBRANCH   4  14
TORSDOF 4
ENDMDL
MODEL 6
REMARK VINA RESULT:      -5.8      4.019      5.779
REMARK  4 active torsions:
REMARK  status: ('A' for Active; 'I' for Inactive)
REMARK    1  A    between atoms: C_4  and  N_5 
REMARK       I    between atoms: N_5  and  C_6 
REMARK       I    between atoms: C_6  and  N_8 
REMARK    2  A    between atoms: N_8  and  C_9 
REMARK    3  A    between atoms: C_9  and  C_10 
REMARK    4  A    between atoms: C_10  and  C_11 
ROOT
HETATM    1  N   UNL     1     -42.856 -53.821  12.516  1.00  0.00    -0.293 N 
HETATM    2  C   UNL     1     -44.206 -53.698  12.609  1.00  0.00     0.321 C 
HETATM    3  O   UNL     1     -44.901 -54.712  12.659  1.00  0.00    -0.247 OA
HETATM    4  N   UNL     1     -44.729 -52.438  12.560  1.00  0.00    -0.343 N 
HETATM    5  H   UNL     1     -42.534 -54.772  12.418  1.00  0.00     0.172 HD
HETATM    6  H   UNL     1     -44.097 -51.670  12.772  1.00  0.00     0.164 HD
ENDROOT
BRANCH   1   7
HETATM    7  C   UNL     1     -41.923 -52.808  12.458  1.00  0.00     0.132 A 
HETATM    8  C   UNL     1     -41.385 -52.157  13.591  1.00  0.00     0.084 A 
HETATM    9  C   UNL     1     -40.464 -51.282  13.071  1.00  0.00     0.076 A 
HETATM   10  C   UNL     1     -39.484 -50.345  13.643  1.00  0.00     0.079 C 
HETATM   11  O   UNL     1     -40.486 -51.359  11.716  1.00  0.00    -0.241 OA
HETATM   12  N   UNL     1     -41.399 -52.316  11.330  1.00  0.00    -0.245 N 
ATOM     13  HN  UNL     1     -41.630 -52.593  10.375  1.00  0.00     0.196 HD
ENDBRANCH   1   7
BRANCH   4  14
HETATM   14  C   UNL     1     -46.149 -52.245  12.599  1.00  0.00     0.127 C 
BRANCH  14  15
HETATM   15  C   UNL     1     -46.633 -51.338  13.724  1.00  0.00     0.051 C 
BRANCH  15  16
HETATM   16  C   UNL     1     -46.748 -52.166  15.000  1.00  0.00     0.123 C 
HETATM   17  C   UNL     1     -47.409 -51.434  16.155  1.00  0.00     0.034 C 
HETATM   18  C   UNL     1     -46.908 -52.173  17.374  1.00  0.00     0.029 C 
HETATM   19  C   UNL     1     -45.745 -53.006  16.861  1.00  0.00     0.168 C 
HETATM   20  O   UNL     1     -45.471 -52.547  15.527  1.00  0.00    -0.386 OA
ENDBRANCH  15  16
ENDBRANCH  14  15
ENDBRANCH   4  14
TORSDOF 4
ENDMDL
MODEL 7
REMARK VINA RESULT:      -5.7      2.951      3.992
REMARK  4 active torsions:
REMARK  status: ('A' for Active; 'I' for Inactive)
REMARK    1  A    between atoms: C_4  and  N_5 
REMARK       I    between atoms: N_5  and  C_6 
REMARK       I    between atoms: C_6  and  N_8 
REMARK    2  A    between atoms: N_8  and  C_9 
REMARK    3  A    between atoms: C_9  and  C_10 
REMARK    4  A    between atoms: C_10  and  C_11 
ROOT
HETATM    1  N   UNL     1     -42.101 -46.412   9.542  1.00  0.00    -0.293 N 
HETATM    2  C   UNL     1     -41.369 -46.738  10.639  1.00  0.00     0.321 C 
HETATM    3  O   UNL     1     -40.430 -46.016  10.973  1.00  0.00    -0.247 OA
HETATM    4  N   UNL     1     -41.669 -47.909  11.273  1.00  0.00    -0.343 N 
HETATM    5  H   UNL     1     -41.751 -45.614   9.035  1.00  0.00     0.172 HD
HETATM    6  H   UNL     1     -42.590 -48.303  11.098  1.00  0.00     0.164 HD
ENDROOT
BRANCH   1   7
HETATM    7  C   UNL     1     -43.185 -47.089   9.025  1.00  0.00     0.132 A 
HETATM    8  C   UNL     1     -44.455 -47.147   9.643  1.00  0.00     0.084 A 
HETATM    9  C   UNL     1     -45.227 -47.859   8.758  1.00  0.00     0.076 A 
HETATM   10  C   UNL     1     -46.646 -48.243   8.695  1.00  0.00     0.079 C 
HETATM   11  O   UNL     1     -44.461 -48.252   7.708  1.00  0.00    -0.241 OA
HETATM   12  N   UNL     1     -43.181 -47.770   7.873  1.00  0.00    -0.245 N 
ATOM     13  HN  UNL     1     -42.389 -47.905   7.244  1.00  0.00     0.196 HD
ENDBRANCH   1   7
BRANCH   4  14
HETATM   14  C   UNL     1     -40.898 -48.336  12.404  1.00  0.00     0.127 C 
BRANCH  14  15
HETATM   15  C   UNL     1     -40.847 -49.845  12.601  1.00  0.00     0.051 C 
BRANCH  15  16
HETATM   16  C   UNL     1     -39.538 -50.367  12.015  1.00  0.00     0.123 C 
HETATM   17  C   UNL     1     -38.638 -51.055  13.028  1.00  0.00     0.034 C 
HETATM   18  C   UNL     1     -37.265 -50.955  12.404  1.00  0.00     0.029 C 
HETATM   19  C   UNL     1     -37.424 -49.926  11.298  1.00  0.00     0.168 C 
HETATM   20  O   UNL     1     -38.715 -49.321  11.487  1.00  0.00    -0.386 OA
ENDBRANCH  15  16
ENDBRANCH  14  15
ENDBRANCH   4  14
TORSDOF 4
ENDMDL
MODEL 8
REMARK VINA RESULT:      -5.7      2.289      3.425
REMARK  4 active torsions:
REMARK  status: ('A' for Active; 'I' for Inactive)
REMARK    1  A    between atoms: C_4  and  N_5 
REMARK       I    between atoms: N_5  and  C_6 
REMARK       I    between atoms: C_6  and  N_8 
REMARK    2  A    between atoms: N_8  and  C_9 
REMARK    3  A    between atoms: C_9  and  C_10 
REMARK    4  A    between atoms: C_10  and  C_11 
ROOT
HETATM    1  N   UNL     1     -40.114 -51.420  12.035  1.00  0.00    -0.293 N 
HETATM    2  C   UNL     1     -40.637 -52.532  12.617  1.00  0.00     0.321 C 
HETATM    3  O   UNL     1     -39.880 -53.418  13.010  1.00  0.00    -0.247 OA
HETATM    4  N   UNL     1     -41.997 -52.640  12.660  1.00  0.00    -0.343 N 
HETATM    5  H   UNL     1     -39.114 -51.454  11.906  1.00  0.00     0.172 HD
HETATM    6  H   UNL     1     -42.530 -51.781  12.553  1.00  0.00     0.164 HD
ENDROOT
BRANCH   1   7
HETATM    7  C   UNL     1     -40.798 -50.328  11.546  1.00  0.00     0.132 A 
HETATM    8  C   UNL     1     -41.786 -49.620  12.267  1.00  0.00     0.084 A 
HETATM    9  C   UNL     1     -42.140 -48.590  11.430  1.00  0.00     0.076 A 
HETATM   10  C   UNL     1     -43.038 -47.429  11.536  1.00  0.00     0.079 C 
HETATM   11  O   UNL     1     -41.455 -48.704  10.263  1.00  0.00    -0.241 OA
HETATM   12  N   UNL     1     -40.613 -49.792  10.334  1.00  0.00    -0.245 N 
ATOM     13  HN  UNL     1     -39.977 -50.123   9.608  1.00  0.00     0.196 HD
ENDBRANCH   1   7
BRANCH   4  14
HETATM   14  C   UNL     1     -42.610 -53.813  13.212  1.00  0.00     0.127 C 
BRANCH  14  15
HETATM   15  C   UNL     1     -44.025 -54.081  12.714  1.00  0.00     0.051 C 
BRANCH  15  16
HETATM   16  C   UNL     1     -44.809 -52.772  12.754  1.00  0.00     0.123 C 
HETATM   17  C   UNL     1     -45.309 -52.393  14.137  1.00  0.00     0.034 C 
HETATM   18  C   UNL     1     -46.467 -51.465  13.851  1.00  0.00     0.029 C 
HETATM   19  C   UNL     1     -46.764 -51.673  12.375  1.00  0.00     0.168 C 
HETATM   20  O   UNL     1     -46.002 -52.820  11.963  1.00  0.00    -0.386 OA
ENDBRANCH  15  16
ENDBRANCH  14  15
ENDBRANCH   4  14
TORSDOF 4
ENDMDL
MODEL 9
REMARK VINA RESULT:      -5.4      3.361      5.642
REMARK  4 active torsions:
REMARK  status: ('A' for Active; 'I' for Inactive)
REMARK    1  A    between atoms: C_4  and  N_5 
REMARK       I    between atoms: N_5  and  C_6 
REMARK       I    between atoms: C_6  and  N_8 
REMARK    2  A    between atoms: N_8  and  C_9 
REMARK    3  A    between atoms: C_9  and  C_10 
REMARK    4  A    between atoms: C_10  and  C_11 
ROOT
HETATM    1  N   UNL     1     -41.814 -52.833  12.888  1.00  0.00    -0.293 N 
HETATM    2  C   UNL     1     -40.895 -52.003  12.329  1.00  0.00     0.321 C 
HETATM    3  O   UNL     1     -39.698 -52.242  12.478  1.00  0.00    -0.247 OA
HETATM    4  N   UNL     1     -41.359 -50.888  11.692  1.00  0.00    -0.343 N 
HETATM    5  H   UNL     1     -41.416 -53.562  13.461  1.00  0.00     0.172 HD
HETATM    6  H   UNL     1     -42.332 -50.899  11.398  1.00  0.00     0.164 HD
ENDROOT
BRANCH   1   7
HETATM    7  C   UNL     1     -43.187 -52.733  12.821  1.00  0.00     0.132 A 
HETATM    8  C   UNL     1     -43.972 -51.965  13.710  1.00  0.00     0.084 A 
HETATM    9  C   UNL     1     -45.253 -52.106  13.234  1.00  0.00     0.076 A 
HETATM   10  C   UNL     1     -46.563 -51.542  13.599  1.00  0.00     0.079 C 
HETATM   11  O   UNL     1     -45.247 -52.947  12.169  1.00  0.00    -0.241 OA
HETATM   12  N   UNL     1     -43.953 -53.342  11.908  1.00  0.00    -0.245 N 
ATOM     13  HN  UNL     1     -43.641 -53.971  11.167  1.00  0.00     0.196 HD
ENDBRANCH   1   7
BRANCH   4  14
HETATM   14  C   UNL     1     -40.438 -49.944  11.128  1.00  0.00     0.127 C 
BRANCH  14  15
HETATM   15  C   UNL     1     -40.516 -48.548  11.732  1.00  0.00     0.051 C 
BRANCH  15  16
HETATM   16  C   UNL     1     -39.555 -48.477  12.915  1.00  0.00     0.123 C 
HETATM   17  C   UNL     1     -38.195 -49.098  12.645  1.00  0.00     0.034 C 
HETATM   18  C   UNL     1     -37.676 -49.422  14.028  1.00  0.00     0.029 C 
HETATM   19  C   UNL     1     -38.894 -49.308  14.928  1.00  0.00     0.168 C 
HETATM   20  O   UNL     1     -40.034 -49.194  14.059  1.00  0.00    -0.386 OA
ENDBRANCH  15  16
ENDBRANCH  14  15
ENDBRANCH   4  14
TORSDOF 4
ENDMDL
