MODEL 1
REMARK VINA RESULT:      -6.0      0.000      0.000
REMARK  4 active torsions:
REMARK  status: ('A' for Active; 'I' for Inactive)
REMARK    1  A    between atoms: N_2  and  C_4 
REMARK    2  A    between atoms: C_7  and  N_8 
REMARK       I    between atoms: N_8  and  C_9 
REMARK       I    between atoms: C_9  and  N_11 
REMARK    3  A    between atoms: N_11  and  C_12 
REMARK    4  A    between atoms: C_12  and  C_13 
ROOT
HETATM    1  N   UNL     1     -40.665 -49.768  10.611  1.00  0.00    -0.308 N 
HETATM    2  C   UNL     1     -41.585 -48.750  10.751  1.00  0.00     0.320 C 
HETATM    3  O   UNL     1     -42.111 -48.397  11.798  1.00  0.00    -0.247 OA
HETATM    4  N   UNL     1     -41.892 -48.118   9.557  1.00  0.00    -0.342 N 
HETATM    5  H   UNL     1     -40.229 -49.886   9.706  1.00  0.00     0.170 HD
HETATM    6  H   UNL     1     -41.166 -48.096   8.857  1.00  0.00     0.164 HD
ENDROOT
BRANCH   1   7
HETATM    7  C   UNL     1     -40.225 -50.608  11.668  1.00  0.00     0.051 A 
HETATM    8  C   UNL     1     -39.061 -50.386  12.387  1.00  0.00     0.035 A 
HETATM    9  C   UNL     1     -38.681 -51.261  13.407  1.00  0.00     0.050 A 
HETATM   10  C   UNL     1     -39.468 -52.363  13.728  1.00  0.00     0.102 A 
HETATM   11  N   UNL     1     -40.606 -52.595  13.032  1.00  0.00    -0.350 N 
HETATM   12  C   UNL     1     -40.961 -51.724  12.044  1.00  0.00     0.119 A 
ATOM     13  HN  UNL     1     -41.188 -53.406  13.243  1.00  0.00     0.166 HD
BRANCH  10  14
HETATM   14  N   UNL     1     -39.075 -53.246  14.738  1.00  0.00    -0.376 N 
HETATM   15  C   UNL     1     -39.279 -52.840  16.122  1.00  0.00     0.150 C 
HETATM   16  C   UNL     1     -39.210 -54.660  14.425  1.00  0.00     0.150 C 
ENDBRANCH  10  14
ENDBRANCH   1   7
BRANCH   4  17
HETATM   17  C   UNL     1     -42.775 -46.965   9.662  1.00  0.00     0.131 C 
BRANCH  17  18
HETATM   18  C   UNL     1     -44.027 -47.044   8.808  1.00  0.00     0.029 C 
HETATM   19  C   UNL     1     -45.270 -47.486   9.558  1.00  0.00     0.034 C 
HETATM   20  C   UNL     1     -46.064 -48.282   8.536  1.00  0.00     0.168 C 
HETATM   21  O   UNL     1     -45.247 -48.436   7.370  1.00  0.00    -0.391 OA
HETATM   22  C   UNL     1     -43.903 -48.118   7.740  1.00  0.00     0.173 C 
ENDBRANCH  17  18
ENDBRANCH   4  17
TORSDOF 4
ENDMDL
MODEL 2
REMARK VINA RESULT:      -5.9      3.318      6.722
REMARK  4 active torsions:
REMARK  status: ('A' for Active; 'I' for Inactive)
REMARK    1  A    between atoms: N_2  and  C_4 
REMARK    2  A    between atoms: C_7  and  N_8 
REMARK       I    between atoms: N_8  and  C_9 
REMARK       I    between atoms: C_9  and  N_11 
REMARK    3  A    between atoms: N_11  and  C_12 
REMARK    4  A    between atoms: C_12  and  C_13 
ROOT
HETATM    1  N   UNL     1     -41.001 -50.866  11.220  1.00  0.00    -0.308 N 
HETATM    2  C   UNL     1     -41.241 -51.593  12.367  1.00  0.00     0.320 C 
HETATM    3  O   UNL     1     -41.277 -51.146  13.506  1.00  0.00    -0.247 OA
HETATM    4  N   UNL     1     -41.451 -52.942  12.129  1.00  0.00    -0.342 N 
HETATM    5  H   UNL     1     -41.106 -51.339  10.333  1.00  0.00     0.170 HD
HETATM    6  H   UNL     1     -41.861 -53.186  11.240  1.00  0.00     0.164 HD
ENDROOT
BRANCH   1   7
HETATM    7  C   UNL     1     -40.699 -49.479  11.193  1.00  0.00     0.051 A 
HETATM    8  C   UNL     1     -39.638 -48.914  11.883  1.00  0.00     0.035 A 
HETATM    9  C   UNL     1     -39.406 -47.538  11.822  1.00  0.00     0.050 A 
HETATM   10  C   UNL     1     -40.227 -46.711  11.061  1.00  0.00     0.102 A 
HETATM   11  N   UNL     1     -41.270 -47.248  10.384  1.00  0.00    -0.350 N 
HETATM   12  C   UNL     1     -41.474 -48.595  10.453  1.00  0.00     0.119 A 
ATOM     13  HN  UNL     1     -41.892 -46.656   9.833  1.00  0.00     0.166 HD
BRANCH  10  14
HETATM   14  N   UNL     1     -40.001 -45.332  11.017  1.00  0.00    -0.376 N 
HETATM   15  C   UNL     1     -39.333 -44.784   9.845  1.00  0.00     0.150 C 
HETATM   16  C   UNL     1     -41.013 -44.509  11.662  1.00  0.00     0.150 C 
ENDBRANCH  10  14
ENDBRANCH   1   7
BRANCH   4  17
HETATM   17  C   UNL     1     -41.817 -53.738  13.292  1.00  0.00     0.131 C 
BRANCH  17  18
HETATM   18  C   UNL     1     -43.292 -53.694  13.652  1.00  0.00     0.029 C 
HETATM   19  C   UNL     1     -43.799 -54.933  14.366  1.00  0.00     0.034 C 
HETATM   20  C   UNL     1     -45.231 -55.086  13.882  1.00  0.00     0.168 C 
HETATM   21  O   UNL     1     -45.447 -54.127  12.841  1.00  0.00    -0.391 OA
HETATM   22  C   UNL     1     -44.165 -53.664  12.410  1.00  0.00     0.173 C 
ENDBRANCH  17  18
ENDBRANCH   4  17
TORSDOF 4
ENDMDL
MODEL 3
REMARK VINA RESULT:      -5.6      3.609      7.194
REMARK  4 active torsions:
REMARK  status: ('A' for Active; 'I' for Inactive)
REMARK    1  A    between atoms: N_2  and  C_4 
REMARK    2  A    between atoms: C_7  and  N_8 
REMARK       I    between atoms: N_8  and  C_9 
REMARK       I    between atoms: C_9  and  N_11 
REMARK    3  A    between atoms: N_11  and  C_12 
REMARK    4  A    between atoms: C_12  and  C_13 
ROOT
HETATM    1  N   UNL     1     -42.784 -49.718  11.793  1.00  0.00    -0.308 N 
HETATM    2  C   UNL     1     -42.119 -50.735  12.446  1.00  0.00     0.320 C 
HETATM    3  O   UNL     1     -41.028 -50.645  12.993  1.00  0.00    -0.247 OA
HETATM    4  N   UNL     1     -42.811 -51.935  12.441  1.00  0.00    -0.342 N 
HETATM    5  H   UNL     1     -43.727 -49.899  11.478  1.00  0.00     0.170 HD
HETATM    6  H   UNL     1     -43.818 -51.877  12.416  1.00  0.00     0.164 HD
ENDROOT
BRANCH   1   7
HETATM    7  C   UNL     1     -42.268 -48.408  11.605  1.00  0.00     0.051 A 
HETATM    8  C   UNL     1     -42.769 -47.289  12.251  1.00  0.00     0.035 A 
HETATM    9  C   UNL     1     -42.221 -46.028  12.009  1.00  0.00     0.050 A 
HETATM   10  C   UNL     1     -41.155 -45.872  11.128  1.00  0.00     0.102 A 
HETATM   11  N   UNL     1     -40.656 -46.956  10.487  1.00  0.00    -0.350 N 
HETATM   12  C   UNL     1     -41.203 -48.179  10.743  1.00  0.00     0.119 A 
ATOM     13  HN  UNL     1     -39.885 -46.860   9.826  1.00  0.00     0.166 HD
BRANCH  10  14
HETATM   14  N   UNL     1     -40.621 -44.605  10.876  1.00  0.00    -0.376 N 
HETATM   15  C   UNL     1     -40.619 -43.634  11.962  1.00  0.00     0.150 C 
HETATM   16  C   UNL     1     -39.512 -44.565   9.936  1.00  0.00     0.150 C 
ENDBRANCH  10  14
ENDBRANCH   1   7
BRANCH   4  17
HETATM   17  C   UNL     1     -42.208 -53.015  13.210  1.00  0.00     0.131 C 
BRANCH  17  18
HETATM   18  C   UNL     1     -43.110 -54.215  13.434  1.00  0.00     0.029 C 
HETATM   19  C   UNL     1     -44.485 -54.090  12.806  1.00  0.00     0.034 C 
HETATM   20  C   UNL     1     -45.405 -54.829  13.764  1.00  0.00     0.168 C 
HETATM   21  O   UNL     1     -44.641 -55.175  14.925  1.00  0.00    -0.391 OA
HETATM   22  C   UNL     1     -43.447 -54.390  14.904  1.00  0.00     0.173 C 
ENDBRANCH  17  18
ENDBRANCH   4  17
TORSDOF 4
ENDMDL
MODEL 4
REMARK VINA RESULT:      -5.5      3.673      7.449
REMARK  4 active torsions:
REMARK  status: ('A' for Active; 'I' for Inactive)
REMARK    1  A    between atoms: N_2  and  C_4 
REMARK    2  A    between atoms: C_7  and  N_8 
REMARK       I    between atoms: N_8  and  C_9 
REMARK       I    between atoms: C_9  and  N_11 
REMARK    3  A    between atoms: N_11  and  C_12 
REMARK    4  A    between atoms: C_12  and  C_13 
ROOT
HETATM    1  N   UNL     1     -42.004 -51.058  13.449  1.00  0.00    -0.308 N 
HETATM    2  C   UNL     1     -42.437 -52.348  13.226  1.00  0.00     0.320 C 
HETATM    3  O   UNL     1     -42.954 -52.764  12.197  1.00  0.00    -0.247 OA
HETATM    4  N   UNL     1     -42.237 -53.190  14.308  1.00  0.00    -0.342 N 
HETATM    5  H   UNL     1     -41.498 -50.874  14.304  1.00  0.00     0.170 HD
HETATM    6  H   UNL     1     -41.451 -52.981  14.905  1.00  0.00     0.164 HD
ENDROOT
BRANCH   1   7
HETATM    7  C   UNL     1     -42.145 -49.989  12.525  1.00  0.00     0.051 A 
HETATM    8  C   UNL     1     -43.175 -49.063  12.579  1.00  0.00     0.035 A 
HETATM    9  C   UNL     1     -43.260 -48.043  11.629  1.00  0.00     0.050 A 
HETATM   10  C   UNL     1     -42.308 -47.930  10.619  1.00  0.00     0.102 A 
HETATM   11  N   UNL     1     -41.299 -48.830  10.551  1.00  0.00    -0.350 N 
HETATM   12  C   UNL     1     -41.232 -49.814  11.493  1.00  0.00     0.119 A 
ATOM     13  HN  UNL     1     -40.600 -48.772   9.809  1.00  0.00     0.166 HD
BRANCH  10  14
HETATM   14  N   UNL     1     -42.408 -46.918   9.660  1.00  0.00    -0.376 N 
HETATM   15  C   UNL     1     -43.417 -47.057   8.618  1.00  0.00     0.150 C 
HETATM   16  C   UNL     1     -42.107 -45.574  10.130  1.00  0.00     0.150 C 
ENDBRANCH  10  14
ENDBRANCH   1   7
BRANCH   4  17
HETATM   17  C   UNL     1     -42.576 -54.590  14.089  1.00  0.00     0.131 C 
BRANCH  17  18
HETATM   18  C   UNL     1     -43.877 -55.035  14.731  1.00  0.00     0.029 C 
HETATM   19  C   UNL     1     -45.087 -54.946  13.819  1.00  0.00     0.034 C 
HETATM   20  C   UNL     1     -46.234 -54.589  14.749  1.00  0.00     0.168 C 
HETATM   21  O   UNL     1     -45.680 -54.313  16.041  1.00  0.00    -0.391 OA
HETATM   22  C   UNL     1     -44.274 -54.119  15.875  1.00  0.00     0.173 C 
ENDBRANCH  17  18
ENDBRANCH   4  17
TORSDOF 4
ENDMDL
MODEL 5
REMARK VINA RESULT:      -5.5      3.312      7.529
REMARK  4 active torsions:
REMARK  status: ('A' for Active; 'I' for Inactive)
REMARK    1  A    between atoms: N_2  and  C_4 
REMARK    2  A    between atoms: C_7  and  N_8 
REMARK       I    between atoms: N_8  and  C_9 
REMARK       I    between atoms: C_9  and  N_11 
REMARK    3  A    between atoms: N_11  and  C_12 
REMARK    4  A    between atoms: C_12  and  C_13 
ROOT
HETATM    1  N   UNL     1     -41.107 -48.230  10.539  1.00  0.00    -0.308 N 
HETATM    2  C   UNL     1     -40.695 -49.100  11.527  1.00  0.00     0.320 C 
HETATM    3  O   UNL     1     -40.440 -48.802  12.686  1.00  0.00    -0.247 OA
HETATM    4  N   UNL     1     -40.582 -50.411  11.092  1.00  0.00    -0.342 N 
HETATM    5  H   UNL     1     -41.386 -48.625   9.652  1.00  0.00     0.170 HD
HETATM    6  H   UNL     1     -41.199 -50.695  10.346  1.00  0.00     0.164 HD
ENDROOT
BRANCH   1   7
HETATM    7  C   UNL     1     -41.245 -46.827  10.707  1.00  0.00     0.051 A 
HETATM    8  C   UNL     1     -40.178 -45.944  10.670  1.00  0.00     0.035 A 
HETATM    9  C   UNL     1     -40.384 -44.575  10.856  1.00  0.00     0.050 A 
HETATM   10  C   UNL     1     -41.665 -44.071  11.070  1.00  0.00     0.102 A 
HETATM   11  N   UNL     1     -42.717 -44.923  11.113  1.00  0.00    -0.350 N 
HETATM   12  C   UNL     1     -42.492 -46.255  10.923  1.00  0.00     0.119 A 
ATOM     13  HN  UNL     1     -43.660 -44.575  11.284  1.00  0.00     0.166 HD
BRANCH  10  14
HETATM   14  N   UNL     1     -41.864 -42.703  11.274  1.00  0.00    -0.376 N 
HETATM   15  C   UNL     1     -43.220 -42.240  11.537  1.00  0.00     0.150 C 
HETATM   16  C   UNL     1     -40.773 -41.999  11.929  1.00  0.00     0.150 C 
ENDBRANCH  10  14
ENDBRANCH   1   7
BRANCH   4  17
HETATM   17  C   UNL     1     -40.257 -51.391  12.120  1.00  0.00     0.131 C 
BRANCH  17  18
HETATM   18  C   UNL     1     -41.105 -52.649  12.088  1.00  0.00     0.029 C 
HETATM   19  C   UNL     1     -42.576 -52.420  12.380  1.00  0.00     0.034 C 
HETATM   20  C   UNL     1     -43.016 -53.676  13.112  1.00  0.00     0.168 C 
HETATM   21  O   UNL     1     -41.846 -54.460  13.377  1.00  0.00    -0.391 OA
HETATM   22  C   UNL     1     -40.710 -53.613  13.193  1.00  0.00     0.173 C 
ENDBRANCH  17  18
ENDBRANCH   4  17
TORSDOF 4
ENDMDL
MODEL 6
REMARK VINA RESULT:      -5.4      3.438      4.088
REMARK  4 active torsions:
REMARK  status: ('A' for Active; 'I' for Inactive)
REMARK    1  A    between atoms: N_2  and  C_4 
REMARK    2  A    between atoms: C_7  and  N_8 
REMARK       I    between atoms: N_8  and  C_9 
REMARK       I    between atoms: C_9  and  N_11 
REMARK    3  A    between atoms: N_11  and  C_12 
REMARK    4  A    between atoms: C_12  and  C_13 
ROOT
HETATM    1  N   UNL     1     -40.768 -46.730  10.423  1.00  0.00    -0.308 N 
HETATM    2  C   UNL     1     -42.128 -46.523  10.327  1.00  0.00     0.320 C 
HETATM    3  O   UNL     1     -42.913 -46.465  11.265  1.00  0.00    -0.247 OA
HETATM    4  N   UNL     1     -42.572 -46.378   9.023  1.00  0.00    -0.342 N 
HETATM    5  H   UNL     1     -40.220 -46.649   9.577  1.00  0.00     0.170 HD
HETATM    6  H   UNL     1     -41.919 -45.981   8.364  1.00  0.00     0.164 HD
ENDROOT
BRANCH   1   7
HETATM    7  C   UNL     1     -40.072 -46.966  11.638  1.00  0.00     0.051 A 
HETATM    8  C   UNL     1     -39.650 -48.221  12.045  1.00  0.00     0.035 A 
HETATM    9  C   UNL     1     -38.980 -48.383  13.260  1.00  0.00     0.050 A 
HETATM   10  C   UNL     1     -38.713 -47.288  14.077  1.00  0.00     0.102 A 
HETATM   11  N   UNL     1     -39.122 -46.055  13.693  1.00  0.00    -0.350 N 
HETATM   12  C   UNL     1     -39.769 -45.920  12.500  1.00  0.00     0.119 A 
ATOM     13  HN  UNL     1     -38.949 -45.243  14.285  1.00  0.00     0.166 HD
BRANCH  10  14
HETATM   14  N   UNL     1     -38.058 -47.457  15.301  1.00  0.00    -0.376 N 
HETATM   15  C   UNL     1     -36.646 -47.814  15.278  1.00  0.00     0.150 C 
HETATM   16  C   UNL     1     -38.521 -46.604  16.385  1.00  0.00     0.150 C 
ENDBRANCH  10  14
ENDBRANCH   1   7
BRANCH   4  17
HETATM   17  C   UNL     1     -43.982 -46.048   8.869  1.00  0.00     0.131 C 
BRANCH  17  18
HETATM   18  C   UNL     1     -44.932 -47.215   9.070  1.00  0.00     0.029 C 
HETATM   19  C   UNL     1     -44.920 -48.232   7.945  1.00  0.00     0.034 C 
HETATM   20  C   UNL     1     -46.352 -48.733   7.873  1.00  0.00     0.168 C 
HETATM   21  O   UNL     1     -47.143 -47.925   8.753  1.00  0.00    -0.391 OA
HETATM   22  C   UNL     1     -46.381 -46.757   9.067  1.00  0.00     0.173 C 
ENDBRANCH  17  18
ENDBRANCH   4  17
TORSDOF 4
ENDMDL
MODEL 7
REMARK VINA RESULT:      -5.3      2.201      3.468
REMARK  4 active torsions:
REMARK  status: ('A' for Active; 'I' for Inactive)
REMARK    1  A    between atoms: N_2  and  C_4 
REMARK    2  A    between atoms: C_7  and  N_8 
REMARK       I    between atoms: N_8  and  C_9 
REMARK       I    between atoms: C_9  and  N_11 
REMARK    3  A    between atoms: N_11  and  C_12 
REMARK    4  A    between atoms: C_12  and  C_13 
ROOT
HETATM    1  N   UNL     1     -40.592 -50.357  11.066  1.00  0.00    -0.308 N 
HETATM    2  C   UNL     1     -41.494 -49.319  11.172  1.00  0.00     0.320 C 
HETATM    3  O   UNL     1     -42.308 -49.164  12.073  1.00  0.00    -0.247 OA
HETATM    4  N   UNL     1     -41.410 -48.411  10.129  1.00  0.00    -0.342 N 
HETATM    5  H   UNL     1     -39.903 -50.308  10.328  1.00  0.00     0.170 HD
HETATM    6  H   UNL     1     -40.505 -48.297   9.699  1.00  0.00     0.164 HD
ENDROOT
BRANCH   1   7
HETATM    7  C   UNL     1     -40.510 -51.449  11.971  1.00  0.00     0.051 A 
HETATM    8  C   UNL     1     -41.344 -52.555  11.911  1.00  0.00     0.035 A 
HETATM    9  C   UNL     1     -41.217 -53.588  12.842  1.00  0.00     0.050 A 
HETATM   10  C   UNL     1     -40.244 -53.534  13.837  1.00  0.00     0.102 A 
HETATM   11  N   UNL     1     -39.425 -52.458  13.910  1.00  0.00    -0.350 N 
HETATM   12  C   UNL     1     -39.563 -51.463  12.986  1.00  0.00     0.119 A 
ATOM     13  HN  UNL     1     -38.716 -52.393  14.641  1.00  0.00     0.166 HD
BRANCH  10  14
HETATM   14  N   UNL     1     -40.132 -54.562  14.777  1.00  0.00    -0.376 N 
HETATM   15  C   UNL     1     -38.822 -54.819  15.359  1.00  0.00     0.150 C 
HETATM   16  C   UNL     1     -41.297 -54.770  15.623  1.00  0.00     0.150 C 
ENDBRANCH  10  14
ENDBRANCH   1   7
BRANCH   4  17
HETATM   17  C   UNL     1     -42.263 -47.236  10.246  1.00  0.00     0.131 C 
BRANCH  17  18
HETATM   18  C   UNL     1     -41.518 -45.914  10.296  1.00  0.00     0.029 C 
HETATM   19  C   UNL     1     -40.074 -46.026  10.749  1.00  0.00     0.034 C 
HETATM   20  C   UNL     1     -39.819 -44.739  11.515  1.00  0.00     0.168 C 
HETATM   21  O   UNL     1     -41.068 -44.050  11.644  1.00  0.00    -0.391 OA
HETATM   22  C   UNL     1     -42.107 -44.985  11.343  1.00  0.00     0.173 C 
ENDBRANCH  17  18
ENDBRANCH   4  17
TORSDOF 4
ENDMDL
MODEL 8
REMARK VINA RESULT:      -5.1      3.436      8.518
REMARK  4 active torsions:
REMARK  status: ('A' for Active; 'I' for Inactive)
REMARK    1  A    between atoms: N_2  and  C_4 
REMARK    2  A    between atoms: C_7  and  N_8 
REMARK       I    between atoms: N_8  and  C_9 
REMARK       I    between atoms: C_9  and  N_11 
REMARK    3  A    between atoms: N_11  and  C_12 
REMARK    4  A    between atoms: C_12  and  C_13 
ROOT
HETATM    1  N   UNL     1     -40.556 -49.256  13.260  1.00  0.00    -0.308 N 
HETATM    2  C   UNL     1     -39.187 -49.389  13.360  1.00  0.00     0.320 C 
HETATM    3  O   UNL     1     -38.363 -48.948  12.570  1.00  0.00    -0.247 OA
HETATM    4  N   UNL     1     -38.785 -50.098  14.481  1.00  0.00    -0.342 N 
HETATM    5  H   UNL     1     -41.118 -49.575  14.038  1.00  0.00     0.170 HD
HETATM    6  H   UNL     1     -39.382 -50.039  15.292  1.00  0.00     0.164 HD
ENDROOT
BRANCH   1   7
HETATM    7  C   UNL     1     -41.228 -48.625  12.179  1.00  0.00     0.051 A 
HETATM    8  C   UNL     1     -42.087 -47.550  12.336  1.00  0.00     0.035 A 
HETATM    9  C   UNL     1     -42.725 -46.986  11.229  1.00  0.00     0.050 A 
HETATM   10  C   UNL     1     -42.500 -47.483   9.948  1.00  0.00     0.102 A 
HETATM   11  N   UNL     1     -41.665 -48.536   9.780  1.00  0.00    -0.350 N 
HETATM   12  C   UNL     1     -41.049 -49.067  10.875  1.00  0.00     0.119 A 
ATOM     13  HN  UNL     1     -41.499 -48.924   8.851  1.00  0.00     0.166 HD
BRANCH  10  14
HETATM   14  N   UNL     1     -43.154 -46.926   8.845  1.00  0.00    -0.376 N 
HETATM   15  C   UNL     1     -43.575 -47.820   7.775  1.00  0.00     0.150 C 
HETATM   16  C   UNL     1     -43.994 -45.773   9.129  1.00  0.00     0.150 C 
ENDBRANCH  10  14
ENDBRANCH   1   7
BRANCH   4  17
HETATM   17  C   UNL     1     -37.347 -50.175  14.696  1.00  0.00     0.131 C 
BRANCH  17  18
HETATM   18  C   UNL     1     -36.858 -49.505  15.968  1.00  0.00     0.029 C 
HETATM   19  C   UNL     1     -36.533 -48.031  15.814  1.00  0.00     0.034 C 
HETATM   20  C   UNL     1     -35.370 -47.801  16.764  1.00  0.00     0.168 C 
HETATM   21  O   UNL     1     -34.954 -49.077  17.264  1.00  0.00    -0.391 OA
HETATM   22  C   UNL     1     -35.526 -50.078  16.420  1.00  0.00     0.173 C 
ENDBRANCH  17  18
ENDBRANCH   4  17
TORSDOF 4
ENDMDL
MODEL 9
REMARK VINA RESULT:      -4.9      3.269      7.750
REMARK  4 active torsions:
REMARK  status: ('A' for Active; 'I' for Inactive)
REMARK    1  A    between atoms: N_2  and  C_4 
REMARK    2  A    between atoms: C_7  and  N_8 
REMARK       I    between atoms: N_8  and  C_9 
REMARK       I    between atoms: C_9  and  N_11 
REMARK    3  A    between atoms: N_11  and  C_12 
REMARK    4  A    between atoms: C_12  and  C_13 
ROOT
HETATM    1  N   UNL     1     -42.268 -50.473  11.882  1.00  0.00    -0.308 N 
HETATM    2  C   UNL     1     -41.337 -51.438  12.205  1.00  0.00     0.320 C 
HETATM    3  O   UNL     1     -40.161 -51.237  12.481  1.00  0.00    -0.247 OA
HETATM    4  N   UNL     1     -41.852 -52.724  12.195  1.00  0.00    -0.342 N 
HETATM    5  H   UNL     1     -43.230 -50.764  11.780  1.00  0.00     0.170 HD
HETATM    6  H   UNL     1     -42.830 -52.821  12.421  1.00  0.00     0.164 HD
ENDROOT
BRANCH   1   7
HETATM    7  C   UNL     1     -41.985 -49.086  11.764  1.00  0.00     0.051 A 
HETATM    8  C   UNL     1     -42.369 -48.145  12.706  1.00  0.00     0.035 A 
HETATM    9  C   UNL     1     -42.068 -46.794  12.521  1.00  0.00     0.050 A 
HETATM   10  C   UNL     1     -41.367 -46.369  11.395  1.00  0.00     0.102 A 
HETATM   11  N   UNL     1     -40.988 -47.277  10.465  1.00  0.00    -0.350 N 
HETATM   12  C   UNL     1     -41.288 -48.592  10.670  1.00  0.00     0.119 A 
ATOM     13  HN  UNL     1     -40.487 -46.983   9.626  1.00  0.00     0.166 HD
BRANCH  10  14
HETATM   14  N   UNL     1     -41.083 -45.014  11.205  1.00  0.00    -0.376 N 
HETATM   15  C   UNL     1     -39.925 -44.663  10.395  1.00  0.00     0.150 C 
HETATM   16  C   UNL     1     -42.239 -44.132  11.146  1.00  0.00     0.150 C 
ENDBRANCH  10  14
ENDBRANCH   1   7
BRANCH   4  17
HETATM   17  C   UNL     1     -40.941 -53.771  12.636  1.00  0.00     0.131 C 
BRANCH  17  18
HETATM   18  C   UNL     1     -40.750 -53.855  14.139  1.00  0.00     0.029 C 
HETATM   19  C   UNL     1     -39.501 -54.599  14.571  1.00  0.00     0.034 C 
HETATM   20  C   UNL     1     -39.899 -55.284  15.867  1.00  0.00     0.168 C 
HETATM   21  O   UNL     1     -41.307 -55.096  16.047  1.00  0.00    -0.391 OA
HETATM   22  C   UNL     1     -41.849 -54.675  14.793  1.00  0.00     0.173 C 
ENDBRANCH  17  18
ENDBRANCH   4  17
TORSDOF 4
ENDMDL
