MODEL 1
REMARK VINA RESULT:      -6.2      0.000      0.000
REMARK  5 active torsions:
REMARK  status: ('A' for Active; 'I' for Inactive)
REMARK    1  A    between atoms: N_2  and  S_4 
REMARK    2  A    between atoms: S_4  and  C_7 
REMARK    3  A    between atoms: N_12  and  C_13 
REMARK    4  A    between atoms: C_13  and  C_14 
REMARK       I    between atoms: C_14  and  N_16 
REMARK       I    between atoms: N_16  and  C_17 
REMARK       I    between atoms: C_17  and  N_19 
REMARK    5  A    between atoms: N_19  and  C_20 
ROOT
HETATM    1  C   UNL     1     -43.373 -53.628  13.324  1.00  0.00     0.090 A 
HETATM    2  C   UNL     1     -42.543 -54.461  14.168  1.00  0.00     0.032 A 
HETATM    3  C   UNL     1     -41.213 -54.295  14.200  1.00  0.00     0.076 A 
HETATM    4  C   UNL     1     -40.575 -53.221  13.390  1.00  0.00     0.247 A 
HETATM    5  O   UNL     1     -39.376 -52.986  13.511  1.00  0.00    -0.268 OA
HETATM    6  N   UNL     1     -41.420 -52.513  12.539  1.00  0.00    -0.314 N 
HETATM    7  C   UNL     1     -42.794 -52.719  12.520  1.00  0.00     0.119 A 
ENDROOT
BRANCH   6   8
HETATM    8  C   UNL     1     -40.840 -51.425  11.755  1.00  0.00     0.234 C 
BRANCH   8   9
HETATM    9  C   UNL     1     -41.417 -50.095  12.225  1.00  0.00     0.243 C 
HETATM   10  O   UNL     1     -41.212 -49.683  13.370  1.00  0.00    -0.271 OA
HETATM   11  N   UNL     1     -42.063 -49.352  11.253  1.00  0.00    -0.278 N 
HETATM   12  C   UNL     1     -42.710 -48.143  11.414  1.00  0.00     0.323 C 
HETATM   13  H   UNL     1     -42.145 -49.728  10.314  1.00  0.00     0.173 HD
HETATM   14  O   UNL     1     -43.344 -47.650  10.487  1.00  0.00    -0.247 OA
HETATM   15  N   UNL     1     -42.589 -47.577  12.656  1.00  0.00    -0.338 N 
HETATM   16  H   UNL     1     -42.073 -48.114  13.350  1.00  0.00     0.164 HD
BRANCH  15  17
HETATM   17  C   UNL     1     -43.221 -46.372  13.074  1.00  0.00     0.086 A 
HETATM   18  C   UNL     1     -42.425 -45.175  13.510  1.00  0.00     0.027 A 
HETATM   19  C   UNL     1     -43.161 -45.989  14.531  1.00  0.00     0.027 A 
ENDBRANCH  15  17
ENDBRANCH   8   9
ENDBRANCH   6   8
BRANCH   1  20
HETATM   20  S   UNL     1     -45.121 -53.733  13.363  1.00  0.00     0.244 S 
HETATM   21  O   UNL     1     -45.493 -55.098  13.686  1.00  0.00    -0.206 OA
HETATM   22  O   UNL     1     -45.674 -53.103  12.176  1.00  0.00    -0.206 OA
BRANCH  20  23
HETATM   23  N   UNL     1     -45.616 -52.763  14.699  1.00  0.00    -0.215 NA
HETATM   24  C   UNL     1     -46.594 -51.697  14.374  1.00  0.00     0.129 C 
HETATM   25  C   UNL     1     -46.068 -53.562  15.864  1.00  0.00     0.129 C 
ENDBRANCH  20  23
ENDBRANCH   1  20
TORSDOF 5
ENDMDL
MODEL 2
REMARK VINA RESULT:      -6.1      2.499      6.077
REMARK  5 active torsions:
REMARK  status: ('A' for Active; 'I' for Inactive)
REMARK    1  A    between atoms: N_2  and  S_4 
REMARK    2  A    between atoms: S_4  and  C_7 
REMARK    3  A    between atoms: N_12  and  C_13 
REMARK    4  A    between atoms: C_13  and  C_14 
REMARK       I    between atoms: C_14  and  N_16 
REMARK       I    between atoms: N_16  and  C_17 
REMARK       I    between atoms: C_17  and  N_19 
REMARK    5  A    between atoms: N_19  and  C_20 
ROOT
HETATM    1  C   UNL     1     -40.075 -48.654  11.845  1.00  0.00     0.090 A 
HETATM    2  C   UNL     1     -38.748 -48.621  12.424  1.00  0.00     0.032 A 
HETATM    3  C   UNL     1     -38.164 -49.747  12.860  1.00  0.00     0.076 A 
HETATM    4  C   UNL     1     -38.862 -51.054  12.720  1.00  0.00     0.247 A 
HETATM    5  O   UNL     1     -38.281 -52.098  13.003  1.00  0.00    -0.268 OA
HETATM    6  N   UNL     1     -40.165 -51.002  12.233  1.00  0.00    -0.314 N 
HETATM    7  C   UNL     1     -40.749 -49.816  11.801  1.00  0.00     0.119 A 
ENDROOT
BRANCH   6   8
HETATM    8  C   UNL     1     -40.872 -52.267  12.044  1.00  0.00     0.234 C 
BRANCH   8   9
HETATM    9  C   UNL     1     -42.143 -52.271  12.886  1.00  0.00     0.243 C 
HETATM   10  O   UNL     1     -42.140 -51.838  14.042  1.00  0.00    -0.271 OA
HETATM   11  N   UNL     1     -43.291 -52.670  12.226  1.00  0.00    -0.278 N 
HETATM   12  C   UNL     1     -44.558 -52.808  12.756  1.00  0.00     0.323 C 
HETATM   13  H   UNL     1     -43.229 -52.959  11.255  1.00  0.00     0.173 HD
HETATM   14  O   UNL     1     -45.464 -53.285  12.082  1.00  0.00    -0.247 OA
HETATM   15  N   UNL     1     -44.697 -52.389  14.054  1.00  0.00    -0.338 N 
HETATM   16  H   UNL     1     -43.852 -52.055  14.514  1.00  0.00     0.164 HD
BRANCH  15  17
HETATM   17  C   UNL     1     -45.887 -52.494  14.827  1.00  0.00     0.086 A 
HETATM   18  C   UNL     1     -46.954 -51.438  14.779  1.00  0.00     0.027 A 
HETATM   19  C   UNL     1     -46.080 -51.555  15.992  1.00  0.00     0.027 A 
ENDBRANCH  15  17
ENDBRANCH   8   9
ENDBRANCH   6   8
BRANCH   1  20
HETATM   20  S   UNL     1     -40.808 -47.224  11.147  1.00  0.00     0.244 S 
HETATM   21  O   UNL     1     -41.829 -47.642  10.206  1.00  0.00    -0.206 OA
HETATM   22  O   UNL     1     -39.769 -46.306  10.714  1.00  0.00    -0.206 OA
BRANCH  20  23
HETATM   23  N   UNL     1     -41.631 -46.443  12.445  1.00  0.00    -0.215 NA
HETATM   24  C   UNL     1     -41.600 -44.961  12.409  1.00  0.00     0.129 C 
HETATM   25  C   UNL     1     -43.014 -46.941  12.641  1.00  0.00     0.129 C 
ENDBRANCH  20  23
ENDBRANCH   1  20
TORSDOF 5
ENDMDL
MODEL 3
REMARK VINA RESULT:      -5.9      4.043      6.375
REMARK  5 active torsions:
REMARK  status: ('A' for Active; 'I' for Inactive)
REMARK    1  A    between atoms: N_2  and  S_4 
REMARK    2  A    between atoms: S_4  and  C_7 
REMARK    3  A    between atoms: N_12  and  C_13 
REMARK    4  A    between atoms: C_13  and  C_14 
REMARK       I    between atoms: C_14  and  N_16 
REMARK       I    between atoms: N_16  and  C_17 
REMARK       I    between atoms: C_17  and  N_19 
REMARK    5  A    between atoms: N_19  and  C_20 
ROOT
HETATM    1  C   UNL     1     -46.569 -52.177  15.942  1.00  0.00     0.090 A 
HETATM    2  C   UNL     1     -46.872 -51.248  14.874  1.00  0.00     0.032 A 
HETATM    3  C   UNL     1     -46.553 -51.538  13.604  1.00  0.00     0.076 A 
HETATM    4  C   UNL     1     -45.911 -52.839  13.273  1.00  0.00     0.247 A 
HETATM    5  O   UNL     1     -45.731 -53.159  12.102  1.00  0.00    -0.268 OA
HETATM    6  N   UNL     1     -45.572 -53.647  14.356  1.00  0.00    -0.314 N 
HETATM    7  C   UNL     1     -45.906 -53.313  15.663  1.00  0.00     0.119 A 
ENDROOT
BRANCH   6   8
HETATM    8  C   UNL     1     -44.976 -54.951  14.072  1.00  0.00     0.234 C 
BRANCH   8   9
HETATM    9  C   UNL     1     -43.499 -54.927  14.446  1.00  0.00     0.243 C 
HETATM   10  O   UNL     1     -43.077 -55.573  15.410  1.00  0.00    -0.271 OA
HETATM   11  N   UNL     1     -42.675 -54.244  13.569  1.00  0.00    -0.278 N 
HETATM   12  C   UNL     1     -41.317 -54.030  13.688  1.00  0.00     0.323 C 
HETATM   13  H   UNL     1     -43.084 -53.784  12.763  1.00  0.00     0.173 HD
HETATM   14  O   UNL     1     -40.730 -53.304  12.893  1.00  0.00    -0.247 OA
HETATM   15  N   UNL     1     -40.715 -54.670  14.741  1.00  0.00    -0.338 N 
HETATM   16  H   UNL     1     -41.326 -55.207  15.354  1.00  0.00     0.164 HD
BRANCH  15  17
HETATM   17  C   UNL     1     -39.343 -54.547  15.100  1.00  0.00     0.086 A 
HETATM   18  C   UNL     1     -38.695 -55.490  16.073  1.00  0.00     0.027 A 
HETATM   19  C   UNL     1     -38.998 -54.083  16.493  1.00  0.00     0.027 A 
ENDBRANCH  15  17
ENDBRANCH   8   9
ENDBRANCH   6   8
BRANCH   1  20
HETATM   20  S   UNL     1     -47.093 -51.885  17.589  1.00  0.00     0.244 S 
HETATM   21  O   UNL     1     -46.613 -52.970  18.424  1.00  0.00    -0.206 OA
HETATM   22  O   UNL     1     -48.505 -51.547  17.598  1.00  0.00    -0.206 OA
BRANCH  20  23
HETATM   23  N   UNL     1     -46.253 -50.468  18.100  1.00  0.00    -0.215 NA
HETATM   24  C   UNL     1     -47.093 -49.449  18.772  1.00  0.00     0.129 C 
HETATM   25  C   UNL     1     -45.039 -50.767  18.897  1.00  0.00     0.129 C 
ENDBRANCH  20  23
ENDBRANCH   1  20
TORSDOF 5
ENDMDL
MODEL 4
REMARK VINA RESULT:      -5.8      5.277      7.689
REMARK  5 active torsions:
REMARK  status: ('A' for Active; 'I' for Inactive)
REMARK    1  A    between atoms: N_2  and  S_4 
REMARK    2  A    between atoms: S_4  and  C_7 
REMARK    3  A    between atoms: N_12  and  C_13 
REMARK    4  A    between atoms: C_13  and  C_14 
REMARK       I    between atoms: C_14  and  N_16 
REMARK       I    between atoms: N_16  and  C_17 
REMARK       I    between atoms: C_17  and  N_19 
REMARK    5  A    between atoms: N_19  and  C_20 
ROOT
HETATM    1  C   UNL     1     -41.364 -45.051  13.137  1.00  0.00     0.090 A 
HETATM    2  C   UNL     1     -40.338 -45.122  14.156  1.00  0.00     0.032 A 
HETATM    3  C   UNL     1     -39.521 -46.182  14.232  1.00  0.00     0.076 A 
HETATM    4  C   UNL     1     -39.637 -47.287  13.242  1.00  0.00     0.247 A 
HETATM    5  O   UNL     1     -38.813 -48.198  13.233  1.00  0.00    -0.268 OA
HETATM    6  N   UNL     1     -40.697 -47.195  12.343  1.00  0.00    -0.314 N 
HETATM    7  C   UNL     1     -41.536 -46.087  12.299  1.00  0.00     0.119 A 
ENDROOT
BRANCH   6   8
HETATM    8  C   UNL     1     -40.823 -48.240  11.330  1.00  0.00     0.234 C 
BRANCH   8   9
HETATM    9  C   UNL     1     -42.211 -48.177  10.703  1.00  0.00     0.243 C 
HETATM   10  O   UNL     1     -43.226 -48.285  11.397  1.00  0.00    -0.271 OA
HETATM   11  N   UNL     1     -42.240 -47.871   9.354  1.00  0.00    -0.278 N 
HETATM   12  C   UNL     1     -43.349 -47.794   8.536  1.00  0.00     0.323 C 
HETATM   13  H   UNL     1     -41.365 -47.737   8.858  1.00  0.00     0.173 HD
HETATM   14  O   UNL     1     -43.218 -47.628   7.328  1.00  0.00    -0.247 OA
HETATM   15  N   UNL     1     -44.555 -47.926   9.172  1.00  0.00    -0.338 N 
HETATM   16  H   UNL     1     -44.521 -48.107  10.174  1.00  0.00     0.164 HD
BRANCH  15  17
HETATM   17  C   UNL     1     -45.825 -47.946   8.529  1.00  0.00     0.086 A 
HETATM   18  C   UNL     1     -47.023 -47.270   9.129  1.00  0.00     0.027 A 
HETATM   19  C   UNL     1     -46.934 -48.766   9.139  1.00  0.00     0.027 A 
ENDBRANCH  15  17
ENDBRANCH   8   9
ENDBRANCH   6   8
BRANCH   1  20
HETATM   20  S   UNL     1     -42.357 -43.622  12.931  1.00  0.00     0.244 S 
HETATM   21  O   UNL     1     -43.336 -43.583  14.001  1.00  0.00    -0.206 OA
HETATM   22  O   UNL     1     -42.800 -43.531  11.551  1.00  0.00    -0.206 OA
BRANCH  20  23
HETATM   23  N   UNL     1     -41.301 -42.282  13.188  1.00  0.00    -0.215 NA
HETATM   24  C   UNL     1     -40.411 -41.957  12.048  1.00  0.00     0.129 C 
HETATM   25  C   UNL     1     -42.006 -41.071  13.675  1.00  0.00     0.129 C 
ENDBRANCH  20  23
ENDBRANCH   1  20
TORSDOF 5
ENDMDL
MODEL 5
REMARK VINA RESULT:      -5.6      2.872      4.846
REMARK  5 active torsions:
REMARK  status: ('A' for Active; 'I' for Inactive)
REMARK    1  A    between atoms: N_2  and  S_4 
REMARK    2  A    between atoms: S_4  and  C_7 
REMARK    3  A    between atoms: N_12  and  C_13 
REMARK    4  A    between atoms: C_13  and  C_14 
REMARK       I    between atoms: C_14  and  N_16 
REMARK       I    between atoms: N_16  and  C_17 
REMARK       I    between atoms: C_17  and  N_19 
REMARK    5  A    between atoms: N_19  and  C_20 
ROOT
HETATM    1  C   UNL     1     -45.173 -51.693  15.523  1.00  0.00     0.090 A 
HETATM    2  C   UNL     1     -46.478 -51.347  15.001  1.00  0.00     0.032 A 
HETATM    3  C   UNL     1     -46.797 -51.609  13.726  1.00  0.00     0.076 A 
HETATM    4  C   UNL     1     -45.819 -52.296  12.837  1.00  0.00     0.247 A 
HETATM    5  O   UNL     1     -46.150 -52.647  11.709  1.00  0.00    -0.268 OA
HETATM    6  N   UNL     1     -44.556 -52.524  13.378  1.00  0.00    -0.314 N 
HETATM    7  C   UNL     1     -44.253 -52.228  14.702  1.00  0.00     0.119 A 
ENDROOT
BRANCH   6   8
HETATM    8  C   UNL     1     -43.579 -53.230  12.552  1.00  0.00     0.234 C 
BRANCH   8   9
HETATM    9  C   UNL     1     -42.239 -52.509  12.621  1.00  0.00     0.243 C 
HETATM   10  O   UNL     1     -41.267 -53.024  13.181  1.00  0.00    -0.271 OA
HETATM   11  N   UNL     1     -42.167 -51.321  11.915  1.00  0.00    -0.278 N 
HETATM   12  C   UNL     1     -41.097 -50.451  11.844  1.00  0.00     0.323 C 
HETATM   13  H   UNL     1     -42.991 -50.984  11.427  1.00  0.00     0.173 HD
HETATM   14  O   UNL     1     -41.213 -49.371  11.274  1.00  0.00    -0.247 OA
HETATM   15  N   UNL     1     -39.950 -50.886  12.453  1.00  0.00    -0.338 N 
HETATM   16  H   UNL     1     -40.003 -51.783  12.931  1.00  0.00     0.164 HD
BRANCH  15  17
HETATM   17  C   UNL     1     -38.745 -50.135  12.565  1.00  0.00     0.086 A 
HETATM   18  C   UNL     1     -37.706 -50.147  11.481  1.00  0.00     0.027 A 
HETATM   19  C   UNL     1     -37.446 -50.875  12.766  1.00  0.00     0.027 A 
ENDBRANCH  15  17
ENDBRANCH   8   9
ENDBRANCH   6   8
BRANCH   1  20
HETATM   20  S   UNL     1     -44.777 -51.485  17.218  1.00  0.00     0.244 S 
HETATM   21  O   UNL     1     -43.360 -51.188  17.326  1.00  0.00    -0.206 OA
HETATM   22  O   UNL     1     -45.339 -52.580  17.988  1.00  0.00    -0.206 OA
BRANCH  20  23
HETATM   23  N   UNL     1     -45.613 -50.062  17.719  1.00  0.00    -0.215 NA
HETATM   24  C   UNL     1     -46.184 -50.118  19.085  1.00  0.00     0.129 C 
HETATM   25  C   UNL     1     -44.823 -48.823  17.523  1.00  0.00     0.129 C 
ENDBRANCH  20  23
ENDBRANCH   1  20
TORSDOF 5
ENDMDL
MODEL 6
REMARK VINA RESULT:      -5.5      4.435      9.210
REMARK  5 active torsions:
REMARK  status: ('A' for Active; 'I' for Inactive)
REMARK    1  A    between atoms: N_2  and  S_4 
REMARK    2  A    between atoms: S_4  and  C_7 
REMARK    3  A    between atoms: N_12  and  C_13 
REMARK    4  A    between atoms: C_13  and  C_14 
REMARK       I    between atoms: C_14  and  N_16 
REMARK       I    between atoms: N_16  and  C_17 
REMARK       I    between atoms: C_17  and  N_19 
REMARK    5  A    between atoms: N_19  and  C_20 
ROOT
HETATM    1  C   UNL     1     -45.905 -52.969  14.787  1.00  0.00     0.090 A 
HETATM    2  C   UNL     1     -46.801 -51.835  14.711  1.00  0.00     0.032 A 
HETATM    3  C   UNL     1     -47.278 -51.264  15.827  1.00  0.00     0.076 A 
HETATM    4  C   UNL     1     -46.860 -51.770  17.163  1.00  0.00     0.247 A 
HETATM    5  O   UNL     1     -47.196 -51.174  18.182  1.00  0.00    -0.268 OA
HETATM    6  N   UNL     1     -46.066 -52.914  17.162  1.00  0.00    -0.314 N 
HETATM    7  C   UNL     1     -45.598 -53.491  15.987  1.00  0.00     0.119 A 
ENDROOT
BRANCH   6   8
HETATM    8  C   UNL     1     -45.602 -53.422  18.452  1.00  0.00     0.234 C 
BRANCH   8   9
HETATM    9  C   UNL     1     -46.633 -54.390  19.018  1.00  0.00     0.243 C 
HETATM   10  O   UNL     1     -46.563 -55.600  18.785  1.00  0.00    -0.271 OA
HETATM   11  N   UNL     1     -47.553 -53.835  19.891  1.00  0.00    -0.278 N 
HETATM   12  C   UNL     1     -48.612 -54.470  20.507  1.00  0.00     0.323 C 
HETATM   13  H   UNL     1     -47.516 -52.840  20.082  1.00  0.00     0.173 HD
HETATM   14  O   UNL     1     -49.421 -53.827  21.167  1.00  0.00    -0.247 OA
HETATM   15  N   UNL     1     -48.676 -55.825  20.310  1.00  0.00    -0.338 N 
HETATM   16  H   UNL     1     -47.966 -56.228  19.702  1.00  0.00     0.164 HD
BRANCH  15  17
HETATM   17  C   UNL     1     -49.711 -56.676  20.791  1.00  0.00     0.086 A 
HETATM   18  C   UNL     1     -49.407 -57.976  21.477  1.00  0.00     0.027 A 
HETATM   19  C   UNL     1     -49.960 -57.985  20.084  1.00  0.00     0.027 A 
ENDBRANCH  15  17
ENDBRANCH   8   9
ENDBRANCH   6   8
BRANCH   1  20
HETATM   20  S   UNL     1     -45.163 -53.651  13.353  1.00  0.00     0.244 S 
HETATM   21  O   UNL     1     -45.632 -52.912  12.196  1.00  0.00    -0.206 OA
HETATM   22  O   UNL     1     -45.291 -55.097  13.378  1.00  0.00    -0.206 OA
BRANCH  20  23
HETATM   23  N   UNL     1     -43.478 -53.313  13.497  1.00  0.00    -0.215 NA
HETATM   24  C   UNL     1     -42.644 -54.454  13.943  1.00  0.00     0.129 C 
HETATM   25  C   UNL     1     -42.906 -52.678  12.285  1.00  0.00     0.129 C 
ENDBRANCH  20  23
ENDBRANCH   1  20
TORSDOF 5
ENDMDL
MODEL 7
REMARK VINA RESULT:      -5.5      2.100      2.889
REMARK  5 active torsions:
REMARK  status: ('A' for Active; 'I' for Inactive)
REMARK    1  A    between atoms: N_2  and  S_4 
REMARK    2  A    between atoms: S_4  and  C_7 
REMARK    3  A    between atoms: N_12  and  C_13 
REMARK    4  A    between atoms: C_13  and  C_14 
REMARK       I    between atoms: C_14  and  N_16 
REMARK       I    between atoms: N_16  and  C_17 
REMARK       I    between atoms: C_17  and  N_19 
REMARK    5  A    between atoms: N_19  and  C_20 
ROOT
HETATM    1  C   UNL     1     -43.653 -54.440  14.920  1.00  0.00     0.090 A 
HETATM    2  C   UNL     1     -43.129 -54.553  16.265  1.00  0.00     0.032 A 
HETATM    3  C   UNL     1     -41.810 -54.484  16.494  1.00  0.00     0.076 A 
HETATM    4  C   UNL     1     -40.867 -54.253  15.365  1.00  0.00     0.247 A 
HETATM    5  O   UNL     1     -39.674 -54.065  15.586  1.00  0.00    -0.268 OA
HETATM    6  N   UNL     1     -41.429 -54.237  14.092  1.00  0.00    -0.314 N 
HETATM    7  C   UNL     1     -42.801 -54.325  13.886  1.00  0.00     0.119 A 
ENDROOT
BRANCH   6   8
HETATM    8  C   UNL     1     -40.544 -53.974  12.959  1.00  0.00     0.234 C 
BRANCH   8   9
HETATM    9  C   UNL     1     -40.744 -52.543  12.477  1.00  0.00     0.243 C 
HETATM   10  O   UNL     1     -41.633 -52.264  11.668  1.00  0.00    -0.271 OA
HETATM   11  N   UNL     1     -39.955 -51.591  13.098  1.00  0.00    -0.278 N 
HETATM   12  C   UNL     1     -39.901 -50.239  12.825  1.00  0.00     0.323 C 
HETATM   13  H   UNL     1     -39.283 -51.886  13.798  1.00  0.00     0.173 HD
HETATM   14  O   UNL     1     -39.066 -49.528  13.374  1.00  0.00    -0.247 OA
HETATM   15  N   UNL     1     -40.821 -49.790  11.914  1.00  0.00    -0.338 N 
HETATM   16  H   UNL     1     -41.427 -50.495  11.498  1.00  0.00     0.164 HD
BRANCH  15  17
HETATM   17  C   UNL     1     -40.913 -48.454  11.430  1.00  0.00     0.086 A 
HETATM   18  C   UNL     1     -42.128 -47.608  11.677  1.00  0.00     0.027 A 
HETATM   19  C   UNL     1     -41.871 -48.155  10.305  1.00  0.00     0.027 A 
ENDBRANCH  15  17
ENDBRANCH   8   9
ENDBRANCH   6   8
BRANCH   1  20
HETATM   20  S   UNL     1     -45.376 -54.393  14.607  1.00  0.00     0.244 S 
HETATM   21  O   UNL     1     -46.078 -54.597  15.860  1.00  0.00    -0.206 OA
HETATM   22  O   UNL     1     -45.687 -55.239  13.467  1.00  0.00    -0.206 OA
BRANCH  20  23
HETATM   23  N   UNL     1     -45.716 -52.776  14.115  1.00  0.00    -0.215 NA
HETATM   24  C   UNL     1     -45.909 -52.590  12.657  1.00  0.00     0.129 C 
HETATM   25  C   UNL     1     -46.822 -52.154  14.882  1.00  0.00     0.129 C 
ENDBRANCH  20  23
ENDBRANCH   1  20
TORSDOF 5
ENDMDL
MODEL 8
REMARK VINA RESULT:      -5.5      2.178      2.782
REMARK  5 active torsions:
REMARK  status: ('A' for Active; 'I' for Inactive)
REMARK    1  A    between atoms: N_2  and  S_4 
REMARK    2  A    between atoms: S_4  and  C_7 
REMARK    3  A    between atoms: N_12  and  C_13 
REMARK    4  A    between atoms: C_13  and  C_14 
REMARK       I    between atoms: C_14  and  N_16 
REMARK       I    between atoms: N_16  and  C_17 
REMARK       I    between atoms: C_17  and  N_19 
REMARK    5  A    between atoms: N_19  and  C_20 
ROOT
HETATM    1  C   UNL     1     -42.926 -53.687  14.997  1.00  0.00     0.090 A 
HETATM    2  C   UNL     1     -41.796 -54.240  15.712  1.00  0.00     0.032 A 
HETATM    3  C   UNL     1     -40.587 -54.303  15.136  1.00  0.00     0.076 A 
HETATM    4  C   UNL     1     -40.385 -53.769  13.761  1.00  0.00     0.247 A 
HETATM    5  O   UNL     1     -39.257 -53.713  13.279  1.00  0.00    -0.268 OA
HETATM    6  N   UNL     1     -41.530 -53.329  13.101  1.00  0.00    -0.314 N 
HETATM    7  C   UNL     1     -42.773 -53.289  13.722  1.00  0.00     0.119 A 
ENDROOT
BRANCH   6   8
HETATM    8  C   UNL     1     -41.371 -52.762  11.764  1.00  0.00     0.234 C 
BRANCH   8   9
HETATM    9  C   UNL     1     -41.055 -51.275  11.876  1.00  0.00     0.243 C 
HETATM   10  O   UNL     1     -41.938 -50.458  12.150  1.00  0.00    -0.271 OA
HETATM   11  N   UNL     1     -39.716 -50.944  11.772  1.00  0.00    -0.278 N 
HETATM   12  C   UNL     1     -39.162 -49.679  11.792  1.00  0.00     0.323 C 
HETATM   13  H   UNL     1     -39.036 -51.677  11.603  1.00  0.00     0.173 HD
HETATM   14  O   UNL     1     -37.966 -49.523  11.571  1.00  0.00    -0.247 OA
HETATM   15  N   UNL     1     -40.039 -48.661  12.060  1.00  0.00    -0.338 N 
HETATM   16  H   UNL     1     -41.015 -48.924  12.179  1.00  0.00     0.164 HD
BRANCH  15  17
HETATM   17  C   UNL     1     -39.711 -47.276  12.068  1.00  0.00     0.086 A 
HETATM   18  C   UNL     1     -39.330 -46.564  13.334  1.00  0.00     0.027 A 
HETATM   19  C   UNL     1     -40.670 -46.307  12.713  1.00  0.00     0.027 A 
ENDBRANCH  15  17
ENDBRANCH   8   9
ENDBRANCH   6   8
BRANCH   1  20
HETATM   20  S   UNL     1     -44.484 -53.469  15.770  1.00  0.00     0.244 S 
HETATM   21  O   UNL     1     -44.560 -52.113  16.280  1.00  0.00    -0.206 OA
HETATM   22  O   UNL     1     -44.745 -54.585  16.663  1.00  0.00    -0.206 OA
BRANCH  20  23
HETATM   23  N   UNL     1     -45.650 -53.581  14.505  1.00  0.00    -0.215 NA
HETATM   24  C   UNL     1     -46.072 -54.960  14.159  1.00  0.00     0.129 C 
HETATM   25  C   UNL     1     -46.826 -52.703  14.718  1.00  0.00     0.129 C 
ENDBRANCH  20  23
ENDBRANCH   1  20
TORSDOF 5
ENDMDL
MODEL 9
REMARK VINA RESULT:      -5.4      2.273      2.730
REMARK  5 active torsions:
REMARK  status: ('A' for Active; 'I' for Inactive)
REMARK    1  A    between atoms: N_2  and  S_4 
REMARK    2  A    between atoms: S_4  and  C_7 
REMARK    3  A    between atoms: N_12  and  C_13 
REMARK    4  A    between atoms: C_13  and  C_14 
REMARK       I    between atoms: C_14  and  N_16 
REMARK       I    between atoms: N_16  and  C_17 
REMARK       I    between atoms: C_17  and  N_19 
REMARK    5  A    between atoms: N_19  and  C_20 
ROOT
HETATM    1  C   UNL     1     -42.973 -53.223  14.512  1.00  0.00     0.090 A 
HETATM    2  C   UNL     1     -42.171 -54.203  13.811  1.00  0.00     0.032 A 
HETATM    3  C   UNL     1     -41.090 -53.829  13.111  1.00  0.00     0.076 A 
HETATM    4  C   UNL     1     -40.681 -52.398  13.076  1.00  0.00     0.247 A 
HETATM    5  O   UNL     1     -39.627 -52.069  12.540  1.00  0.00    -0.268 OA
HETATM    6  N   UNL     1     -41.543 -51.500  13.701  1.00  0.00    -0.314 N 
HETATM    7  C   UNL     1     -42.664 -51.918  14.408  1.00  0.00     0.119 A 
ENDROOT
BRANCH   6   8
HETATM    8  C   UNL     1     -41.159 -50.090  13.722  1.00  0.00     0.234 C 
BRANCH   8   9
HETATM    9  C   UNL     1     -41.753 -49.381  12.511  1.00  0.00     0.243 C 
HETATM   10  O   UNL     1     -42.855 -49.709  12.061  1.00  0.00    -0.271 OA
HETATM   11  N   UNL     1     -41.037 -48.291  12.051  1.00  0.00    -0.278 N 
HETATM   12  C   UNL     1     -41.322 -47.503  10.953  1.00  0.00     0.323 C 
HETATM   13  H   UNL     1     -40.166 -48.042  12.507  1.00  0.00     0.173 HD
HETATM   14  O   UNL     1     -40.534 -46.638  10.589  1.00  0.00    -0.247 OA
HETATM   15  N   UNL     1     -42.512 -47.777  10.332  1.00  0.00    -0.338 N 
HETATM   16  H   UNL     1     -43.052 -48.554  10.709  1.00  0.00     0.164 HD
BRANCH  15  17
HETATM   17  C   UNL     1     -42.985 -47.143   9.148  1.00  0.00     0.086 A 
HETATM   18  C   UNL     1     -43.934 -45.981   9.202  1.00  0.00     0.027 A 
HETATM   19  C   UNL     1     -44.431 -47.323   8.757  1.00  0.00     0.027 A 
ENDBRANCH  15  17
ENDBRANCH   8   9
ENDBRANCH   6   8
BRANCH   1  20
HETATM   20  S   UNL     1     -44.309 -53.696  15.542  1.00  0.00     0.244 S 
HETATM   21  O   UNL     1     -44.690 -52.557  16.356  1.00  0.00    -0.206 OA
HETATM   22  O   UNL     1     -44.005 -54.964  16.183  1.00  0.00    -0.206 OA
BRANCH  20  23
HETATM   23  N   UNL     1     -45.632 -53.999  14.477  1.00  0.00    -0.215 NA
HETATM   24  C   UNL     1     -45.915 -52.916  13.505  1.00  0.00     0.129 C 
HETATM   25  C   UNL     1     -45.544 -55.314  13.798  1.00  0.00     0.129 C 
ENDBRANCH  20  23
ENDBRANCH   1  20
TORSDOF 5
ENDMDL
