MODEL 1
REMARK VINA RESULT:      -5.9      0.000      0.000
REMARK  3 active torsions:
REMARK  status: ('A' for Active; 'I' for Inactive)
REMARK    1  A    between atoms: N_4  and  C_9 
REMARK    2  A    between atoms: C_12  and  C_16 
REMARK    3  A    between atoms: C_16  and  O_18 
ROOT
HETATM    1  C   UNL     1     -43.289 -53.744  14.037  1.00  0.00     0.103 A 
HETATM    2  C   UNL     1     -42.735 -54.116  15.262  1.00  0.00     0.049 A 
HETATM    3  C   UNL     1     -41.395 -54.483  15.352  1.00  0.00     0.023 A 
HETATM    4  C   UNL     1     -40.613 -54.467  14.206  1.00  0.00     0.053 A 
HETATM    5  C   UNL     1     -41.235 -54.136  13.013  1.00  0.00     0.108 A 
HETATM    6  N   UNL     1     -42.543 -53.779  12.911  1.00  0.00    -0.351 N 
ATOM      7  HN  UNL     1     -42.951 -53.542  12.007  1.00  0.00     0.166 HD
ENDROOT
BRANCH   1   8
HETATM    8  N   UNL     1     -44.615 -53.403  13.962  1.00  0.00    -0.362 N 
HETATM    9  C   UNL     1     -45.529 -53.617  15.084  1.00  0.00     0.156 C 
HETATM   10  C   UNL     1     -46.469 -52.384  15.173  1.00  0.00     0.136 C 
HETATM   11  C   UNL     1     -45.744 -51.153  15.723  1.00  0.00     0.041 C 
HETATM   12  O   UNL     1     -47.109 -52.086  13.908  1.00  0.00    -0.378 OA
HETATM   13  C   UNL     1     -46.176 -51.944  12.817  1.00  0.00     0.136 C 
HETATM   14  C   UNL     1     -45.292 -53.197  12.684  1.00  0.00     0.156 C 
HETATM   15  C   UNL     1     -46.965 -51.702  11.540  1.00  0.00     0.041 C 
ENDBRANCH   1   8
BRANCH   4  16
HETATM   16  C   UNL     1     -39.192 -54.847  14.296  1.00  0.00     0.177 C 
HETATM   17  O   UNL     1     -38.771 -55.611  15.148  1.00  0.00    -0.646 OA
BRANCH  16  18
HETATM   18  O   UNL     1     -38.396 -54.233  13.396  1.00  0.00    -0.773 OA
HETATM   19  H   UNL     1     -37.861 -54.815  12.826  1.00  0.00     0.167 HD
ENDBRANCH  16  18
ENDBRANCH   4  16
TORSDOF 3
ENDMDL
MODEL 2
REMARK VINA RESULT:      -5.8      7.445      9.723
REMARK  3 active torsions:
REMARK  status: ('A' for Active; 'I' for Inactive)
REMARK    1  A    between atoms: N_4  and  C_9 
REMARK    2  A    between atoms: C_12  and  C_16 
REMARK    3  A    between atoms: C_16  and  O_18 
ROOT
HETATM    1  C   UNL     1     -42.386 -46.723  10.280  1.00  0.00     0.103 A 
HETATM    2  C   UNL     1     -43.358 -47.397  11.018  1.00  0.00     0.049 A 
HETATM    3  C   UNL     1     -44.577 -47.741  10.440  1.00  0.00     0.023 A 
HETATM    4  C   UNL     1     -44.811 -47.409   9.113  1.00  0.00     0.053 A 
HETATM    5  C   UNL     1     -43.825 -46.695   8.450  1.00  0.00     0.108 A 
HETATM    6  N   UNL     1     -42.633 -46.352   9.004  1.00  0.00    -0.351 N 
ATOM      7  HN  UNL     1     -41.940 -45.828   8.469  1.00  0.00     0.166 HD
ENDROOT
BRANCH   1   8
HETATM    8  N   UNL     1     -41.198 -46.376  10.870  1.00  0.00    -0.362 N 
HETATM    9  C   UNL     1     -40.402 -45.246  10.392  1.00  0.00     0.156 C 
HETATM   10  C   UNL     1     -39.840 -44.501  11.633  1.00  0.00     0.136 C 
HETATM   11  C   UNL     1     -40.925 -43.703  12.360  1.00  0.00     0.041 C 
HETATM   12  O   UNL     1     -39.153 -45.392  12.547  1.00  0.00    -0.378 OA
HETATM   13  C   UNL     1     -39.953 -46.526  12.944  1.00  0.00     0.136 C 
HETATM   14  C   UNL     1     -40.450 -47.306  11.714  1.00  0.00     0.156 C 
HETATM   15  C   UNL     1     -39.108 -47.417  13.842  1.00  0.00     0.041 C 
ENDBRANCH   1   8
BRANCH   4  16
HETATM   16  C   UNL     1     -46.096 -47.776   8.492  1.00  0.00     0.177 C 
HETATM   17  O   UNL     1     -47.169 -47.419   8.948  1.00  0.00    -0.646 OA
BRANCH  16  18
HETATM   18  O   UNL     1     -45.982 -48.585   7.419  1.00  0.00    -0.773 OA
HETATM   19  H   UNL     1     -46.270 -49.508   7.541  1.00  0.00     0.167 HD
ENDBRANCH  16  18
ENDBRANCH   4  16
TORSDOF 3
ENDMDL
MODEL 3
REMARK VINA RESULT:      -5.7      2.826      3.587
REMARK  3 active torsions:
REMARK  status: ('A' for Active; 'I' for Inactive)
REMARK    1  A    between atoms: N_4  and  C_9 
REMARK    2  A    between atoms: C_12  and  C_16 
REMARK    3  A    between atoms: C_16  and  O_18 
ROOT
HETATM    1  C   UNL     1     -42.306 -51.828  12.739  1.00  0.00     0.103 A 
HETATM    2  C   UNL     1     -41.232 -52.435  13.390  1.00  0.00     0.049 A 
HETATM    3  C   UNL     1     -39.934 -51.965  13.207  1.00  0.00     0.023 A 
HETATM    4  C   UNL     1     -39.723 -50.877  12.372  1.00  0.00     0.053 A 
HETATM    5  C   UNL     1     -40.825 -50.351  11.716  1.00  0.00     0.108 A 
HETATM    6  N   UNL     1     -42.096 -50.802  11.885  1.00  0.00    -0.351 N 
ATOM      7  HN  UNL     1     -42.873 -50.377  11.378  1.00  0.00     0.166 HD
ENDROOT
BRANCH   1   8
HETATM    8  N   UNL     1     -43.576 -52.315  12.916  1.00  0.00    -0.362 N 
HETATM    9  C   UNL     1     -43.995 -53.594  12.346  1.00  0.00     0.156 C 
HETATM   10  C   UNL     1     -44.879 -54.317  13.399  1.00  0.00     0.136 C 
HETATM   11  C   UNL     1     -44.047 -54.865  14.562  1.00  0.00     0.041 C 
HETATM   12  O   UNL     1     -45.956 -53.479  13.884  1.00  0.00    -0.378 OA
HETATM   13  C   UNL     1     -45.504 -52.201  14.379  1.00  0.00     0.136 C 
HETATM   14  C   UNL     1     -44.689 -51.454  13.309  1.00  0.00     0.156 C 
HETATM   15  C   UNL     1     -46.723 -51.390  14.794  1.00  0.00     0.041 C 
ENDBRANCH   1   8
BRANCH   4  16
HETATM   16  C   UNL     1     -38.352 -50.369  12.180  1.00  0.00     0.177 C 
HETATM   17  O   UNL     1     -37.980 -49.302  12.637  1.00  0.00    -0.646 OA
BRANCH  16  18
HETATM   18  O   UNL     1     -37.573 -51.156  11.410  1.00  0.00    -0.773 OA
HETATM   19  H   UNL     1     -37.803 -52.103  11.390  1.00  0.00     0.167 HD
ENDBRANCH  16  18
ENDBRANCH   4  16
TORSDOF 3
ENDMDL
MODEL 4
REMARK VINA RESULT:      -5.7      5.933      8.276
REMARK  3 active torsions:
REMARK  status: ('A' for Active; 'I' for Inactive)
REMARK    1  A    between atoms: N_4  and  C_9 
REMARK    2  A    between atoms: C_12  and  C_16 
REMARK    3  A    between atoms: C_16  and  O_18 
ROOT
HETATM    1  C   UNL     1     -40.196 -49.140  11.489  1.00  0.00     0.103 A 
HETATM    2  C   UNL     1     -39.684 -47.872  11.761  1.00  0.00     0.049 A 
HETATM    3  C   UNL     1     -40.316 -46.732  11.272  1.00  0.00     0.023 A 
HETATM    4  C   UNL     1     -41.471 -46.874  10.515  1.00  0.00     0.053 A 
HETATM    5  C   UNL     1     -41.899 -48.163  10.239  1.00  0.00     0.108 A 
HETATM    6  N   UNL     1     -41.289 -49.283  10.708  1.00  0.00    -0.351 N 
ATOM      7  HN  UNL     1     -41.647 -50.209  10.476  1.00  0.00     0.166 HD
ENDROOT
BRANCH   1   8
HETATM    8  N   UNL     1     -39.549 -50.254  11.963  1.00  0.00    -0.362 N 
HETATM    9  C   UNL     1     -38.103 -50.421  11.824  1.00  0.00     0.156 C 
HETATM   10  C   UNL     1     -37.568 -51.040  13.145  1.00  0.00     0.136 C 
HETATM   11  C   UNL     1     -37.555 -50.022  14.288  1.00  0.00     0.041 C 
HETATM   12  O   UNL     1     -38.290 -52.237  13.525  1.00  0.00    -0.378 OA
HETATM   13  C   UNL     1     -39.719 -52.043  13.589  1.00  0.00     0.136 C 
HETATM   14  C   UNL     1     -40.260 -51.497  12.255  1.00  0.00     0.156 C 
HETATM   15  C   UNL     1     -40.369 -53.376  13.929  1.00  0.00     0.041 C 
ENDBRANCH   1   8
BRANCH   4  16
HETATM   16  C   UNL     1     -42.150 -45.671  10.001  1.00  0.00     0.177 C 
HETATM   17  O   UNL     1     -42.284 -44.660  10.668  1.00  0.00    -0.646 OA
BRANCH  16  18
HETATM   18  O   UNL     1     -42.657 -45.809   8.758  1.00  0.00    -0.773 OA
HETATM   19  H   UNL     1     -42.686 -46.716   8.403  1.00  0.00     0.167 HD
ENDBRANCH  16  18
ENDBRANCH   4  16
TORSDOF 3
ENDMDL
MODEL 5
REMARK VINA RESULT:      -5.5      7.436      8.910
REMARK  3 active torsions:
REMARK  status: ('A' for Active; 'I' for Inactive)
REMARK    1  A    between atoms: N_4  and  C_9 
REMARK    2  A    between atoms: C_12  and  C_16 
REMARK    3  A    between atoms: C_16  and  O_18 
ROOT
HETATM    1  C   UNL     1     -39.646 -47.595  11.761  1.00  0.00     0.103 A 
HETATM    2  C   UNL     1     -39.425 -46.837  12.911  1.00  0.00     0.049 A 
HETATM    3  C   UNL     1     -39.634 -45.461  12.905  1.00  0.00     0.023 A 
HETATM    4  C   UNL     1     -40.073 -44.851  11.738  1.00  0.00     0.053 A 
HETATM    5  C   UNL     1     -40.225 -45.651  10.617  1.00  0.00     0.108 A 
HETATM    6  N   UNL     1     -40.022 -46.995  10.610  1.00  0.00    -0.351 N 
ATOM      7  HN  UNL     1     -40.150 -47.539   9.756  1.00  0.00     0.166 HD
ENDROOT
BRANCH   1   8
HETATM    8  N   UNL     1     -39.417 -48.947  11.779  1.00  0.00    -0.362 N 
HETATM    9  C   UNL     1     -38.063 -49.498  11.800  1.00  0.00     0.156 C 
HETATM   10  C   UNL     1     -38.059 -50.712  12.769  1.00  0.00     0.136 C 
HETATM   11  C   UNL     1     -38.131 -50.273  14.234  1.00  0.00     0.041 C 
HETATM   12  O   UNL     1     -39.104 -51.666  12.462  1.00  0.00    -0.378 OA
HETATM   13  C   UNL     1     -40.416 -51.069  12.389  1.00  0.00     0.136 C 
HETATM   14  C   UNL     1     -40.438 -49.912  11.375  1.00  0.00     0.156 C 
HETATM   15  C   UNL     1     -41.413 -52.149  11.997  1.00  0.00     0.041 C 
ENDBRANCH   1   8
BRANCH   4  16
HETATM   16  C   UNL     1     -40.304 -43.395  11.726  1.00  0.00     0.177 C 
HETATM   17  O   UNL     1     -40.293 -42.723  12.743  1.00  0.00    -0.646 OA
BRANCH  16  18
HETATM   18  O   UNL     1     -40.584 -42.888  10.508  1.00  0.00    -0.773 OA
HETATM   19  H   UNL     1     -40.247 -43.391   9.744  1.00  0.00     0.167 HD
ENDBRANCH  16  18
ENDBRANCH   4  16
TORSDOF 3
ENDMDL
MODEL 6
REMARK VINA RESULT:      -5.3      6.616      9.189
REMARK  3 active torsions:
REMARK  status: ('A' for Active; 'I' for Inactive)
REMARK    1  A    between atoms: N_4  and  C_9 
REMARK    2  A    between atoms: C_12  and  C_16 
REMARK    3  A    between atoms: C_16  and  O_18 
ROOT
HETATM    1  C   UNL     1     -40.820 -47.972  11.601  1.00  0.00     0.103 A 
HETATM    2  C   UNL     1     -42.103 -48.484  11.404  1.00  0.00     0.049 A 
HETATM    3  C   UNL     1     -43.047 -47.770  10.670  1.00  0.00     0.023 A 
HETATM    4  C   UNL     1     -42.692 -46.542  10.129  1.00  0.00     0.053 A 
HETATM    5  C   UNL     1     -41.419 -46.067  10.404  1.00  0.00     0.108 A 
HETATM    6  N   UNL     1     -40.490 -46.753  11.120  1.00  0.00    -0.351 N 
ATOM      7  HN  UNL     1     -39.565 -46.358  11.291  1.00  0.00     0.166 HD
ENDROOT
BRANCH   1   8
HETATM    8  N   UNL     1     -39.909 -48.680  12.341  1.00  0.00    -0.362 N 
HETATM    9  C   UNL     1     -39.699 -50.113  12.138  1.00  0.00     0.156 C 
HETATM   10  C   UNL     1     -38.173 -50.388  12.239  1.00  0.00     0.136 C 
HETATM   11  C   UNL     1     -37.420 -49.886  11.005  1.00  0.00     0.041 C 
HETATM   12  O   UNL     1     -37.595 -49.850  13.453  1.00  0.00    -0.378 OA
HETATM   13  C   UNL     1     -37.880 -48.448  13.646  1.00  0.00     0.136 C 
HETATM   14  C   UNL     1     -39.396 -48.186  13.618  1.00  0.00     0.156 C 
HETATM   15  C   UNL     1     -37.282 -48.017  14.977  1.00  0.00     0.041 C 
ENDBRANCH   1   8
BRANCH   4  16
HETATM   16  C   UNL     1     -43.684 -45.784   9.345  1.00  0.00     0.177 C 
HETATM   17  O   UNL     1     -44.432 -46.319   8.545  1.00  0.00    -0.646 OA
BRANCH  16  18
HETATM   18  O   UNL     1     -43.648 -44.451   9.547  1.00  0.00    -0.773 OA
HETATM   19  H   UNL     1     -44.421 -43.947   9.233  1.00  0.00     0.167 HD
ENDBRANCH  16  18
ENDBRANCH   4  16
TORSDOF 3
ENDMDL
MODEL 7
REMARK VINA RESULT:      -5.2      4.339      5.726
REMARK  3 active torsions:
REMARK  status: ('A' for Active; 'I' for Inactive)
REMARK    1  A    between atoms: N_4  and  C_9 
REMARK    2  A    between atoms: C_12  and  C_16 
REMARK    3  A    between atoms: C_16  and  O_18 
ROOT
HETATM    1  C   UNL     1     -41.876 -51.276  12.235  1.00  0.00     0.103 A 
HETATM    2  C   UNL     1     -42.701 -50.234  12.656  1.00  0.00     0.049 A 
HETATM    3  C   UNL     1     -42.508 -48.939  12.181  1.00  0.00     0.023 A 
HETATM    4  C   UNL     1     -41.484 -48.700  11.276  1.00  0.00     0.053 A 
HETATM    5  C   UNL     1     -40.668 -49.767  10.937  1.00  0.00     0.108 A 
HETATM    6  N   UNL     1     -40.845 -51.034  11.395  1.00  0.00    -0.351 N 
ATOM      7  HN  UNL     1     -40.216 -51.785  11.112  1.00  0.00     0.166 HD
ENDROOT
BRANCH   1   8
HETATM    8  N   UNL     1     -42.069 -52.542  12.727  1.00  0.00    -0.362 N 
HETATM    9  C   UNL     1     -40.946 -53.424  13.042  1.00  0.00     0.156 C 
HETATM   10  C   UNL     1     -41.284 -54.172  14.361  1.00  0.00     0.136 C 
HETATM   11  C   UNL     1     -41.180 -53.252  15.581  1.00  0.00     0.041 C 
HETATM   12  O   UNL     1     -42.579 -54.820  14.310  1.00  0.00    -0.378 OA
HETATM   13  C   UNL     1     -43.649 -53.927  13.935  1.00  0.00     0.136 C 
HETATM   14  C   UNL     1     -43.345 -53.240  12.592  1.00  0.00     0.156 C 
HETATM   15  C   UNL     1     -44.937 -54.731  13.851  1.00  0.00     0.041 C 
ENDBRANCH   1   8
BRANCH   4  16
HETATM   16  C   UNL     1     -41.278 -47.333  10.763  1.00  0.00     0.177 C 
HETATM   17  O   UNL     1     -42.205 -46.600  10.465  1.00  0.00    -0.646 OA
BRANCH  16  18
HETATM   18  O   UNL     1     -39.984 -46.991  10.600  1.00  0.00    -0.773 OA
HETATM   19  H   UNL     1     -39.804 -46.049  10.431  1.00  0.00     0.167 HD
ENDBRANCH  16  18
ENDBRANCH   4  16
TORSDOF 3
ENDMDL
MODEL 8
REMARK VINA RESULT:      -5.2      3.272      4.051
REMARK  3 active torsions:
REMARK  status: ('A' for Active; 'I' for Inactive)
REMARK    1  A    between atoms: N_4  and  C_9 
REMARK    2  A    between atoms: C_12  and  C_16 
REMARK    3  A    between atoms: C_16  and  O_18 
ROOT
HETATM    1  C   UNL     1     -42.941 -51.274  13.125  1.00  0.00     0.103 A 
HETATM    2  C   UNL     1     -42.692 -49.937  13.433  1.00  0.00     0.049 A 
HETATM    3  C   UNL     1     -41.541 -49.304  12.970  1.00  0.00     0.023 A 
HETATM    4  C   UNL     1     -40.646 -50.021  12.189  1.00  0.00     0.053 A 
HETATM    5  C   UNL     1     -40.926 -51.359  11.961  1.00  0.00     0.108 A 
HETATM    6  N   UNL     1     -42.044 -51.988  12.410  1.00  0.00    -0.351 N 
ATOM      7  HN  UNL     1     -42.203 -52.976  12.211  1.00  0.00     0.166 HD
ENDROOT
BRANCH   1   8
HETATM    8  N   UNL     1     -44.070 -51.887  13.605  1.00  0.00    -0.362 N 
HETATM    9  C   UNL     1     -45.187 -51.121  14.155  1.00  0.00     0.156 C 
HETATM   10  C   UNL     1     -46.504 -51.785  13.668  1.00  0.00     0.136 C 
HETATM   11  C   UNL     1     -46.767 -51.508  12.185  1.00  0.00     0.041 C 
HETATM   12  O   UNL     1     -46.540 -53.206  13.944  1.00  0.00    -0.378 OA
HETATM   13  C   UNL     1     -45.389 -53.914  13.438  1.00  0.00     0.136 C 
HETATM   14  C   UNL     1     -44.085 -53.300  13.979  1.00  0.00     0.156 C 
HETATM   15  C   UNL     1     -45.507 -55.375  13.845  1.00  0.00     0.041 C 
ENDBRANCH   1   8
BRANCH   4  16
HETATM   16  C   UNL     1     -39.430 -49.355  11.690  1.00  0.00     0.177 C 
HETATM   17  O   UNL     1     -39.051 -48.278  12.117  1.00  0.00    -0.646 OA
BRANCH  16  18
HETATM   18  O   UNL     1     -38.812 -50.010  10.685  1.00  0.00    -0.773 OA
HETATM   19  H   UNL     1     -38.289 -50.792  10.937  1.00  0.00     0.167 HD
ENDBRANCH  16  18
ENDBRANCH   4  16
TORSDOF 3
ENDMDL
MODEL 9
REMARK VINA RESULT:      -5.2      5.290      6.773
REMARK  3 active torsions:
REMARK  status: ('A' for Active; 'I' for Inactive)
REMARK    1  A    between atoms: N_4  and  C_9 
REMARK    2  A    between atoms: C_12  and  C_16 
REMARK    3  A    between atoms: C_16  and  O_18 
ROOT
HETATM    1  C   UNL     1     -42.487 -49.312  12.298  1.00  0.00     0.103 A 
HETATM    2  C   UNL     1     -42.997 -48.115  12.800  1.00  0.00     0.049 A 
HETATM    3  C   UNL     1     -42.943 -46.947  12.043  1.00  0.00     0.023 A 
HETATM    4  C   UNL     1     -42.379 -46.991  10.776  1.00  0.00     0.053 A 
HETATM    5  C   UNL     1     -41.845 -48.198  10.356  1.00  0.00     0.108 A 
HETATM    6  N   UNL     1     -41.889 -49.344  11.086  1.00  0.00    -0.351 N 
ATOM      7  HN  UNL     1     -41.482 -50.208  10.728  1.00  0.00     0.166 HD
ENDROOT
BRANCH   1   8
HETATM    8  N   UNL     1     -42.531 -50.448  13.064  1.00  0.00    -0.362 N 
HETATM    9  C   UNL     1     -43.337 -50.524  14.282  1.00  0.00     0.156 C 
HETATM   10  C   UNL     1     -43.999 -51.929  14.326  1.00  0.00     0.136 C 
HETATM   11  C   UNL     1     -45.138 -52.055  13.311  1.00  0.00     0.041 C 
HETATM   12  O   UNL     1     -43.036 -52.998  14.160  1.00  0.00    -0.378 OA
HETATM   13  C   UNL     1     -42.220 -52.851  12.979  1.00  0.00     0.136 C 
HETATM   14  C   UNL     1     -41.507 -51.487  12.971  1.00  0.00     0.156 C 
HETATM   15  C   UNL     1     -41.210 -53.988  12.950  1.00  0.00     0.041 C 
ENDBRANCH   1   8
BRANCH   4  16
HETATM   16  C   UNL     1     -42.326 -45.760   9.967  1.00  0.00     0.177 C 
HETATM   17  O   UNL     1     -42.142 -44.661  10.460  1.00  0.00    -0.646 OA
BRANCH  16  18
HETATM   18  O   UNL     1     -42.555 -45.952   8.651  1.00  0.00    -0.773 OA
HETATM   19  H   UNL     1     -43.327 -46.500   8.423  1.00  0.00     0.167 HD
ENDBRANCH  16  18
ENDBRANCH   4  16
TORSDOF 3
ENDMDL
