MODEL 1
REMARK VINA RESULT:      -6.1      0.000      0.000
REMARK  6 active torsions:
REMARK  status: ('A' for Active; 'I' for Inactive)
REMARK    1  A    between atoms: O_2  and  C_3 
REMARK    2  A    between atoms: C_3  and  C_4 
REMARK    3  A    between atoms: C_6  and  N_7 
REMARK    4  A    between atoms: N_7  and  C_8 
REMARK    5  A    between atoms: C_8  and  C_10 
REMARK    6  A    between atoms: C_19  and  C_22 
ROOT
HETATM    1  C   UNL     1     -41.272 -48.758  11.147  1.00  0.00     0.037 A 
HETATM    2  C   UNL     1     -40.379 -47.730  11.385  1.00  0.00     0.069 A 
HETATM    3  C   UNL     1     -40.658 -46.498  10.834  1.00  0.00     0.083 A 
HETATM    4  N   UNL     1     -41.759 -46.290  10.091  1.00  0.00    -0.336 N 
ATOM      5  HN  UNL     1     -41.969 -45.371   9.700  1.00  0.00     0.168 HD
HETATM    6  C   UNL     1     -42.578 -47.349   9.881  1.00  0.00     0.090 A 
HETATM    7  N   UNL     1     -42.363 -48.585  10.379  1.00  0.00    -0.347 N 
ATOM      8  HN  UNL     1     -43.001 -49.355  10.181  1.00  0.00     0.167 HD
ENDROOT
BRANCH   3   9
HETATM    9  N   UNL     1     -39.729 -45.484  11.117  1.00  0.00    -0.272 NA
HETATM   10  H   UNL     1     -39.398 -45.097  10.229  1.00  0.00     0.129 HD
BRANCH   9  11
HETATM   11  C   UNL     1     -40.073 -44.411  12.052  1.00  0.00     0.088 C 
HETATM   12  C   UNL     1     -38.883 -44.141  12.973  1.00  0.00     0.029 C 
BRANCH  11  13
HETATM   13  C   UNL     1     -40.483 -43.102  11.288  1.00  0.00     0.167 C 
HETATM   14  C   UNL     1     -40.505 -41.866  12.219  1.00  0.00     0.305 C 
HETATM   15  N   UNL     1     -41.725 -41.845  13.054  1.00  0.00     0.088 N 
HETATM   16  C   UNL     1     -41.695 -40.727  13.991  1.00  0.00     0.310 C 
HETATM   17  C   UNL     1     -42.876 -41.756  12.132  1.00  0.00     0.298 C 
HETATM   18  C   UNL     1     -42.906 -42.995  11.220  1.00  0.00     0.198 C 
HETATM   19  O   UNL     1     -41.687 -43.188  10.491  1.00  0.00    -0.381 OA
ENDBRANCH  11  13
ENDBRANCH   9  11
ENDBRANCH   3   9
BRANCH   1  20
HETATM   20  C   UNL     1     -41.019 -50.114  11.753  1.00  0.00     0.224 C 
BRANCH  20  21
HETATM   21  O   UNL     1     -39.615 -50.381  11.777  1.00  0.00    -0.390 OA
HETATM   22  C   UNL     1     -39.218 -50.983  12.999  1.00  0.00     0.201 C 
ENDBRANCH  20  21
ENDBRANCH   1  20
BRANCH   6  23
HETATM   23  C   UNL     1     -43.850 -47.167   9.046  1.00  0.00     0.007 C 
HETATM   24  C   UNL     1     -45.089 -47.762   9.738  1.00  0.00     0.022 C 
HETATM   25  C   UNL     1     -44.105 -45.665   8.805  1.00  0.00     0.022 C 
HETATM   26  C   UNL     1     -43.669 -47.865   7.684  1.00  0.00     0.022 C 
ENDBRANCH   6  23
TORSDOF 6
ENDMDL
MODEL 2
REMARK VINA RESULT:      -6.0      2.386      7.118
REMARK  6 active torsions:
REMARK  status: ('A' for Active; 'I' for Inactive)
REMARK    1  A    between atoms: O_2  and  C_3 
REMARK    2  A    between atoms: C_3  and  C_4 
REMARK    3  A    between atoms: C_6  and  N_7 
REMARK    4  A    between atoms: N_7  and  C_8 
REMARK    5  A    between atoms: C_8  and  C_10 
REMARK    6  A    between atoms: C_19  and  C_22 
ROOT
HETATM    1  C   UNL     1     -40.675 -46.408  10.835  1.00  0.00     0.037 A 
HETATM    2  C   UNL     1     -40.267 -47.644  11.299  1.00  0.00     0.069 A 
HETATM    3  C   UNL     1     -41.052 -48.735  10.994  1.00  0.00     0.083 A 
HETATM    4  N   UNL     1     -42.177 -48.614  10.268  1.00  0.00    -0.336 N 
ATOM      5  HN  UNL     1     -42.745 -49.428  10.031  1.00  0.00     0.168 HD
HETATM    6  C   UNL     1     -42.527 -47.368   9.865  1.00  0.00     0.090 A 
HETATM    7  N   UNL     1     -41.814 -46.254  10.136  1.00  0.00    -0.347 N 
ATOM      8  HN  UNL     1     -42.126 -45.335   9.823  1.00  0.00     0.167 HD
ENDROOT
BRANCH   3   9
HETATM    9  N   UNL     1     -40.587 -49.969  11.475  1.00  0.00    -0.272 NA
HETATM   10  H   UNL     1     -39.613 -49.851  11.771  1.00  0.00     0.129 HD
BRANCH   9  11
HETATM   11  C   UNL     1     -41.350 -50.697  12.490  1.00  0.00     0.088 C 
HETATM   12  C   UNL     1     -42.618 -49.914  12.830  1.00  0.00     0.029 C 
BRANCH  11  13
HETATM   13  C   UNL     1     -41.713 -52.143  11.999  1.00  0.00     0.167 C 
HETATM   14  C   UNL     1     -42.997 -52.683  12.675  1.00  0.00     0.305 C 
HETATM   15  N   UNL     1     -42.724 -53.144  14.053  1.00  0.00     0.088 N 
HETATM   16  C   UNL     1     -43.954 -53.567  14.713  1.00  0.00     0.310 C 
HETATM   17  C   UNL     1     -41.748 -54.249  13.952  1.00  0.00     0.298 C 
HETATM   18  C   UNL     1     -40.443 -53.732  13.323  1.00  0.00     0.198 C 
HETATM   19  O   UNL     1     -40.641 -53.113  12.044  1.00  0.00    -0.381 OA
ENDBRANCH  11  13
ENDBRANCH   9  11
ENDBRANCH   3   9
BRANCH   1  20
HETATM   20  C   UNL     1     -39.831 -45.193  11.122  1.00  0.00     0.224 C 
BRANCH  20  21
HETATM   21  O   UNL     1     -40.327 -44.073  10.385  1.00  0.00    -0.390 OA
HETATM   22  C   UNL     1     -40.704 -43.007  11.242  1.00  0.00     0.201 C 
ENDBRANCH  20  21
ENDBRANCH   1  20
BRANCH   6  23
HETATM   23  C   UNL     1     -43.798 -47.173   9.031  1.00  0.00     0.007 C 
HETATM   24  C   UNL     1     -45.039 -47.775   9.713  1.00  0.00     0.022 C 
HETATM   25  C   UNL     1     -44.050 -45.668   8.809  1.00  0.00     0.022 C 
HETATM   26  C   UNL     1     -43.615 -47.853   7.660  1.00  0.00     0.022 C 
ENDBRANCH   6  23
TORSDOF 6
ENDMDL
MODEL 3
REMARK VINA RESULT:      -6.0      2.030      6.191
REMARK  6 active torsions:
REMARK  status: ('A' for Active; 'I' for Inactive)
REMARK    1  A    between atoms: O_2  and  C_3 
REMARK    2  A    between atoms: C_3  and  C_4 
REMARK    3  A    between atoms: C_6  and  N_7 
REMARK    4  A    between atoms: N_7  and  C_8 
REMARK    5  A    between atoms: C_8  and  C_10 
REMARK    6  A    between atoms: C_19  and  C_22 
ROOT
HETATM    1  C   UNL     1     -41.359 -46.495  11.580  1.00  0.00     0.037 A 
HETATM    2  C   UNL     1     -40.663 -47.688  11.609  1.00  0.00     0.069 A 
HETATM    3  C   UNL     1     -41.083 -48.697  10.771  1.00  0.00     0.083 A 
HETATM    4  N   UNL     1     -42.133 -48.538   9.946  1.00  0.00    -0.336 N 
ATOM      5  HN  UNL     1     -42.429 -49.284   9.315  1.00  0.00     0.168 HD
HETATM    6  C   UNL     1     -42.782 -47.350   9.986  1.00  0.00     0.090 A 
HETATM    7  N   UNL     1     -42.433 -46.321  10.789  1.00  0.00    -0.347 N 
ATOM      8  HN  UNL     1     -42.962 -45.449  10.794  1.00  0.00     0.167 HD
ENDROOT
BRANCH   3   9
HETATM    9  N   UNL     1     -40.334 -49.883  10.828  1.00  0.00    -0.272 NA
HETATM   10  H   UNL     1     -39.433 -49.714  10.372  1.00  0.00     0.129 HD
BRANCH   9  11
HETATM   11  C   UNL     1     -40.145 -50.574  12.105  1.00  0.00     0.088 C 
HETATM   12  C   UNL     1     -40.893 -51.908  12.074  1.00  0.00     0.029 C 
BRANCH  11  13
HETATM   13  C   UNL     1     -38.622 -50.806  12.405  1.00  0.00     0.167 C 
HETATM   14  C   UNL     1     -38.403 -51.640  13.691  1.00  0.00     0.305 C 
HETATM   15  N   UNL     1     -38.587 -50.813  14.903  1.00  0.00     0.088 N 
HETATM   16  C   UNL     1     -38.467 -51.625  16.109  1.00  0.00     0.310 C 
HETATM   17  C   UNL     1     -37.567 -49.747  14.857  1.00  0.00     0.298 C 
HETATM   18  C   UNL     1     -37.787 -48.873  13.610  1.00  0.00     0.198 C 
HETATM   19  O   UNL     1     -37.789 -49.625  12.388  1.00  0.00    -0.381 OA
ENDBRANCH  11  13
ENDBRANCH   9  11
ENDBRANCH   3   9
BRANCH   1  20
HETATM   20  C   UNL     1     -40.916 -45.355  12.461  1.00  0.00     0.224 C 
BRANCH  20  21
HETATM   21  O   UNL     1     -39.867 -44.626  11.819  1.00  0.00    -0.390 OA
HETATM   22  C   UNL     1     -40.353 -43.447  11.197  1.00  0.00     0.201 C 
ENDBRANCH  20  21
ENDBRANCH   1  20
BRANCH   6  23
HETATM   23  C   UNL     1     -43.981 -47.111   9.063  1.00  0.00     0.007 C 
HETATM   24  C   UNL     1     -45.287 -47.678   9.649  1.00  0.00     0.022 C 
HETATM   25  C   UNL     1     -44.171 -45.599   8.834  1.00  0.00     0.022 C 
HETATM   26  C   UNL     1     -43.721 -47.791   7.705  1.00  0.00     0.022 C 
ENDBRANCH   6  23
TORSDOF 6
ENDMDL
MODEL 4
REMARK VINA RESULT:      -5.9      2.245      6.591
REMARK  6 active torsions:
REMARK  status: ('A' for Active; 'I' for Inactive)
REMARK    1  A    between atoms: O_2  and  C_3 
REMARK    2  A    between atoms: C_3  and  C_4 
REMARK    3  A    between atoms: C_6  and  N_7 
REMARK    4  A    between atoms: N_7  and  C_8 
REMARK    5  A    between atoms: C_8  and  C_10 
REMARK    6  A    between atoms: C_19  and  C_22 
ROOT
HETATM    1  C   UNL     1     -43.059 -46.507   9.574  1.00  0.00     0.037 A 
HETATM    2  C   UNL     1     -42.753 -47.833   9.812  1.00  0.00     0.069 A 
HETATM    3  C   UNL     1     -41.541 -48.116  10.405  1.00  0.00     0.083 A 
HETATM    4  N   UNL     1     -40.678 -47.143  10.747  1.00  0.00    -0.336 N 
ATOM      5  HN  UNL     1     -39.790 -47.357  11.201  1.00  0.00     0.168 HD
HETATM    6  C   UNL     1     -41.035 -45.867  10.464  1.00  0.00     0.090 A 
HETATM    7  N   UNL     1     -42.199 -45.517   9.876  1.00  0.00    -0.347 N 
ATOM      8  HN  UNL     1     -42.418 -44.542   9.669  1.00  0.00     0.167 HD
ENDROOT
BRANCH   3   9
HETATM    9  N   UNL     1     -41.284 -49.476  10.639  1.00  0.00    -0.272 NA
HETATM   10  H   UNL     1     -40.645 -49.811   9.912  1.00  0.00     0.129 HD
BRANCH   9  11
HETATM   11  C   UNL     1     -40.843 -49.925  11.960  1.00  0.00     0.088 C 
HETATM   12  C   UNL     1     -41.624 -51.179  12.356  1.00  0.00     0.029 C 
BRANCH  11  13
HETATM   13  C   UNL     1     -39.300 -50.212  11.977  1.00  0.00     0.167 C 
HETATM   14  C   UNL     1     -38.904 -51.207  13.094  1.00  0.00     0.305 C 
HETATM   15  N   UNL     1     -38.865 -50.543  14.415  1.00  0.00     0.088 N 
HETATM   16  C   UNL     1     -38.580 -51.506  15.473  1.00  0.00     0.310 C 
HETATM   17  C   UNL     1     -37.832 -49.491  14.338  1.00  0.00     0.298 C 
HETATM   18  C   UNL     1     -38.220 -48.461  13.263  1.00  0.00     0.198 C 
HETATM   19  O   UNL     1     -38.442 -49.048  11.974  1.00  0.00    -0.381 OA
ENDBRANCH  11  13
ENDBRANCH   9  11
ENDBRANCH   3   9
BRANCH   1  20
HETATM   20  C   UNL     1     -44.385 -46.152   8.954  1.00  0.00     0.224 C 
BRANCH  20  21
HETATM   21  O   UNL     1     -45.158 -47.337   8.750  1.00  0.00    -0.390 OA
HETATM   22  C   UNL     1     -46.510 -47.153   9.138  1.00  0.00     0.201 C 
ENDBRANCH  20  21
ENDBRANCH   1  20
BRANCH   6  23
HETATM   23  C   UNL     1     -40.093 -44.718  10.837  1.00  0.00     0.007 C 
HETATM   24  C   UNL     1     -39.329 -44.994  12.144  1.00  0.00     0.022 C 
HETATM   25  C   UNL     1     -39.061 -44.502   9.711  1.00  0.00     0.022 C 
HETATM   26  C   UNL     1     -40.912 -43.425  11.013  1.00  0.00     0.022 C 
ENDBRANCH   6  23
TORSDOF 6
ENDMDL
MODEL 5
REMARK VINA RESULT:      -5.6      6.016      8.816
REMARK  6 active torsions:
REMARK  status: ('A' for Active; 'I' for Inactive)
REMARK    1  A    between atoms: O_2  and  C_3 
REMARK    2  A    between atoms: C_3  and  C_4 
REMARK    3  A    between atoms: C_6  and  N_7 
REMARK    4  A    between atoms: N_7  and  C_8 
REMARK    5  A    between atoms: C_8  and  C_10 
REMARK    6  A    between atoms: C_19  and  C_22 
ROOT
HETATM    1  C   UNL     1     -39.620 -53.470  13.714  1.00  0.00     0.037 A 
HETATM    2  C   UNL     1     -40.929 -53.428  13.274  1.00  0.00     0.069 A 
HETATM    3  C   UNL     1     -41.369 -52.268  12.675  1.00  0.00     0.083 A 
HETATM    4  N   UNL     1     -40.561 -51.205  12.516  1.00  0.00    -0.336 N 
ATOM      5  HN  UNL     1     -40.887 -50.355  12.056  1.00  0.00     0.168 HD
HETATM    6  C   UNL     1     -39.296 -51.309  12.991  1.00  0.00     0.090 A 
HETATM    7  N   UNL     1     -38.800 -52.409  13.597  1.00  0.00    -0.347 N 
ATOM      8  HN  UNL     1     -37.844 -52.435  13.951  1.00  0.00     0.167 HD
ENDROOT
BRANCH   3   9
HETATM    9  N   UNL     1     -42.701 -52.282  12.233  1.00  0.00    -0.272 NA
HETATM   10  H   UNL     1     -42.882 -53.188  11.790  1.00  0.00     0.129 HD
BRANCH   9  11
HETATM   11  C   UNL     1     -43.786 -51.931  13.152  1.00  0.00     0.088 C 
HETATM   12  C   UNL     1     -43.971 -50.413  13.161  1.00  0.00     0.029 C 
BRANCH  11  13
HETATM   13  C   UNL     1     -45.125 -52.645  12.750  1.00  0.00     0.167 C 
HETATM   14  C   UNL     1     -46.324 -52.154  13.596  1.00  0.00     0.305 C 
HETATM   15  N   UNL     1     -46.318 -52.770  14.940  1.00  0.00     0.088 N 
HETATM   16  C   UNL     1     -47.399 -52.235  15.761  1.00  0.00     0.310 C 
HETATM   17  C   UNL     1     -46.448 -54.228  14.747  1.00  0.00     0.298 C 
HETATM   18  C   UNL     1     -45.245 -54.754  13.944  1.00  0.00     0.198 C 
HETATM   19  O   UNL     1     -45.075 -54.089  12.685  1.00  0.00    -0.381 OA
ENDBRANCH  11  13
ENDBRANCH   9  11
ENDBRANCH   3   9
BRANCH   1  20
HETATM   20  C   UNL     1     -39.090 -54.729  14.349  1.00  0.00     0.224 C 
BRANCH  20  21
HETATM   21  O   UNL     1     -38.732 -54.472  15.709  1.00  0.00    -0.390 OA
HETATM   22  C   UNL     1     -38.126 -55.603  16.314  1.00  0.00     0.201 C 
ENDBRANCH  20  21
ENDBRANCH   1  20
BRANCH   6  23
HETATM   23  C   UNL     1     -38.329 -50.131  12.831  1.00  0.00     0.007 C 
HETATM   24  C   UNL     1     -37.452 -49.925  14.079  1.00  0.00     0.022 C 
HETATM   25  C   UNL     1     -37.403 -50.376  11.623  1.00  0.00     0.022 C 
HETATM   26  C   UNL     1     -39.136 -48.841  12.584  1.00  0.00     0.022 C 
ENDBRANCH   6  23
TORSDOF 6
ENDMDL
MODEL 6
REMARK VINA RESULT:      -5.6      4.349      6.506
REMARK  6 active torsions:
REMARK  status: ('A' for Active; 'I' for Inactive)
REMARK    1  A    between atoms: O_2  and  C_3 
REMARK    2  A    between atoms: C_3  and  C_4 
REMARK    3  A    between atoms: C_6  and  N_7 
REMARK    4  A    between atoms: N_7  and  C_8 
REMARK    5  A    between atoms: C_8  and  C_10 
REMARK    6  A    between atoms: C_19  and  C_22 
ROOT
HETATM    1  C   UNL     1     -42.268 -52.739  12.950  1.00  0.00     0.037 A 
HETATM    2  C   UNL     1     -41.787 -51.464  12.721  1.00  0.00     0.069 A 
HETATM    3  C   UNL     1     -42.692 -50.425  12.738  1.00  0.00     0.083 A 
HETATM    4  N   UNL     1     -44.000 -50.631  12.971  1.00  0.00    -0.336 N 
ATOM      5  HN  UNL     1     -44.662 -49.855  13.000  1.00  0.00     0.168 HD
HETATM    6  C   UNL     1     -44.403 -51.910  13.166  1.00  0.00     0.090 A 
HETATM    7  N   UNL     1     -43.577 -52.977  13.152  1.00  0.00    -0.347 N 
ATOM      8  HN  UNL     1     -43.929 -53.924  13.290  1.00  0.00     0.167 HD
ENDROOT
BRANCH   3   9
HETATM    9  N   UNL     1     -42.152 -49.148  12.515  1.00  0.00    -0.272 NA
HETATM   10  H   UNL     1     -41.861 -48.761  13.418  1.00  0.00     0.129 HD
BRANCH   9  11
HETATM   11  C   UNL     1     -41.104 -48.958  11.511  1.00  0.00     0.088 C 
HETATM   12  C   UNL     1     -41.656 -48.121  10.355  1.00  0.00     0.029 C 
BRANCH  11  13
HETATM   13  C   UNL     1     -39.839 -48.267  12.133  1.00  0.00     0.167 C 
HETATM   14  C   UNL     1     -38.545 -49.070  11.863  1.00  0.00     0.305 C 
HETATM   15  N   UNL     1     -38.438 -50.235  12.767  1.00  0.00     0.088 N 
HETATM   16  C   UNL     1     -37.262 -51.036  12.447  1.00  0.00     0.310 C 
HETATM   17  C   UNL     1     -38.383 -49.707  14.145  1.00  0.00     0.298 C 
HETATM   18  C   UNL     1     -39.679 -48.939  14.459  1.00  0.00     0.198 C 
HETATM   19  O   UNL     1     -39.949 -47.885  13.524  1.00  0.00    -0.381 OA
ENDBRANCH  11  13
ENDBRANCH   9  11
ENDBRANCH   3   9
BRANCH   1  20
HETATM   20  C   UNL     1     -41.308 -53.901  12.967  1.00  0.00     0.224 C 
BRANCH  20  21
HETATM   21  O   UNL     1     -39.963 -53.419  12.995  1.00  0.00    -0.390 OA
HETATM   22  C   UNL     1     -39.257 -53.900  14.127  1.00  0.00     0.201 C 
ENDBRANCH  20  21
ENDBRANCH   1  20
BRANCH   6  23
HETATM   23  C   UNL     1     -45.882 -52.203  13.441  1.00  0.00     0.007 C 
HETATM   24  C   UNL     1     -46.773 -51.886  12.227  1.00  0.00     0.022 C 
HETATM   25  C   UNL     1     -46.061 -53.692  13.797  1.00  0.00     0.022 C 
HETATM   26  C   UNL     1     -46.357 -51.347  14.632  1.00  0.00     0.022 C 
ENDBRANCH   6  23
TORSDOF 6
ENDMDL
MODEL 7
REMARK VINA RESULT:      -5.6      3.755      5.639
REMARK  6 active torsions:
REMARK  status: ('A' for Active; 'I' for Inactive)
REMARK    1  A    between atoms: O_2  and  C_3 
REMARK    2  A    between atoms: C_3  and  C_4 
REMARK    3  A    between atoms: C_6  and  N_7 
REMARK    4  A    between atoms: N_7  and  C_8 
REMARK    5  A    between atoms: C_8  and  C_10 
REMARK    6  A    between atoms: C_19  and  C_22 
ROOT
HETATM    1  C   UNL     1     -42.270 -53.004  14.056  1.00  0.00     0.037 A 
HETATM    2  C   UNL     1     -41.681 -52.094  13.200  1.00  0.00     0.069 A 
HETATM    3  C   UNL     1     -42.501 -51.183  12.570  1.00  0.00     0.083 A 
HETATM    4  N   UNL     1     -43.829 -51.168  12.775  1.00  0.00    -0.336 N 
ATOM      5  HN  UNL     1     -44.429 -50.479  12.319  1.00  0.00     0.168 HD
HETATM    6  C   UNL     1     -44.340 -52.104  13.611  1.00  0.00     0.090 A 
HETATM    7  N   UNL     1     -43.600 -53.033  14.254  1.00  0.00    -0.347 N 
ATOM      8  HN  UNL     1     -44.032 -53.727  14.863  1.00  0.00     0.167 HD
ENDROOT
BRANCH   3   9
HETATM    9  N   UNL     1     -41.853 -50.270  11.722  1.00  0.00    -0.272 NA
HETATM   10  H   UNL     1     -42.034 -50.549  10.753  1.00  0.00     0.129 HD
BRANCH   9  11
HETATM   11  C   UNL     1     -42.062 -48.831  11.892  1.00  0.00     0.088 C 
HETATM   12  C   UNL     1     -41.330 -48.358  13.149  1.00  0.00     0.029 C 
BRANCH  11  13
HETATM   13  C   UNL     1     -41.566 -48.032  10.635  1.00  0.00     0.167 C 
HETATM   14  C   UNL     1     -41.248 -46.556  10.972  1.00  0.00     0.305 C 
HETATM   15  N   UNL     1     -42.484 -45.752  11.080  1.00  0.00     0.088 N 
HETATM   16  C   UNL     1     -42.181 -44.384  11.485  1.00  0.00     0.310 C 
HETATM   17  C   UNL     1     -43.146 -45.799   9.761  1.00  0.00     0.298 C 
HETATM   18  C   UNL     1     -43.515 -47.253   9.418  1.00  0.00     0.198 C 
HETATM   19  O   UNL     1     -42.390 -48.143   9.452  1.00  0.00    -0.381 OA
ENDBRANCH  11  13
ENDBRANCH   9  11
ENDBRANCH   3   9
BRANCH   1  20
HETATM   20  C   UNL     1     -41.407 -54.000  14.787  1.00  0.00     0.224 C 
BRANCH  20  21
HETATM   21  O   UNL     1     -40.040 -53.587  14.736  1.00  0.00    -0.390 OA
HETATM   22  C   UNL     1     -39.197 -54.620  14.249  1.00  0.00     0.201 C 
ENDBRANCH  20  21
ENDBRANCH   1  20
BRANCH   6  23
HETATM   23  C   UNL     1     -45.847 -52.130  13.886  1.00  0.00     0.007 C 
HETATM   24  C   UNL     1     -46.668 -51.660  12.672  1.00  0.00     0.022 C 
HETATM   25  C   UNL     1     -46.288 -53.564  14.242  1.00  0.00     0.022 C 
HETATM   26  C   UNL     1     -46.163 -51.204  15.077  1.00  0.00     0.022 C 
ENDBRANCH   6  23
TORSDOF 6
ENDMDL
MODEL 8
REMARK VINA RESULT:      -5.5      4.239      6.942
REMARK  6 active torsions:
REMARK  status: ('A' for Active; 'I' for Inactive)
REMARK    1  A    between atoms: O_2  and  C_3 
REMARK    2  A    between atoms: C_3  and  C_4 
REMARK    3  A    between atoms: C_6  and  N_7 
REMARK    4  A    between atoms: N_7  and  C_8 
REMARK    5  A    between atoms: C_8  and  C_10 
REMARK    6  A    between atoms: C_19  and  C_22 
ROOT
HETATM    1  C   UNL     1     -40.740 -54.365  14.859  1.00  0.00     0.037 A 
HETATM    2  C   UNL     1     -39.975 -53.647  13.960  1.00  0.00     0.069 A 
HETATM    3  C   UNL     1     -40.634 -52.914  12.998  1.00  0.00     0.083 A 
HETATM    4  N   UNL     1     -41.976 -52.888  12.926  1.00  0.00    -0.336 N 
ATOM      5  HN  UNL     1     -42.459 -52.329  12.221  1.00  0.00     0.168 HD
HETATM    6  C   UNL     1     -42.662 -53.634  13.825  1.00  0.00     0.090 A 
HETATM    7  N   UNL     1     -42.084 -54.384  14.788  1.00  0.00    -0.347 N 
ATOM      8  HN  UNL     1     -42.642 -54.940  15.434  1.00  0.00     0.167 HD
ENDROOT
BRANCH   3   9
HETATM    9  N   UNL     1     -39.812 -52.190  12.119  1.00  0.00    -0.272 NA
HETATM   10  H   UNL     1     -40.188 -52.292  11.172  1.00  0.00     0.129 HD
BRANCH   9  11
HETATM   11  C   UNL     1     -39.489 -50.790  12.398  1.00  0.00     0.088 C 
HETATM   12  C   UNL     1     -38.016 -50.535  12.074  1.00  0.00     0.029 C 
BRANCH  11  13
HETATM   13  C   UNL     1     -40.407 -49.820  11.575  1.00  0.00     0.167 C 
HETATM   14  C   UNL     1     -39.939 -48.348  11.674  1.00  0.00     0.305 C 
HETATM   15  N   UNL     1     -40.338 -47.744  12.963  1.00  0.00     0.088 N 
HETATM   16  C   UNL     1     -39.816 -46.388  13.086  1.00  0.00     0.310 C 
HETATM   17  C   UNL     1     -41.814 -47.769  13.012  1.00  0.00     0.298 C 
HETATM   18  C   UNL     1     -42.310 -49.225  12.958  1.00  0.00     0.198 C 
HETATM   19  O   UNL     1     -41.829 -49.943  11.813  1.00  0.00    -0.381 OA
ENDBRANCH  11  13
ENDBRANCH   9  11
ENDBRANCH   3   9
BRANCH   1  20
HETATM   20  C   UNL     1     -40.061 -55.158  15.945  1.00  0.00     0.224 C 
BRANCH  20  21
HETATM   21  O   UNL     1     -38.875 -55.769  15.430  1.00  0.00    -0.390 OA
HETATM   22  C   UNL     1     -37.833 -55.783  16.391  1.00  0.00     0.201 C 
ENDBRANCH  20  21
ENDBRANCH   1  20
BRANCH   6  23
HETATM   23  C   UNL     1     -44.194 -53.637  13.793  1.00  0.00     0.007 C 
HETATM   24  C   UNL     1     -44.778 -55.037  14.054  1.00  0.00     0.022 C 
HETATM   25  C   UNL     1     -44.740 -52.677  14.869  1.00  0.00     0.022 C 
HETATM   26  C   UNL     1     -44.675 -53.158  12.410  1.00  0.00     0.022 C 
ENDBRANCH   6  23
TORSDOF 6
ENDMDL
MODEL 9
REMARK VINA RESULT:      -5.4      3.976      7.518
REMARK  6 active torsions:
REMARK  status: ('A' for Active; 'I' for Inactive)
REMARK    1  A    between atoms: O_2  and  C_3 
REMARK    2  A    between atoms: C_3  and  C_4 
REMARK    3  A    between atoms: C_6  and  N_7 
REMARK    4  A    between atoms: N_7  and  C_8 
REMARK    5  A    between atoms: C_8  and  C_10 
REMARK    6  A    between atoms: C_19  and  C_22 
ROOT
HETATM    1  C   UNL     1     -39.595 -50.591  12.649  1.00  0.00     0.037 A 
HETATM    2  C   UNL     1     -40.409 -51.688  12.444  1.00  0.00     0.069 A 
HETATM    3  C   UNL     1     -41.689 -51.461  11.986  1.00  0.00     0.083 A 
HETATM    4  N   UNL     1     -42.141 -50.218  11.741  1.00  0.00    -0.336 N 
ATOM      5  HN  UNL     1     -43.084 -50.058  11.386  1.00  0.00     0.168 HD
HETATM    6  C   UNL     1     -41.295 -49.189  11.986  1.00  0.00     0.090 A 
HETATM    7  N   UNL     1     -40.034 -49.335  12.445  1.00  0.00    -0.347 N 
ATOM      8  HN  UNL     1     -39.438 -48.528  12.628  1.00  0.00     0.167 HD
ENDROOT
BRANCH   3   9
HETATM    9  N   UNL     1     -42.471 -52.608  11.779  1.00  0.00    -0.272 NA
HETATM   10  H   UNL     1     -41.855 -53.362  11.461  1.00  0.00     0.129 HD
BRANCH   9  11
HETATM   11  C   UNL     1     -43.370 -53.086  12.831  1.00  0.00     0.088 C 
HETATM   12  C   UNL     1     -42.647 -54.134  13.678  1.00  0.00     0.029 C 
BRANCH  11  13
HETATM   13  C   UNL     1     -43.869 -51.902  13.733  1.00  0.00     0.167 C 
HETATM   14  C   UNL     1     -44.294 -52.381  15.141  1.00  0.00     0.305 C 
HETATM   15  N   UNL     1     -45.630 -53.014  15.112  1.00  0.00     0.088 N 
HETATM   16  C   UNL     1     -45.984 -53.542  16.425  1.00  0.00     0.310 C 
HETATM   17  C   UNL     1     -46.586 -51.982  14.661  1.00  0.00     0.298 C 
HETATM   18  C   UNL     1     -46.214 -51.516  13.242  1.00  0.00     0.198 C 
HETATM   19  O   UNL     1     -44.866 -51.036  13.142  1.00  0.00    -0.381 OA
ENDBRANCH  11  13
ENDBRANCH   9  11
ENDBRANCH   3   9
BRANCH   1  20
HETATM   20  C   UNL     1     -38.180 -50.796  13.123  1.00  0.00     0.224 C 
BRANCH  20  21
HETATM   21  O   UNL     1     -37.363 -51.233  12.035  1.00  0.00    -0.390 OA
HETATM   22  C   UNL     1     -37.190 -50.212  11.065  1.00  0.00     0.201 C 
ENDBRANCH  20  21
ENDBRANCH   1  20
BRANCH   6  23
HETATM   23  C   UNL     1     -41.756 -47.752  11.719  1.00  0.00     0.007 C 
HETATM   24  C   UNL     1     -40.623 -46.730  11.924  1.00  0.00     0.022 C 
HETATM   25  C   UNL     1     -42.263 -47.627  10.269  1.00  0.00     0.022 C 
HETATM   26  C   UNL     1     -42.909 -47.401  12.680  1.00  0.00     0.022 C 
ENDBRANCH   6  23
TORSDOF 6
ENDMDL
