MODEL 1
REMARK VINA RESULT:      -7.4      0.000      0.000
REMARK  2 active torsions:
REMARK  status: ('A' for Active; 'I' for Inactive)
REMARK       I    between atoms: C_2  and  N_3 
REMARK       I    between atoms: C_2  and  N_15 
REMARK    1  A    between atoms: N_3  and  C_4 
REMARK    2  A    between atoms: N_15  and  C_16 
ROOT
HETATM    1  O   UNL     1     -39.718 -53.377  12.890  1.00  0.00    -0.247 OA
HETATM    2  C   UNL     1     -40.491 -52.460  12.637  1.00  0.00     0.322 C 
HETATM    3  N   UNL     1     -41.821 -52.481  12.945  1.00  0.00    -0.337 N 
HETATM    4  N   UNL     1     -40.030 -51.291  12.088  1.00  0.00    -0.294 N 
HETATM    5  H   UNL     1     -42.357 -51.707  12.563  1.00  0.00     0.164 HD
HETATM    6  H   UNL     1     -39.025 -51.233  12.032  1.00  0.00     0.172 HD
ENDROOT
BRANCH   3   7
HETATM    7  C   UNL     1     -42.556 -53.649  13.425  1.00  0.00     0.103 C 
HETATM    8  C   UNL     1     -42.308 -54.092  14.885  1.00  0.00     0.041 C 
HETATM    9  C   UNL     1     -41.981 -55.223  15.841  1.00  0.00     0.035 C 
HETATM   10  C   UNL     1     -43.831 -54.531  14.778  1.00  0.00     0.138 C 
HETATM   11  C   UNL     1     -43.101 -55.039  16.899  1.00  0.00     0.168 C 
HETATM   12  O   UNL     1     -44.282 -54.756  16.125  1.00  0.00    -0.385 OA
HETATM   13  C   UNL     1     -44.038 -53.236  13.960  1.00  0.00     0.007 C 
HETATM   14  C   UNL     1     -45.015 -53.123  12.783  1.00  0.00     0.014 C 
HETATM   15  C   UNL     1     -44.359 -52.058  14.897  1.00  0.00     0.014 C 
HETATM   16  C   UNL     1     -45.773 -51.805  13.000  1.00  0.00     0.001 C 
HETATM   17  C   UNL     1     -44.951 -51.000  13.993  1.00  0.00     0.001 C 
ENDBRANCH   3   7
BRANCH   4  18
HETATM   18  C   UNL     1     -40.801 -50.232  11.588  1.00  0.00     0.123 A 
HETATM   19  C   UNL     1     -41.762 -49.653  12.392  1.00  0.00     0.051 A 
HETATM   20  C   UNL     1     -42.540 -48.627  11.862  1.00  0.00     0.022 A 
HETATM   21  C   UNL     1     -42.293 -48.212  10.566  1.00  0.00     0.107 A 
HETATM   22  N   UNL     1     -41.342 -48.772   9.805  1.00  0.00    -0.310 N 
HETATM   23  N   UNL     1     -40.602 -49.794  10.322  1.00  0.00    -0.286 N 
ATOM     24  HN  UNL     1     -41.175 -48.440   8.856  1.00  0.00     0.186 HD
ATOM     25  HN  UNL     1     -39.886 -50.236   9.746  1.00  0.00     0.188 HD
ENDBRANCH   4  18
TORSDOF 2
ENDMDL
MODEL 2
REMARK VINA RESULT:      -7.4      2.896      6.755
REMARK  2 active torsions:
REMARK  status: ('A' for Active; 'I' for Inactive)
REMARK       I    between atoms: C_2  and  N_3 
REMARK       I    between atoms: C_2  and  N_15 
REMARK    1  A    between atoms: N_3  and  C_4 
REMARK    2  A    between atoms: N_15  and  C_16 
ROOT
HETATM    1  O   UNL     1     -39.362 -49.723  11.322  1.00  0.00    -0.247 OA
HETATM    2  C   UNL     1     -40.518 -50.110  11.443  1.00  0.00     0.322 C 
HETATM    3  N   UNL     1     -41.595 -49.465  10.907  1.00  0.00    -0.337 N 
HETATM    4  N   UNL     1     -40.794 -51.297  12.072  1.00  0.00    -0.294 N 
HETATM    5  H   UNL     1     -42.497 -49.833  11.195  1.00  0.00     0.164 HD
HETATM    6  H   UNL     1     -39.975 -51.838  12.303  1.00  0.00     0.172 HD
ENDROOT
BRANCH   3   7
HETATM    7  C   UNL     1     -41.565 -48.137  10.298  1.00  0.00     0.103 C 
HETATM    8  C   UNL     1     -42.835 -47.672   9.550  1.00  0.00     0.041 C 
HETATM    9  C   UNL     1     -43.431 -47.077   8.288  1.00  0.00     0.035 C 
HETATM   10  C   UNL     1     -42.356 -46.250  10.075  1.00  0.00     0.138 C 
HETATM   11  C   UNL     1     -44.302 -45.941   8.888  1.00  0.00     0.168 C 
HETATM   12  O   UNL     1     -43.476 -45.363   9.916  1.00  0.00    -0.385 OA
HETATM   13  C   UNL     1     -41.958 -46.982  11.376  1.00  0.00     0.007 C 
HETATM   14  C   UNL     1     -40.735 -46.606  12.221  1.00  0.00     0.014 C 
HETATM   15  C   UNL     1     -43.151 -47.029  12.348  1.00  0.00     0.014 C 
HETATM   16  C   UNL     1     -41.227 -46.589  13.676  1.00  0.00     0.001 C 
HETATM   17  C   UNL     1     -42.539 -47.356  13.691  1.00  0.00     0.001 C 
ENDBRANCH   3   7
BRANCH   4  18
HETATM   18  C   UNL     1     -42.057 -51.785  12.438  1.00  0.00     0.123 A 
HETATM   19  C   UNL     1     -42.654 -51.322  13.593  1.00  0.00     0.051 A 
HETATM   20  C   UNL     1     -43.892 -51.848  13.956  1.00  0.00     0.022 A 
HETATM   21  C   UNL     1     -44.481 -52.786  13.127  1.00  0.00     0.107 A 
HETATM   22  N   UNL     1     -43.895 -53.210  11.998  1.00  0.00    -0.310 N 
HETATM   23  N   UNL     1     -42.671 -52.709  11.663  1.00  0.00    -0.286 N 
ATOM     24  HN  UNL     1     -44.356 -53.895  11.401  1.00  0.00     0.186 HD
ATOM     25  HN  UNL     1     -42.212 -53.037  10.814  1.00  0.00     0.188 HD
ENDBRANCH   4  18
TORSDOF 2
ENDMDL
MODEL 3
REMARK VINA RESULT:      -6.7      3.367      6.921
REMARK  2 active torsions:
REMARK  status: ('A' for Active; 'I' for Inactive)
REMARK       I    between atoms: C_2  and  N_3 
REMARK       I    between atoms: C_2  and  N_15 
REMARK    1  A    between atoms: N_3  and  C_4 
REMARK    2  A    between atoms: N_15  and  C_16 
ROOT
HETATM    1  O   UNL     1     -37.671 -49.530  11.589  1.00  0.00    -0.247 OA
HETATM    2  C   UNL     1     -38.851 -49.836  11.713  1.00  0.00     0.322 C 
HETATM    3  N   UNL     1     -39.881 -48.945  11.614  1.00  0.00    -0.337 N 
HETATM    4  N   UNL     1     -39.218 -51.147  11.880  1.00  0.00    -0.294 N 
HETATM    5  H   UNL     1     -40.792 -49.321  11.863  1.00  0.00     0.164 HD
HETATM    6  H   UNL     1     -38.458 -51.802  11.774  1.00  0.00     0.172 HD
ENDROOT
BRANCH   3   7
HETATM    7  C   UNL     1     -39.736 -47.493  11.553  1.00  0.00     0.103 C 
HETATM    8  C   UNL     1     -40.984 -46.672  11.155  1.00  0.00     0.041 C 
HETATM    9  C   UNL     1     -41.576 -45.590  10.272  1.00  0.00     0.035 C 
HETATM   10  C   UNL     1     -40.324 -45.608  12.133  1.00  0.00     0.138 C 
HETATM   11  C   UNL     1     -42.284 -44.707  11.334  1.00  0.00     0.168 C 
HETATM   12  O   UNL     1     -41.346 -44.640  12.425  1.00  0.00    -0.385 OA
HETATM   13  C   UNL     1     -39.942 -46.816  13.019  1.00  0.00     0.007 C 
HETATM   14  C   UNL     1     -38.643 -46.896  13.829  1.00  0.00     0.014 C 
HETATM   15  C   UNL     1     -41.081 -47.136  14.005  1.00  0.00     0.014 C 
HETATM   16  C   UNL     1     -39.053 -47.401  15.220  1.00  0.00     0.001 C 
HETATM   17  C   UNL     1     -40.439 -48.005  15.062  1.00  0.00     0.001 C 
ENDBRANCH   3   7
BRANCH   4  18
HETATM   18  C   UNL     1     -40.493 -51.633  12.205  1.00  0.00     0.123 A 
HETATM   19  C   UNL     1     -40.974 -51.469  13.489  1.00  0.00     0.051 A 
HETATM   20  C   UNL     1     -42.227 -51.991  13.798  1.00  0.00     0.022 A 
HETATM   21  C   UNL     1     -42.947 -52.621  12.799  1.00  0.00     0.107 A 
HETATM   22  N   UNL     1     -42.473 -52.753  11.552  1.00  0.00    -0.310 N 
HETATM   23  N   UNL     1     -41.234 -52.262  11.263  1.00  0.00    -0.286 N 
ATOM     24  HN  UNL     1     -43.029 -53.213  10.832  1.00  0.00     0.186 HD
ATOM     25  HN  UNL     1     -40.859 -52.371  10.321  1.00  0.00     0.188 HD
ENDBRANCH   4  18
TORSDOF 2
ENDMDL
MODEL 4
REMARK VINA RESULT:      -6.7      3.431      6.632
REMARK  2 active torsions:
REMARK  status: ('A' for Active; 'I' for Inactive)
REMARK       I    between atoms: C_2  and  N_3 
REMARK       I    between atoms: C_2  and  N_15 
REMARK    1  A    between atoms: N_3  and  C_4 
REMARK    2  A    between atoms: N_15  and  C_16 
ROOT
HETATM    1  O   UNL     1     -42.595 -48.523  11.724  1.00  0.00    -0.247 OA
HETATM    2  C   UNL     1     -42.077 -49.544  12.158  1.00  0.00     0.322 C 
HETATM    3  N   UNL     1     -40.891 -49.566  12.835  1.00  0.00    -0.337 N 
HETATM    4  N   UNL     1     -42.722 -50.750  12.060  1.00  0.00    -0.294 N 
HETATM    5  H   UNL     1     -40.527 -50.496  13.023  1.00  0.00     0.164 HD
HETATM    6  H   UNL     1     -43.668 -50.682  11.716  1.00  0.00     0.172 HD
ENDROOT
BRANCH   3   7
HETATM    7  C   UNL     1     -39.974 -48.436  12.963  1.00  0.00     0.103 C 
HETATM    8  C   UNL     1     -39.728 -47.882  14.385  1.00  0.00     0.041 C 
HETATM    9  C   UNL     1     -39.672 -46.668  15.294  1.00  0.00     0.035 C 
HETATM   10  C   UNL     1     -38.290 -47.580  13.780  1.00  0.00     0.138 C 
HETATM   11  C   UNL     1     -38.292 -46.878  15.971  1.00  0.00     0.168 C 
HETATM   12  O   UNL     1     -37.430 -47.308  14.900  1.00  0.00    -0.385 OA
HETATM   13  C   UNL     1     -38.427 -48.936  13.053  1.00  0.00     0.007 C 
HETATM   14  C   UNL     1     -37.874 -49.206  11.648  1.00  0.00     0.014 C 
HETATM   15  C   UNL     1     -37.901 -50.076  13.945  1.00  0.00     0.014 C 
HETATM   16  C   UNL     1     -37.166 -50.566  11.736  1.00  0.00     0.001 C 
HETATM   17  C   UNL     1     -37.685 -51.234  12.998  1.00  0.00     0.001 C 
ENDBRANCH   3   7
BRANCH   4  18
HETATM   18  C   UNL     1     -42.194 -52.017  12.348  1.00  0.00     0.123 A 
HETATM   19  C   UNL     1     -42.582 -52.666  13.504  1.00  0.00     0.051 A 
HETATM   20  C   UNL     1     -42.017 -53.907  13.788  1.00  0.00     0.022 A 
HETATM   21  C   UNL     1     -41.120 -54.448  12.885  1.00  0.00     0.107 A 
HETATM   22  N   UNL     1     -40.769 -53.812  11.758  1.00  0.00    -0.310 N 
HETATM   23  N   UNL     1     -41.307 -52.585  11.499  1.00  0.00    -0.286 N 
ATOM     24  HN  UNL     1     -40.112 -54.238  11.105  1.00  0.00     0.186 HD
ATOM     25  HN  UNL     1     -41.035 -52.088  10.651  1.00  0.00     0.188 HD
ENDBRANCH   4  18
TORSDOF 2
ENDMDL
MODEL 5
REMARK VINA RESULT:      -6.6      2.301      3.656
REMARK  2 active torsions:
REMARK  status: ('A' for Active; 'I' for Inactive)
REMARK       I    between atoms: C_2  and  N_3 
REMARK       I    between atoms: C_2  and  N_15 
REMARK    1  A    between atoms: N_3  and  C_4 
REMARK    2  A    between atoms: N_15  and  C_16 
ROOT
HETATM    1  O   UNL     1     -43.072 -55.924  15.533  1.00  0.00    -0.247 OA
HETATM    2  C   UNL     1     -42.834 -54.847  15.000  1.00  0.00     0.322 C 
HETATM    3  N   UNL     1     -43.619 -53.739  15.143  1.00  0.00    -0.337 N 
HETATM    4  N   UNL     1     -41.683 -54.665  14.276  1.00  0.00    -0.294 N 
HETATM    5  H   UNL     1     -43.365 -52.959  14.543  1.00  0.00     0.164 HD
HETATM    6  H   UNL     1     -41.038 -55.439  14.332  1.00  0.00     0.172 HD
ENDROOT
BRANCH   3   7
HETATM    7  C   UNL     1     -44.941 -53.718  15.765  1.00  0.00     0.103 C 
HETATM    8  C   UNL     1     -45.089 -52.928  17.085  1.00  0.00     0.041 C 
HETATM    9  C   UNL     1     -45.577 -52.916  18.522  1.00  0.00     0.035 C 
HETATM   10  C   UNL     1     -46.551 -52.679  16.515  1.00  0.00     0.138 C 
HETATM   11  C   UNL     1     -46.392 -51.596  18.538  1.00  0.00     0.168 C 
HETATM   12  O   UNL     1     -47.108 -51.602  17.288  1.00  0.00    -0.385 OA
HETATM   13  C   UNL     1     -45.875 -52.544  15.132  1.00  0.00     0.007 C 
HETATM   14  C   UNL     1     -46.515 -53.023  13.824  1.00  0.00     0.014 C 
HETATM   15  C   UNL     1     -45.444 -51.086  14.888  1.00  0.00     0.014 C 
HETATM   16  C   UNL     1     -46.307 -51.881  12.819  1.00  0.00     0.001 C 
HETATM   17  C   UNL     1     -45.212 -51.000  13.397  1.00  0.00     0.001 C 
ENDBRANCH   3   7
BRANCH   4  18
HETATM   18  C   UNL     1     -41.355 -53.563  13.474  1.00  0.00     0.123 A 
HETATM   19  C   UNL     1     -40.726 -52.474  14.042  1.00  0.00     0.051 A 
HETATM   20  C   UNL     1     -40.442 -51.376  13.234  1.00  0.00     0.022 A 
HETATM   21  C   UNL     1     -40.773 -51.439  11.892  1.00  0.00     0.107 A 
HETATM   22  N   UNL     1     -41.366 -52.513  11.353  1.00  0.00    -0.310 N 
HETATM   23  N   UNL     1     -41.664 -53.575  12.156  1.00  0.00    -0.286 N 
ATOM     24  HN  UNL     1     -41.590 -52.537  10.358  1.00  0.00     0.186 HD
ATOM     25  HN  UNL     1     -42.128 -54.390  11.757  1.00  0.00     0.188 HD
ENDBRANCH   4  18
TORSDOF 2
ENDMDL
MODEL 6
REMARK VINA RESULT:      -6.4      2.497      6.026
REMARK  2 active torsions:
REMARK  status: ('A' for Active; 'I' for Inactive)
REMARK       I    between atoms: C_2  and  N_3 
REMARK       I    between atoms: C_2  and  N_15 
REMARK    1  A    between atoms: N_3  and  C_4 
REMARK    2  A    between atoms: N_15  and  C_16 
ROOT
HETATM    1  O   UNL     1     -40.716 -53.042  11.821  1.00  0.00    -0.247 OA
HETATM    2  C   UNL     1     -41.765 -52.449  12.041  1.00  0.00     0.322 C 
HETATM    3  N   UNL     1     -41.939 -51.111  11.834  1.00  0.00    -0.337 N 
HETATM    4  N   UNL     1     -42.884 -53.135  12.439  1.00  0.00    -0.294 N 
HETATM    5  H   UNL     1     -42.820 -50.740  12.179  1.00  0.00     0.164 HD
HETATM    6  H   UNL     1     -42.779 -54.139  12.415  1.00  0.00     0.172 HD
ENDROOT
BRANCH   3   7
HETATM    7  C   UNL     1     -40.874 -50.160  11.525  1.00  0.00     0.103 C 
HETATM    8  C   UNL     1     -41.262 -48.667  11.433  1.00  0.00     0.041 C 
HETATM    9  C   UNL     1     -41.199 -47.375  10.640  1.00  0.00     0.035 C 
HETATM   10  C   UNL     1     -39.786 -48.476  11.989  1.00  0.00     0.138 C 
HETATM   11  C   UNL     1     -40.715 -46.388  11.734  1.00  0.00     0.168 C 
HETATM   12  O   UNL     1     -39.700 -47.117  12.451  1.00  0.00    -0.385 OA
HETATM   13  C   UNL     1     -40.071 -49.714  12.869  1.00  0.00     0.007 C 
HETATM   14  C   UNL     1     -39.011 -50.763  13.227  1.00  0.00     0.014 C 
HETATM   15  C   UNL     1     -40.715 -49.286  14.201  1.00  0.00     0.014 C 
HETATM   16  C   UNL     1     -39.171 -51.016  14.734  1.00  0.00     0.001 C 
HETATM   17  C   UNL     1     -40.542 -50.480  15.111  1.00  0.00     0.001 C 
ENDBRANCH   3   7
BRANCH   4  18
HETATM   18  C   UNL     1     -44.094 -52.589  12.891  1.00  0.00     0.123 A 
HETATM   19  C   UNL     1     -44.132 -51.941  14.109  1.00  0.00     0.051 A 
HETATM   20  C   UNL     1     -45.352 -51.438  14.554  1.00  0.00     0.022 A 
HETATM   21  C   UNL     1     -46.463 -51.583  13.742  1.00  0.00     0.107 A 
HETATM   22  N   UNL     1     -46.403 -52.198  12.552  1.00  0.00    -0.310 N 
HETATM   23  N   UNL     1     -45.210 -52.710  12.135  1.00  0.00    -0.286 N 
ATOM     24  HN  UNL     1     -47.236 -52.282  11.970  1.00  0.00     0.186 HD
ATOM     25  HN  UNL     1     -45.159 -53.193  11.238  1.00  0.00     0.188 HD
ENDBRANCH   4  18
TORSDOF 2
ENDMDL
MODEL 7
REMARK VINA RESULT:      -6.3      2.393      4.024
REMARK  2 active torsions:
REMARK  status: ('A' for Active; 'I' for Inactive)
REMARK       I    between atoms: C_2  and  N_3 
REMARK       I    between atoms: C_2  and  N_15 
REMARK    1  A    between atoms: N_3  and  C_4 
REMARK    2  A    between atoms: N_15  and  C_16 
ROOT
HETATM    1  O   UNL     1     -42.485 -48.287  14.451  1.00  0.00    -0.247 OA
HETATM    2  C   UNL     1     -41.697 -49.017  13.862  1.00  0.00     0.322 C 
HETATM    3  N   UNL     1     -41.897 -50.354  13.672  1.00  0.00    -0.337 N 
HETATM    4  N   UNL     1     -40.574 -48.498  13.270  1.00  0.00    -0.294 N 
HETATM    5  H   UNL     1     -41.102 -50.850  13.278  1.00  0.00     0.164 HD
HETATM    6  H   UNL     1     -40.539 -47.489  13.273  1.00  0.00     0.172 HD
ENDROOT
BRANCH   3   7
HETATM    7  C   UNL     1     -42.951 -51.146  14.300  1.00  0.00     0.103 C 
HETATM    8  C   UNL     1     -44.240 -51.387  13.482  1.00  0.00     0.041 C 
HETATM    9  C   UNL     1     -45.756 -51.346  13.441  1.00  0.00     0.035 C 
HETATM   10  C   UNL     1     -44.231 -52.758  14.285  1.00  0.00     0.138 C 
HETATM   11  C   UNL     1     -46.068 -52.767  12.901  1.00  0.00     0.168 C 
HETATM   12  O   UNL     1     -45.157 -53.627  13.611  1.00  0.00    -0.385 OA
HETATM   13  C   UNL     1     -42.698 -52.741  14.090  1.00  0.00     0.007 C 
HETATM   14  C   UNL     1     -41.704 -53.264  15.133  1.00  0.00     0.014 C 
HETATM   15  C   UNL     1     -42.322 -53.423  12.762  1.00  0.00     0.014 C 
HETATM   16  C   UNL     1     -40.695 -54.119  14.352  1.00  0.00     0.001 C 
HETATM   17  C   UNL     1     -40.847 -53.727  12.891  1.00  0.00     0.001 C 
ENDBRANCH   3   7
BRANCH   4  18
HETATM   18  C   UNL     1     -39.503 -49.214  12.717  1.00  0.00     0.123 A 
HETATM   19  C   UNL     1     -38.619 -49.865  13.554  1.00  0.00     0.051 A 
HETATM   20  C   UNL     1     -37.542 -50.539  12.984  1.00  0.00     0.022 A 
HETATM   21  C   UNL     1     -37.424 -50.553  11.606  1.00  0.00     0.107 A 
HETATM   22  N   UNL     1     -38.303 -49.932  10.807  1.00  0.00    -0.310 N 
HETATM   23  N   UNL     1     -39.341 -49.252  11.373  1.00  0.00    -0.286 N 
ATOM     24  HN  UNL     1     -38.198 -49.966   9.794  1.00  0.00     0.186 HD
ATOM     25  HN  UNL     1     -40.007 -48.764  10.774  1.00  0.00     0.188 HD
ENDBRANCH   4  18
TORSDOF 2
ENDMDL
MODEL 8
REMARK VINA RESULT:      -6.0      2.115      3.340
REMARK  2 active torsions:
REMARK  status: ('A' for Active; 'I' for Inactive)
REMARK       I    between atoms: C_2  and  N_3 
REMARK       I    between atoms: C_2  and  N_15 
REMARK    1  A    between atoms: N_3  and  C_4 
REMARK    2  A    between atoms: N_15  and  C_16 
ROOT
HETATM    1  O   UNL     1     -41.130 -49.608  15.606  1.00  0.00    -0.247 OA
HETATM    2  C   UNL     1     -41.730 -49.362  14.566  1.00  0.00     0.322 C 
HETATM    3  N   UNL     1     -42.944 -49.897  14.245  1.00  0.00    -0.337 N 
HETATM    4  N   UNL     1     -41.238 -48.439  13.679  1.00  0.00    -0.294 N 
HETATM    5  H   UNL     1     -43.258 -49.699  13.299  1.00  0.00     0.164 HD
HETATM    6  H   UNL     1     -40.436 -47.931  14.019  1.00  0.00     0.172 HD
ENDROOT
BRANCH   3   7
HETATM    7  C   UNL     1     -43.606 -50.978  14.970  1.00  0.00     0.103 C 
HETATM    8  C   UNL     1     -45.097 -51.235  14.653  1.00  0.00     0.041 C 
HETATM    9  C   UNL     1     -46.503 -51.440  15.186  1.00  0.00     0.035 C 
HETATM   10  C   UNL     1     -44.681 -52.733  14.980  1.00  0.00     0.138 C 
HETATM   11  C   UNL     1     -46.914 -52.729  14.427  1.00  0.00     0.168 C 
HETATM   12  O   UNL     1     -45.743 -53.565  14.480  1.00  0.00    -0.385 OA
HETATM   13  C   UNL     1     -43.359 -52.416  14.246  1.00  0.00     0.007 C 
HETATM   14  C   UNL     1     -42.000 -52.992  14.659  1.00  0.00     0.014 C 
HETATM   15  C   UNL     1     -43.503 -52.699  12.740  1.00  0.00     0.014 C 
HETATM   16  C   UNL     1     -41.336 -53.461  13.356  1.00  0.00     0.001 C 
HETATM   17  C   UNL     1     -42.083 -52.773  12.226  1.00  0.00     0.001 C 
ENDBRANCH   3   7
BRANCH   4  18
HETATM   18  C   UNL     1     -41.710 -48.176  12.385  1.00  0.00     0.123 A 
HETATM   19  C   UNL     1     -42.743 -47.277  12.210  1.00  0.00     0.051 A 
HETATM   20  C   UNL     1     -43.220 -47.059  10.919  1.00  0.00     0.022 A 
HETATM   21  C   UNL     1     -42.616 -47.728   9.869  1.00  0.00     0.107 A 
HETATM   22  N   UNL     1     -41.601 -48.583  10.056  1.00  0.00    -0.310 N 
HETATM   23  N   UNL     1     -41.157 -48.811  11.325  1.00  0.00    -0.286 N 
ATOM     24  HN  UNL     1     -41.168 -49.055   9.263  1.00  0.00     0.186 HD
ATOM     25  HN  UNL     1     -40.394 -49.470  11.478  1.00  0.00     0.188 HD
ENDBRANCH   4  18
TORSDOF 2
ENDMDL
MODEL 9
REMARK VINA RESULT:      -5.9      2.528      3.843
REMARK  2 active torsions:
REMARK  status: ('A' for Active; 'I' for Inactive)
REMARK       I    between atoms: C_2  and  N_3 
REMARK       I    between atoms: C_2  and  N_15 
REMARK    1  A    between atoms: N_3  and  C_4 
REMARK    2  A    between atoms: N_15  and  C_16 
ROOT
HETATM    1  O   UNL     1     -41.529 -51.099  16.726  1.00  0.00    -0.247 OA
HETATM    2  C   UNL     1     -41.491 -50.522  15.646  1.00  0.00     0.322 C 
HETATM    3  N   UNL     1     -42.416 -50.700  14.657  1.00  0.00    -0.337 N 
HETATM    4  N   UNL     1     -40.536 -49.571  15.396  1.00  0.00    -0.294 N 
HETATM    5  H   UNL     1     -42.185 -50.251  13.775  1.00  0.00     0.164 HD
HETATM    6  H   UNL     1     -39.976 -49.332  16.200  1.00  0.00     0.172 HD
ENDROOT
BRANCH   3   7
HETATM    7  C   UNL     1     -43.450 -51.732  14.647  1.00  0.00     0.103 C 
HETATM    8  C   UNL     1     -44.682 -51.491  13.745  1.00  0.00     0.041 C 
HETATM    9  C   UNL     1     -46.194 -51.467  13.624  1.00  0.00     0.035 C 
HETATM   10  C   UNL     1     -44.630 -53.075  13.627  1.00  0.00     0.138 C 
HETATM   11  C   UNL     1     -46.396 -52.333  12.353  1.00  0.00     0.168 C 
HETATM   12  O   UNL     1     -45.470 -53.424  12.513  1.00  0.00    -0.385 OA
HETATM   13  C   UNL     1     -43.094 -52.916  13.587  1.00  0.00     0.007 C 
HETATM   14  C   UNL     1     -42.121 -53.919  14.219  1.00  0.00     0.014 C 
HETATM   15  C   UNL     1     -42.616 -52.712  12.138  1.00  0.00     0.014 C 
HETATM   16  C   UNL     1     -41.027 -54.154  13.166  1.00  0.00     0.001 C 
HETATM   17  C   UNL     1     -41.133 -53.003  12.179  1.00  0.00     0.001 C 
ENDBRANCH   3   7
BRANCH   4  18
HETATM   18  C   UNL     1     -40.258 -48.955  14.167  1.00  0.00     0.123 A 
HETATM   19  C   UNL     1     -39.457 -49.605  13.249  1.00  0.00     0.051 A 
HETATM   20  C   UNL     1     -39.165 -48.959  12.050  1.00  0.00     0.022 A 
HETATM   21  C   UNL     1     -39.715 -47.711  11.820  1.00  0.00     0.107 A 
HETATM   22  N   UNL     1     -40.506 -47.103  12.715  1.00  0.00    -0.310 N 
HETATM   23  N   UNL     1     -40.768 -47.731  13.897  1.00  0.00    -0.286 N 
ATOM     24  HN  UNL     1     -40.907 -46.187  12.515  1.00  0.00     0.186 HD
ATOM     25  HN  UNL     1     -41.357 -47.270  14.589  1.00  0.00     0.188 HD
ENDBRANCH   4  18
TORSDOF 2
ENDMDL
