MODEL 1
REMARK VINA RESULT:      -5.4      0.000      0.000
REMARK  2 active torsions:
REMARK  status: ('A' for Active; 'I' for Inactive)
REMARK    1  A    between atoms: C_2  and  C_4 
REMARK    2  A    between atoms: C_9  and  C_11 
ROOT
HETATM    1  C   UNL     1     -44.730 -47.697   8.993  1.00  0.00     0.143 A 
HETATM    2  N   UNL     1     -43.991 -47.357   7.960  1.00  0.00    -0.281 N 
ATOM      3  HN  UNL     1     -44.274 -47.360   6.980  1.00  0.00     0.189 HD
HETATM    4  N   UNL     1     -42.760 -46.998   8.460  1.00  0.00    -0.279 N 
ATOM      5  HN  UNL     1     -41.957 -46.671   7.923  1.00  0.00     0.189 HD
HETATM    6  C   UNL     1     -42.819 -47.159   9.768  1.00  0.00     0.171 A 
HETATM    7  O   UNL     1     -44.063 -47.581  10.186  1.00  0.00    -0.279 OA
ENDROOT
BRANCH   6   8
HETATM    8  C   UNL     1     -41.772 -46.853  10.794  1.00  0.00     0.225 C 
HETATM    9  C   UNL     1     -42.250 -47.075  12.252  1.00  0.00     0.310 C 
HETATM   10  N   UNL     1     -43.126 -46.011  12.783  1.00  0.00     0.088 N 
HETATM   11  C   UNL     1     -42.489 -44.707  12.565  1.00  0.00     0.295 C 
HETATM   12  H   UNL     1     -43.278 -46.160  13.780  1.00  0.00     0.316 HD
HETATM   13  C   UNL     1     -42.115 -44.503  11.090  1.00  0.00     0.199 C 
HETATM   14  O   UNL     1     -41.228 -45.525  10.614  1.00  0.00    -0.374 OA
ENDBRANCH   6   8
BRANCH   1  15
HETATM   15  C   UNL     1     -46.142 -48.176   8.996  1.00  0.00     0.054 C 
HETATM   16  C   UNL     1     -47.135 -47.028   9.155  1.00  0.00     0.018 C 
HETATM   17  C   UNL     1     -46.460 -49.009   7.757  1.00  0.00     0.018 C 
ENDBRANCH   1  15
TORSDOF 2
ENDMDL
MODEL 2
REMARK VINA RESULT:      -5.4      1.452      1.966
REMARK  2 active torsions:
REMARK  status: ('A' for Active; 'I' for Inactive)
REMARK    1  A    between atoms: C_2  and  C_4 
REMARK    2  A    between atoms: C_9  and  C_11 
ROOT
HETATM    1  C   UNL     1     -44.703 -47.544   8.862  1.00  0.00     0.143 A 
HETATM    2  N   UNL     1     -43.839 -47.333   7.893  1.00  0.00    -0.281 N 
ATOM      3  HN  UNL     1     -43.927 -47.633   6.922  1.00  0.00     0.189 HD
HETATM    4  N   UNL     1     -42.795 -46.627   8.446  1.00  0.00    -0.279 N 
ATOM      5  HN  UNL     1     -41.962 -46.293   7.960  1.00  0.00     0.189 HD
HETATM    6  C   UNL     1     -43.077 -46.467   9.724  1.00  0.00     0.171 A 
HETATM    7  O   UNL     1     -44.301 -47.007  10.059  1.00  0.00    -0.279 OA
ENDROOT
BRANCH   6   8
HETATM    8  C   UNL     1     -42.304 -45.718  10.765  1.00  0.00     0.225 C 
HETATM    9  C   UNL     1     -40.827 -45.460  10.373  1.00  0.00     0.310 C 
HETATM   10  N   UNL     1     -39.938 -46.631  10.511  1.00  0.00     0.088 N 
HETATM   11  C   UNL     1     -40.099 -47.205  11.852  1.00  0.00     0.295 C 
HETATM   12  H   UNL     1     -38.970 -46.343  10.371  1.00  0.00     0.316 HD
HETATM   13  C   UNL     1     -41.570 -47.522  12.155  1.00  0.00     0.199 C 
HETATM   14  O   UNL     1     -42.403 -46.358  12.058  1.00  0.00    -0.374 OA
ENDBRANCH   6   8
BRANCH   1  15
HETATM   15  C   UNL     1     -46.001 -48.273   8.795  1.00  0.00     0.054 C 
HETATM   16  C   UNL     1     -47.184 -47.368   9.130  1.00  0.00     0.018 C 
HETATM   17  C   UNL     1     -46.199 -48.954   7.444  1.00  0.00     0.018 C 
ENDBRANCH   1  15
TORSDOF 2
ENDMDL
MODEL 3
REMARK VINA RESULT:      -5.1      7.057      8.648
REMARK  2 active torsions:
REMARK  status: ('A' for Active; 'I' for Inactive)
REMARK    1  A    between atoms: C_2  and  C_4 
REMARK    2  A    between atoms: C_9  and  C_11 
ROOT
HETATM    1  C   UNL     1     -41.010 -53.392  13.022  1.00  0.00     0.143 A 
HETATM    2  N   UNL     1     -41.044 -53.055  11.751  1.00  0.00    -0.281 N 
ATOM      3  HN  UNL     1     -40.260 -53.059  11.098  1.00  0.00     0.189 HD
HETATM    4  N   UNL     1     -42.343 -52.694  11.476  1.00  0.00    -0.279 N 
ATOM      5  HN  UNL     1     -42.712 -52.391  10.574  1.00  0.00     0.189 HD
HETATM    6  C   UNL     1     -43.019 -52.817  12.602  1.00  0.00     0.171 A 
HETATM    7  O   UNL     1     -42.233 -53.287  13.633  1.00  0.00    -0.279 OA
ENDROOT
BRANCH   6   8
HETATM    8  C   UNL     1     -44.483 -52.610  12.839  1.00  0.00     0.225 C 
HETATM    9  C   UNL     1     -44.812 -52.090  14.262  1.00  0.00     0.310 C 
HETATM   10  N   UNL     1     -44.754 -53.116  15.322  1.00  0.00     0.088 N 
HETATM   11  C   UNL     1     -45.559 -54.275  14.919  1.00  0.00     0.295 C 
HETATM   12  H   UNL     1     -45.117 -52.727  16.192  1.00  0.00     0.316 HD
HETATM   13  C   UNL     1     -45.133 -54.803  13.542  1.00  0.00     0.199 C 
HETATM   14  O   UNL     1     -45.242 -53.799  12.523  1.00  0.00    -0.374 OA
ENDBRANCH   6   8
BRANCH   1  15
HETATM   15  C   UNL     1     -39.837 -53.848  13.822  1.00  0.00     0.054 C 
HETATM   16  C   UNL     1     -38.896 -52.696  14.164  1.00  0.00     0.018 C 
HETATM   17  C   UNL     1     -40.268 -54.595  15.081  1.00  0.00     0.018 C 
ENDBRANCH   1  15
TORSDOF 2
ENDMDL
MODEL 4
REMARK VINA RESULT:      -5.0      1.624      2.300
REMARK  2 active torsions:
REMARK  status: ('A' for Active; 'I' for Inactive)
REMARK    1  A    between atoms: C_2  and  C_4 
REMARK    2  A    between atoms: C_9  and  C_11 
ROOT
HETATM    1  C   UNL     1     -42.914 -47.317   9.467  1.00  0.00     0.143 A 
HETATM    2  N   UNL     1     -41.895 -48.148   9.501  1.00  0.00    -0.281 N 
ATOM      3  HN  UNL     1     -41.727 -48.932   8.870  1.00  0.00     0.189 HD
HETATM    4  N   UNL     1     -41.100 -47.751  10.551  1.00  0.00    -0.279 N 
ATOM      5  HN  UNL     1     -40.221 -48.178  10.844  1.00  0.00     0.189 HD
HETATM    6  C   UNL     1     -41.693 -46.712  11.107  1.00  0.00     0.171 A 
HETATM    7  O   UNL     1     -42.851 -46.360  10.448  1.00  0.00    -0.279 OA
ENDROOT
BRANCH   6   8
HETATM    8  C   UNL     1     -41.218 -45.865  12.246  1.00  0.00     0.225 C 
HETATM    9  C   UNL     1     -42.349 -45.052  12.927  1.00  0.00     0.310 C 
HETATM   10  N   UNL     1     -42.784 -43.856  12.179  1.00  0.00     0.088 N 
HETATM   11  C   UNL     1     -41.609 -43.050  11.829  1.00  0.00     0.295 C 
HETATM   12  H   UNL     1     -43.422 -43.307  12.755  1.00  0.00     0.316 HD
HETATM   13  C   UNL     1     -40.560 -43.882  11.080  1.00  0.00     0.199 C 
HETATM   14  O   UNL     1     -40.121 -45.011  11.848  1.00  0.00    -0.374 OA
ENDBRANCH   6   8
BRANCH   1  15
HETATM   15  C   UNL     1     -44.070 -47.316   8.527  1.00  0.00     0.054 C 
HETATM   16  C   UNL     1     -43.852 -48.263   7.350  1.00  0.00     0.018 C 
HETATM   17  C   UNL     1     -45.382 -47.627   9.243  1.00  0.00     0.018 C 
ENDBRANCH   1  15
TORSDOF 2
ENDMDL
MODEL 5
REMARK VINA RESULT:      -5.0      5.938      6.973
REMARK  2 active torsions:
REMARK  status: ('A' for Active; 'I' for Inactive)
REMARK    1  A    between atoms: C_2  and  C_4 
REMARK    2  A    between atoms: C_9  and  C_11 
ROOT
HETATM    1  C   UNL     1     -40.676 -52.837  12.345  1.00  0.00     0.143 A 
HETATM    2  N   UNL     1     -41.413 -52.337  11.378  1.00  0.00    -0.281 N 
ATOM      3  HN  UNL     1     -42.226 -52.774  10.943  1.00  0.00     0.189 HD
HETATM    4  N   UNL     1     -40.874 -51.110  11.069  1.00  0.00    -0.279 N 
ATOM      5  HN  UNL     1     -41.217 -50.454  10.367  1.00  0.00     0.189 HD
HETATM    6  C   UNL     1     -39.828 -50.944  11.855  1.00  0.00     0.171 A 
HETATM    7  O   UNL     1     -39.654 -52.003  12.721  1.00  0.00    -0.279 OA
ENDROOT
BRANCH   6   8
HETATM    8  C   UNL     1     -38.924 -49.756  11.969  1.00  0.00     0.225 C 
HETATM    9  C   UNL     1     -37.575 -50.068  12.664  1.00  0.00     0.310 C 
HETATM   10  N   UNL     1     -37.652 -50.189  14.134  1.00  0.00     0.088 N 
HETATM   11  C   UNL     1     -38.337 -49.012  14.682  1.00  0.00     0.295 C 
HETATM   12  H   UNL     1     -36.710 -50.253  14.521  1.00  0.00     0.316 HD
HETATM   13  C   UNL     1     -39.705 -48.800  14.020  1.00  0.00     0.199 C 
HETATM   14  O   UNL     1     -39.596 -48.640  12.598  1.00  0.00    -0.374 OA
ENDBRANCH   6   8
BRANCH   1  15
HETATM   15  C   UNL     1     -40.828 -54.151  13.033  1.00  0.00     0.054 C 
HETATM   16  C   UNL     1     -39.683 -54.424  14.005  1.00  0.00     0.018 C 
HETATM   17  C   UNL     1     -42.179 -54.272  13.731  1.00  0.00     0.018 C 
ENDBRANCH   1  15
TORSDOF 2
ENDMDL
MODEL 6
REMARK VINA RESULT:      -5.0      6.882      7.462
REMARK  2 active torsions:
REMARK  status: ('A' for Active; 'I' for Inactive)
REMARK    1  A    between atoms: C_2  and  C_4 
REMARK    2  A    between atoms: C_9  and  C_11 
ROOT
HETATM    1  C   UNL     1     -44.614 -52.860  13.599  1.00  0.00     0.143 A 
HETATM    2  N   UNL     1     -44.585 -52.682  12.296  1.00  0.00    -0.281 N 
ATOM      3  HN  UNL     1     -45.339 -52.316  11.714  1.00  0.00     0.189 HD
HETATM    4  N   UNL     1     -43.340 -53.085  11.873  1.00  0.00    -0.279 N 
ATOM      5  HN  UNL     1     -42.987 -53.065  10.916  1.00  0.00     0.189 HD
HETATM    6  C   UNL     1     -42.690 -53.502  12.942  1.00  0.00     0.171 A 
HETATM    7  O   UNL     1     -43.437 -53.363  14.093  1.00  0.00    -0.279 OA
ENDROOT
BRANCH   6   8
HETATM    8  C   UNL     1     -41.278 -53.987  13.047  1.00  0.00     0.225 C 
HETATM    9  C   UNL     1     -40.811 -54.225  14.506  1.00  0.00     0.310 C 
HETATM   10  N   UNL     1     -40.478 -52.997  15.255  1.00  0.00     0.088 N 
HETATM   11  C   UNL     1     -39.545 -52.186  14.464  1.00  0.00     0.295 C 
HETATM   12  H   UNL     1     -40.050 -53.247  16.146  1.00  0.00     0.316 HD
HETATM   13  C   UNL     1     -40.095 -51.907  13.059  1.00  0.00     0.199 C 
HETATM   14  O   UNL     1     -40.367 -53.116  12.337  1.00  0.00    -0.374 OA
ENDBRANCH   6   8
BRANCH   1  15
HETATM   15  C   UNL     1     -45.738 -52.591  14.540  1.00  0.00     0.054 C 
HETATM   16  C   UNL     1     -46.610 -51.428  14.073  1.00  0.00     0.018 C 
HETATM   17  C   UNL     1     -46.579 -53.840  14.789  1.00  0.00     0.018 C 
ENDBRANCH   1  15
TORSDOF 2
ENDMDL
MODEL 7
REMARK VINA RESULT:      -4.9      4.088      5.117
REMARK  2 active torsions:
REMARK  status: ('A' for Active; 'I' for Inactive)
REMARK    1  A    between atoms: C_2  and  C_4 
REMARK    2  A    between atoms: C_9  and  C_11 
ROOT
HETATM    1  C   UNL     1     -41.785 -48.431  11.065  1.00  0.00     0.143 A 
HETATM    2  N   UNL     1     -41.243 -48.864   9.948  1.00  0.00    -0.281 N 
ATOM      3  HN  UNL     1     -41.376 -48.475   9.015  1.00  0.00     0.189 HD
HETATM    4  N   UNL     1     -40.461 -49.945  10.286  1.00  0.00    -0.279 N 
ATOM      5  HN  UNL     1     -39.892 -50.506   9.652  1.00  0.00     0.189 HD
HETATM    6  C   UNL     1     -40.589 -50.116  11.588  1.00  0.00     0.171 A 
HETATM    7  O   UNL     1     -41.405 -49.164  12.160  1.00  0.00    -0.279 OA
ENDROOT
BRANCH   6   8
HETATM    8  C   UNL     1     -39.905 -51.113  12.470  1.00  0.00     0.225 C 
HETATM    9  C   UNL     1     -40.192 -50.906  13.979  1.00  0.00     0.310 C 
HETATM   10  N   UNL     1     -39.444 -49.795  14.601  1.00  0.00     0.088 N 
HETATM   11  C   UNL     1     -38.017 -49.937  14.288  1.00  0.00     0.295 C 
HETATM   12  H   UNL     1     -39.581 -49.816  15.612  1.00  0.00     0.316 HD
HETATM   13  C   UNL     1     -37.782 -50.051  12.776  1.00  0.00     0.199 C 
HETATM   14  O   UNL     1     -38.484 -51.165  12.205  1.00  0.00    -0.374 OA
ENDBRANCH   6   8
BRANCH   1  15
HETATM   15  C   UNL     1     -42.726 -47.289  11.249  1.00  0.00     0.054 C 
HETATM   16  C   UNL     1     -44.011 -47.472  10.445  1.00  0.00     0.018 C 
HETATM   17  C   UNL     1     -43.032 -47.040  12.723  1.00  0.00     0.018 C 
ENDBRANCH   1  15
TORSDOF 2
ENDMDL
MODEL 8
REMARK VINA RESULT:      -4.9      3.322      5.406
REMARK  2 active torsions:
REMARK  status: ('A' for Active; 'I' for Inactive)
REMARK    1  A    between atoms: C_2  and  C_4 
REMARK    2  A    between atoms: C_9  and  C_11 
ROOT
HETATM    1  C   UNL     1     -39.567 -49.369  11.351  1.00  0.00     0.143 A 
HETATM    2  N   UNL     1     -40.406 -49.950  10.522  1.00  0.00    -0.281 N 
ATOM      3  HN  UNL     1     -40.359 -50.910  10.181  1.00  0.00     0.189 HD
HETATM    4  N   UNL     1     -41.358 -49.009  10.204  1.00  0.00    -0.279 N 
ATOM      5  HN  UNL     1     -42.162 -49.140   9.590  1.00  0.00     0.189 HD
HETATM    6  C   UNL     1     -41.031 -47.904  10.846  1.00  0.00     0.171 A 
HETATM    7  O   UNL     1     -39.905 -48.068  11.624  1.00  0.00    -0.279 OA
ENDROOT
BRANCH   6   8
HETATM    8  C   UNL     1     -41.765 -46.600  10.894  1.00  0.00     0.225 C 
HETATM    9  C   UNL     1     -40.954 -45.456  11.556  1.00  0.00     0.310 C 
HETATM   10  N   UNL     1     -40.897 -45.514  13.030  1.00  0.00     0.088 N 
HETATM   11  C   UNL     1     -42.258 -45.655  13.562  1.00  0.00     0.295 C 
HETATM   12  H   UNL     1     -40.471 -44.660  13.389  1.00  0.00     0.316 HD
HETATM   13  C   UNL     1     -42.984 -46.854  12.938  1.00  0.00     0.199 C 
HETATM   14  O   UNL     1     -43.065 -46.749  11.509  1.00  0.00    -0.374 OA
ENDBRANCH   6   8
BRANCH   1  15
HETATM   15  C   UNL     1     -38.349 -49.949  11.985  1.00  0.00     0.054 C 
HETATM   16  C   UNL     1     -37.194 -50.075  10.995  1.00  0.00     0.018 C 
HETATM   17  C   UNL     1     -37.926 -49.162  13.223  1.00  0.00     0.018 C 
ENDBRANCH   1  15
TORSDOF 2
ENDMDL
MODEL 9
REMARK VINA RESULT:      -4.8      4.836      6.172
REMARK  2 active torsions:
REMARK  status: ('A' for Active; 'I' for Inactive)
REMARK    1  A    between atoms: C_2  and  C_4 
REMARK    2  A    between atoms: C_9  and  C_11 
ROOT
HETATM    1  C   UNL     1     -41.399 -49.020  11.128  1.00  0.00     0.143 A 
HETATM    2  N   UNL     1     -40.666 -49.811  10.376  1.00  0.00    -0.281 N 
ATOM      3  HN  UNL     1     -40.344 -49.624   9.426  1.00  0.00     0.189 HD
HETATM    4  N   UNL     1     -40.417 -50.941  11.121  1.00  0.00    -0.279 N 
ATOM      5  HN  UNL     1     -39.864 -51.749  10.835  1.00  0.00     0.189 HD
HETATM    6  C   UNL     1     -41.030 -50.777  12.278  1.00  0.00     0.171 A 
HETATM    7  O   UNL     1     -41.661 -49.554  12.364  1.00  0.00    -0.279 OA
ENDROOT
BRANCH   6   8
HETATM    8  C   UNL     1     -41.030 -51.680  13.471  1.00  0.00     0.225 C 
HETATM    9  C   UNL     1     -40.511 -53.109  13.167  1.00  0.00     0.310 C 
HETATM   10  N   UNL     1     -41.478 -53.980  12.470  1.00  0.00     0.088 N 
HETATM   11  C   UNL     1     -42.756 -53.960  13.191  1.00  0.00     0.295 C 
HETATM   12  H   UNL     1     -41.115 -54.932  12.435  1.00  0.00     0.316 HD
HETATM   13  C   UNL     1     -43.267 -52.526  13.388  1.00  0.00     0.199 C 
HETATM   14  O   UNL     1     -42.328 -51.714  14.108  1.00  0.00    -0.374 OA
ENDBRANCH   6   8
BRANCH   1  15
HETATM   15  C   UNL     1     -41.950 -47.677  10.787  1.00  0.00     0.054 C 
HETATM   16  C   UNL     1     -40.860 -46.610  10.726  1.00  0.00     0.018 C 
HETATM   17  C   UNL     1     -42.758 -47.709   9.493  1.00  0.00     0.018 C 
ENDBRANCH   1  15
TORSDOF 2
ENDMDL
