MODEL 1
REMARK VINA RESULT:      -6.1      0.000      0.000
REMARK  4 active torsions:
REMARK  status: ('A' for Active; 'I' for Inactive)
REMARK    1  A    between atoms: C_2  and  N_3 
REMARK    2  A    between atoms: C_2  and  C_17 
REMARK       I    between atoms: N_3  and  C_4 
REMARK    3  A    between atoms: C_4  and  C_6 
REMARK    4  A    between atoms: C_6  and  C_7 
ROOT
HETATM    1  N   UNL     1     -44.978 -52.590  12.632  1.00  0.00    -0.356 N 
HETATM    2  C   UNL     1     -44.430 -53.848  12.749  1.00  0.00     0.222 C 
HETATM    3  O   UNL     1     -45.077 -54.847  13.047  1.00  0.00    -0.273 OA
HETATM    4  H   UNL     1     -44.360 -51.811  12.423  1.00  0.00     0.162 HD
ENDROOT
BRANCH   2   5
HETATM    5  C   UNL     1     -42.932 -53.898  12.506  1.00  0.00     0.149 C 
BRANCH   5   6
HETATM    6  C   UNL     1     -42.211 -53.185  13.612  1.00  0.00     0.041 A 
HETATM    7  C   UNL     1     -41.869 -53.680  14.817  1.00  0.00     0.018 A 
HETATM    8  C   UNL     1     -42.263 -55.058  15.288  1.00  0.00     0.069 C 
HETATM    9  N   UNL     1     -41.131 -52.987  15.752  1.00  0.00    -0.349 N 
HETATM   10  C   UNL     1     -40.737 -51.795  15.449  1.00  0.00     0.080 A 
ATOM     11  HN  UNL     1     -40.902 -53.402  16.654  1.00  0.00     0.167 HD
HETATM   12  C   UNL     1     -39.906 -50.993  16.410  1.00  0.00     0.089 C 
HETATM   13  N   UNL     1     -41.037 -51.185  14.269  1.00  0.00    -0.313 N 
HETATM   14  C   UNL     1     -41.794 -51.793  13.315  1.00  0.00     0.255 A 
HETATM   15  H   UNL     1     -40.738 -50.241  14.079  1.00  0.00     0.170 HD
HETATM   16  O   UNL     1     -42.106 -51.225  12.270  1.00  0.00    -0.268 OA
ENDBRANCH   5   6
ENDBRANCH   2   5
BRANCH   1  17
HETATM   17  C   UNL     1     -46.397 -52.318  12.853  1.00  0.00     0.084 C 
HETATM   18  C   UNL     1     -46.996 -51.705  11.588  1.00  0.00     0.032 C 
BRANCH  17  19
HETATM   19  C   UNL     1     -46.559 -51.401  14.079  1.00  0.00     0.012 C 
HETATM   20  C   UNL     1     -45.207 -50.854  14.601  1.00  0.00     0.011 C 
HETATM   21  C   UNL     1     -45.237 -51.215  16.094  1.00  0.00    -0.014 C 
HETATM   22  C   UNL     1     -45.064 -52.739  16.233  1.00  0.00     0.005 C 
HETATM   23  C   UNL     1     -46.715 -51.021  16.429  1.00  0.00     0.010 C 
HETATM   24  C   UNL     1     -46.438 -53.282  15.817  1.00  0.00     0.005 C 
HETATM   25  C   UNL     1     -47.183 -52.017  15.361  1.00  0.00    -0.008 C 
ENDBRANCH  17  19
ENDBRANCH   1  17
TORSDOF 4
ENDMDL
MODEL 2
REMARK VINA RESULT:      -5.8      2.016      3.254
REMARK  4 active torsions:
REMARK  status: ('A' for Active; 'I' for Inactive)
REMARK    1  A    between atoms: C_2  and  N_3 
REMARK    2  A    between atoms: C_2  and  C_17 
REMARK       I    between atoms: N_3  and  C_4 
REMARK    3  A    between atoms: C_4  and  C_6 
REMARK    4  A    between atoms: C_6  and  C_7 
ROOT
HETATM    1  N   UNL     1     -46.127 -52.693  15.408  1.00  0.00    -0.356 N 
HETATM    2  C   UNL     1     -45.937 -54.046  15.576  1.00  0.00     0.222 C 
HETATM    3  O   UNL     1     -46.059 -54.622  16.652  1.00  0.00    -0.273 OA
HETATM    4  H   UNL     1     -45.963 -52.292  14.489  1.00  0.00     0.162 HD
ENDROOT
BRANCH   2   5
HETATM    5  C   UNL     1     -45.530 -54.779  14.309  1.00  0.00     0.149 C 
BRANCH   5   6
HETATM    6  C   UNL     1     -44.280 -54.170  13.747  1.00  0.00     0.041 A 
HETATM    7  C   UNL     1     -43.013 -54.380  14.156  1.00  0.00     0.018 A 
HETATM    8  C   UNL     1     -42.660 -55.224  15.355  1.00  0.00     0.069 C 
HETATM    9  N   UNL     1     -41.906 -53.847  13.533  1.00  0.00    -0.349 N 
HETATM   10  C   UNL     1     -42.094 -53.109  12.490  1.00  0.00     0.080 A 
ATOM     11  HN  UNL     1     -40.966 -54.029  13.884  1.00  0.00     0.167 HD
HETATM   12  C   UNL     1     -40.931 -52.518  11.746  1.00  0.00     0.089 C 
HETATM   13  N   UNL     1     -43.328 -52.813  11.996  1.00  0.00    -0.313 N 
HETATM   14  C   UNL     1     -44.468 -53.272  12.582  1.00  0.00     0.255 A 
HETATM   15  H   UNL     1     -43.440 -52.208  11.197  1.00  0.00     0.170 HD
HETATM   16  O   UNL     1     -45.584 -52.966  12.165  1.00  0.00    -0.268 OA
ENDBRANCH   5   6
ENDBRANCH   2   5
BRANCH   1  17
HETATM   17  C   UNL     1     -46.495 -51.800  16.506  1.00  0.00     0.084 C 
HETATM   18  C   UNL     1     -47.953 -51.375  16.343  1.00  0.00     0.032 C 
BRANCH  17  19
HETATM   19  C   UNL     1     -45.535 -50.597  16.532  1.00  0.00     0.012 C 
HETATM   20  C   UNL     1     -44.547 -50.592  15.338  1.00  0.00     0.011 C 
HETATM   21  C   UNL     1     -43.177 -50.448  16.020  1.00  0.00    -0.014 C 
HETATM   22  C   UNL     1     -42.844 -51.772  16.733  1.00  0.00     0.005 C 
HETATM   23  C   UNL     1     -43.509 -49.522  17.188  1.00  0.00     0.010 C 
HETATM   24  C   UNL     1     -43.746 -51.733  17.974  1.00  0.00     0.005 C 
HETATM   25  C   UNL     1     -44.582 -50.463  17.750  1.00  0.00    -0.008 C 
ENDBRANCH  17  19
ENDBRANCH   1  17
TORSDOF 4
ENDMDL
MODEL 3
REMARK VINA RESULT:      -5.7      2.136      3.842
REMARK  4 active torsions:
REMARK  status: ('A' for Active; 'I' for Inactive)
REMARK    1  A    between atoms: C_2  and  N_3 
REMARK    2  A    between atoms: C_2  and  C_17 
REMARK       I    between atoms: N_3  and  C_4 
REMARK    3  A    between atoms: C_4  and  C_6 
REMARK    4  A    between atoms: C_6  and  C_7 
ROOT
HETATM    1  N   UNL     1     -46.512 -52.559  15.803  1.00  0.00    -0.356 N 
HETATM    2  C   UNL     1     -46.175 -53.891  15.888  1.00  0.00     0.222 C 
HETATM    3  O   UNL     1     -45.962 -54.473  16.947  1.00  0.00    -0.273 OA
HETATM    4  H   UNL     1     -46.629 -52.147  14.881  1.00  0.00     0.162 HD
ENDROOT
BRANCH   2   5
HETATM    5  C   UNL     1     -46.057 -54.590  14.544  1.00  0.00     0.149 C 
BRANCH   5   6
HETATM    6  C   UNL     1     -44.867 -54.064  13.798  1.00  0.00     0.041 A 
HETATM    7  C   UNL     1     -44.851 -53.089  12.868  1.00  0.00     0.018 A 
HETATM    8  C   UNL     1     -46.099 -52.420  12.349  1.00  0.00     0.069 C 
HETATM    9  N   UNL     1     -43.700 -52.601  12.287  1.00  0.00    -0.349 N 
HETATM   10  C   UNL     1     -42.572 -53.103  12.663  1.00  0.00     0.080 A 
ATOM     11  HN  UNL     1     -43.739 -51.866  11.581  1.00  0.00     0.167 HD
HETATM   12  C   UNL     1     -41.278 -52.599  12.090  1.00  0.00     0.089 C 
HETATM   13  N   UNL     1     -42.467 -54.103  13.581  1.00  0.00    -0.313 N 
HETATM   14  C   UNL     1     -43.561 -54.660  14.168  1.00  0.00     0.255 A 
HETATM   15  H   UNL     1     -41.570 -54.492  13.828  1.00  0.00     0.170 HD
HETATM   16  O   UNL     1     -43.470 -55.596  14.961  1.00  0.00    -0.268 OA
ENDBRANCH   5   6
ENDBRANCH   2   5
BRANCH   1  17
HETATM   17  C   UNL     1     -46.649 -51.698  16.976  1.00  0.00     0.084 C 
HETATM   18  C   UNL     1     -48.082 -51.171  17.050  1.00  0.00     0.032 C 
BRANCH  17  19
HETATM   19  C   UNL     1     -45.612 -50.563  16.904  1.00  0.00     0.012 C 
HETATM   20  C   UNL     1     -44.851 -50.532  15.555  1.00  0.00     0.011 C 
HETATM   21  C   UNL     1     -43.376 -50.526  15.986  1.00  0.00    -0.014 C 
HETATM   22  C   UNL     1     -43.023 -51.917  16.543  1.00  0.00     0.005 C 
HETATM   23  C   UNL     1     -43.427 -49.670  17.249  1.00  0.00     0.010 C 
HETATM   24  C   UNL     1     -43.689 -51.914  17.926  1.00  0.00     0.005 C 
HETATM   25  C   UNL     1     -44.452 -50.581  17.936  1.00  0.00    -0.008 C 
ENDBRANCH  17  19
ENDBRANCH   1  17
TORSDOF 4
ENDMDL
MODEL 4
REMARK VINA RESULT:      -5.5      2.191      3.595
REMARK  4 active torsions:
REMARK  status: ('A' for Active; 'I' for Inactive)
REMARK    1  A    between atoms: C_2  and  N_3 
REMARK    2  A    between atoms: C_2  and  C_17 
REMARK       I    between atoms: N_3  and  C_4 
REMARK    3  A    between atoms: C_4  and  C_6 
REMARK    4  A    between atoms: C_6  and  C_7 
ROOT
HETATM    1  N   UNL     1     -43.833 -54.096  15.934  1.00  0.00    -0.356 N 
HETATM    2  C   UNL     1     -42.495 -53.865  15.711  1.00  0.00     0.222 C 
HETATM    3  O   UNL     1     -41.774 -53.240  16.483  1.00  0.00    -0.273 OA
HETATM    4  H   UNL     1     -44.365 -54.587  15.221  1.00  0.00     0.162 HD
ENDROOT
BRANCH   2   5
HETATM    5  C   UNL     1     -41.977 -54.429  14.399  1.00  0.00     0.149 C 
BRANCH   5   6
HETATM    6  C   UNL     1     -41.632 -53.308  13.463  1.00  0.00     0.041 A 
HETATM    7  C   UNL     1     -42.458 -52.675  12.607  1.00  0.00     0.018 A 
HETATM    8  C   UNL     1     -43.892 -53.085  12.386  1.00  0.00     0.069 C 
HETATM    9  N   UNL     1     -42.085 -51.594  11.838  1.00  0.00    -0.349 N 
HETATM   10  C   UNL     1     -40.875 -51.158  11.952  1.00  0.00     0.080 A 
ATOM     11  HN  UNL     1     -42.744 -51.152  11.198  1.00  0.00     0.167 HD
HETATM   12  C   UNL     1     -40.410 -49.967  11.164  1.00  0.00     0.089 C 
HETATM   13  N   UNL     1     -39.948 -51.728  12.771  1.00  0.00    -0.313 N 
HETATM   14  C   UNL     1     -40.233 -52.821  13.531  1.00  0.00     0.255 A 
HETATM   15  H   UNL     1     -39.003 -51.379  12.812  1.00  0.00     0.170 HD
HETATM   16  O   UNL     1     -39.384 -53.365  14.234  1.00  0.00    -0.268 OA
ENDBRANCH   5   6
ENDBRANCH   2   5
BRANCH   1  17
HETATM   17  C   UNL     1     -44.535 -53.615  17.123  1.00  0.00     0.084 C 
HETATM   18  C   UNL     1     -44.533 -54.710  18.189  1.00  0.00     0.032 C 
BRANCH  17  19
HETATM   19  C   UNL     1     -45.960 -53.180  16.736  1.00  0.00     0.012 C 
HETATM   20  C   UNL     1     -46.259 -53.377  15.228  1.00  0.00     0.011 C 
HETATM   21  C   UNL     1     -46.775 -51.997  14.792  1.00  0.00    -0.014 C 
HETATM   22  C   UNL     1     -45.591 -51.012  14.779  1.00  0.00     0.005 C 
HETATM   23  C   UNL     1     -47.556 -51.554  16.027  1.00  0.00     0.010 C 
HETATM   24  C   UNL     1     -45.358 -50.732  16.269  1.00  0.00     0.005 C 
HETATM   25  C   UNL     1     -46.343 -51.691  16.956  1.00  0.00    -0.008 C 
ENDBRANCH  17  19
ENDBRANCH   1  17
TORSDOF 4
ENDMDL
MODEL 5
REMARK VINA RESULT:      -5.5      4.788      7.471
REMARK  4 active torsions:
REMARK  status: ('A' for Active; 'I' for Inactive)
REMARK    1  A    between atoms: C_2  and  N_3 
REMARK    2  A    between atoms: C_2  and  C_17 
REMARK       I    between atoms: N_3  and  C_4 
REMARK    3  A    between atoms: C_4  and  C_6 
REMARK    4  A    between atoms: C_6  and  C_7 
ROOT
HETATM    1  N   UNL     1     -39.251 -48.284  12.227  1.00  0.00    -0.356 N 
HETATM    2  C   UNL     1     -39.460 -47.514  13.349  1.00  0.00     0.222 C 
HETATM    3  O   UNL     1     -39.246 -47.905  14.492  1.00  0.00    -0.273 OA
HETATM    4  H   UNL     1     -39.496 -47.895  11.321  1.00  0.00     0.162 HD
ENDROOT
BRANCH   2   5
HETATM    5  C   UNL     1     -40.013 -46.130  13.059  1.00  0.00     0.149 C 
BRANCH   5   6
HETATM    6  C   UNL     1     -41.113 -46.222  12.044  1.00  0.00     0.041 A 
HETATM    7  C   UNL     1     -42.414 -46.495  12.271  1.00  0.00     0.018 A 
HETATM    8  C   UNL     1     -42.958 -46.857  13.630  1.00  0.00     0.069 C 
HETATM    9  N   UNL     1     -43.384 -46.479  11.292  1.00  0.00    -0.349 N 
HETATM   10  C   UNL     1     -43.025 -46.177  10.089  1.00  0.00     0.080 A 
ATOM     11  HN  UNL     1     -44.355 -46.700  11.511  1.00  0.00     0.167 HD
HETATM   12  C   UNL     1     -44.036 -46.115   8.979  1.00  0.00     0.089 C 
HETATM   13  N   UNL     1     -41.739 -45.901   9.738  1.00  0.00    -0.313 N 
HETATM   14  C   UNL     1     -40.722 -45.935  10.643  1.00  0.00     0.255 A 
HETATM   15  H   UNL     1     -41.490 -45.699   8.782  1.00  0.00     0.170 HD
HETATM   16  O   UNL     1     -39.554 -45.733  10.318  1.00  0.00    -0.268 OA
ENDBRANCH   5   6
ENDBRANCH   2   5
BRANCH   1  17
HETATM   17  C   UNL     1     -38.750 -49.656  12.287  1.00  0.00     0.084 C 
HETATM   18  C   UNL     1     -37.519 -49.783  11.390  1.00  0.00     0.032 C 
BRANCH  17  19
HETATM   19  C   UNL     1     -39.871 -50.630  11.882  1.00  0.00     0.012 C 
HETATM   20  C   UNL     1     -41.228 -49.919  11.650  1.00  0.00     0.011 C 
HETATM   21  C   UNL     1     -42.196 -50.719  12.535  1.00  0.00    -0.014 C 
HETATM   22  C   UNL     1     -41.891 -50.397  14.010  1.00  0.00     0.005 C 
HETATM   23  C   UNL     1     -41.649 -52.137  12.389  1.00  0.00     0.010 C 
HETATM   24  C   UNL     1     -40.601 -51.184  14.276  1.00  0.00     0.005 C 
HETATM   25  C   UNL     1     -40.252 -51.749  12.889  1.00  0.00    -0.008 C 
ENDBRANCH  17  19
ENDBRANCH   1  17
TORSDOF 4
ENDMDL
MODEL 6
REMARK VINA RESULT:      -5.5      2.512      6.426
REMARK  4 active torsions:
REMARK  status: ('A' for Active; 'I' for Inactive)
REMARK    1  A    between atoms: C_2  and  N_3 
REMARK    2  A    between atoms: C_2  and  C_17 
REMARK       I    between atoms: N_3  and  C_4 
REMARK    3  A    between atoms: C_4  and  C_6 
REMARK    4  A    between atoms: C_6  and  C_7 
ROOT
HETATM    1  N   UNL     1     -41.146 -52.005  14.867  1.00  0.00    -0.356 N 
HETATM    2  C   UNL     1     -42.059 -52.956  14.471  1.00  0.00     0.222 C 
HETATM    3  O   UNL     1     -41.807 -53.848  13.668  1.00  0.00    -0.273 OA
HETATM    4  H   UNL     1     -41.452 -51.275  15.504  1.00  0.00     0.162 HD
ENDROOT
BRANCH   2   5
HETATM    5  C   UNL     1     -43.435 -52.794  15.094  1.00  0.00     0.149 C 
BRANCH   5   6
HETATM    6  C   UNL     1     -44.461 -52.591  14.019  1.00  0.00     0.041 A 
HETATM    7  C   UNL     1     -45.343 -53.496  13.550  1.00  0.00     0.018 A 
HETATM    8  C   UNL     1     -45.364 -54.938  13.992  1.00  0.00     0.069 C 
HETATM    9  N   UNL     1     -46.315 -53.208  12.616  1.00  0.00    -0.349 N 
HETATM   10  C   UNL     1     -46.389 -51.998  12.172  1.00  0.00     0.080 A 
ATOM     11  HN  UNL     1     -46.956 -53.929  12.286  1.00  0.00     0.167 HD
HETATM   12  C   UNL     1     -47.442 -51.609  11.173  1.00  0.00     0.089 C 
HETATM   13  N   UNL     1     -45.541 -51.006  12.559  1.00  0.00    -0.313 N 
HETATM   14  C   UNL     1     -44.534 -51.225  13.448  1.00  0.00     0.255 A 
HETATM   15  H   UNL     1     -45.609 -50.079  12.168  1.00  0.00     0.170 HD
HETATM   16  O   UNL     1     -43.738 -50.341  13.762  1.00  0.00    -0.268 OA
ENDBRANCH   5   6
ENDBRANCH   2   5
BRANCH   1  17
HETATM   17  C   UNL     1     -39.773 -51.964  14.365  1.00  0.00     0.084 C 
HETATM   18  C   UNL     1     -38.897 -52.881  15.216  1.00  0.00     0.032 C 
BRANCH  17  19
HETATM   19  C   UNL     1     -39.270 -50.509  14.366  1.00  0.00     0.012 C 
HETATM   20  C   UNL     1     -40.004 -49.620  13.330  1.00  0.00     0.011 C 
HETATM   21  C   UNL     1     -38.851 -48.983  12.538  1.00  0.00    -0.014 C 
HETATM   22  C   UNL     1     -38.203 -50.069  11.658  1.00  0.00     0.005 C 
HETATM   23  C   UNL     1     -37.803 -48.778  13.629  1.00  0.00     0.010 C 
HETATM   24  C   UNL     1     -37.390 -50.891  12.666  1.00  0.00     0.005 C 
HETATM   25  C   UNL     1     -37.778 -50.263  14.014  1.00  0.00    -0.008 C 
ENDBRANCH  17  19
ENDBRANCH   1  17
TORSDOF 4
ENDMDL
MODEL 7
REMARK VINA RESULT:      -5.4      4.376      6.560
REMARK  4 active torsions:
REMARK  status: ('A' for Active; 'I' for Inactive)
REMARK    1  A    between atoms: C_2  and  N_3 
REMARK    2  A    between atoms: C_2  and  C_17 
REMARK       I    between atoms: N_3  and  C_4 
REMARK    3  A    between atoms: C_4  and  C_6 
REMARK    4  A    between atoms: C_6  and  C_7 
ROOT
HETATM    1  N   UNL     1     -41.254 -47.861  11.708  1.00  0.00    -0.356 N 
HETATM    2  C   UNL     1     -40.717 -49.126  11.629  1.00  0.00     0.222 C 
HETATM    3  O   UNL     1     -40.346 -49.643  10.580  1.00  0.00    -0.273 OA
HETATM    4  H   UNL     1     -41.575 -47.527  12.612  1.00  0.00     0.162 HD
ENDROOT
BRANCH   2   5
HETATM    5  C   UNL     1     -40.645 -49.855  12.960  1.00  0.00     0.149 C 
BRANCH   5   6
HETATM    6  C   UNL     1     -41.669 -50.950  12.997  1.00  0.00     0.041 A 
HETATM    7  C   UNL     1     -42.966 -50.844  13.348  1.00  0.00     0.018 A 
HETATM    8  C   UNL     1     -43.580 -49.569  13.870  1.00  0.00     0.069 C 
HETATM    9  N   UNL     1     -43.868 -51.884  13.276  1.00  0.00    -0.349 N 
HETATM   10  C   UNL     1     -43.447 -53.022  12.838  1.00  0.00     0.080 A 
ATOM     11  HN  UNL     1     -44.839 -51.757  13.560  1.00  0.00     0.167 HD
HETATM   12  C   UNL     1     -44.383 -54.190  12.708  1.00  0.00     0.089 C 
HETATM   13  N   UNL     1     -42.155 -53.252  12.472  1.00  0.00    -0.313 N 
HETATM   14  C   UNL     1     -41.201 -52.284  12.552  1.00  0.00     0.255 A 
HETATM   15  H   UNL     1     -41.854 -54.163  12.163  1.00  0.00     0.170 HD
HETATM   16  O   UNL     1     -40.025 -52.504  12.267  1.00  0.00    -0.268 OA
ENDBRANCH   5   6
ENDBRANCH   2   5
BRANCH   1  17
HETATM   17  C   UNL     1     -41.439 -47.001  10.539  1.00  0.00     0.084 C 
HETATM   18  C   UNL     1     -40.481 -45.814  10.630  1.00  0.00     0.032 C 
BRANCH  17  19
HETATM   19  C   UNL     1     -42.911 -46.559  10.454  1.00  0.00     0.012 C 
HETATM   20  C   UNL     1     -43.900 -47.748  10.549  1.00  0.00     0.011 C 
HETATM   21  C   UNL     1     -44.794 -47.557   9.314  1.00  0.00    -0.014 C 
HETATM   22  C   UNL     1     -43.972 -47.897   8.057  1.00  0.00     0.005 C 
HETATM   23  C   UNL     1     -44.895 -46.035   9.238  1.00  0.00     0.010 C 
HETATM   24  C   UNL     1     -43.061 -46.673   7.898  1.00  0.00     0.005 C 
HETATM   25  C   UNL     1     -43.374 -45.846   9.155  1.00  0.00    -0.008 C 
ENDBRANCH  17  19
ENDBRANCH   1  17
TORSDOF 4
ENDMDL
MODEL 8
REMARK VINA RESULT:      -5.4      3.520      5.437
REMARK  4 active torsions:
REMARK  status: ('A' for Active; 'I' for Inactive)
REMARK    1  A    between atoms: C_2  and  N_3 
REMARK    2  A    between atoms: C_2  and  C_17 
REMARK       I    between atoms: N_3  and  C_4 
REMARK    3  A    between atoms: C_4  and  C_6 
REMARK    4  A    between atoms: C_6  and  C_7 
ROOT
HETATM    1  N   UNL     1     -41.924 -50.581  13.683  1.00  0.00    -0.356 N 
HETATM    2  C   UNL     1     -41.596 -49.389  14.287  1.00  0.00     0.222 C 
HETATM    3  O   UNL     1     -41.884 -49.111  15.447  1.00  0.00    -0.273 OA
HETATM    4  H   UNL     1     -41.683 -50.711  12.705  1.00  0.00     0.162 HD
ENDROOT
BRANCH   2   5
HETATM    5  C   UNL     1     -40.862 -48.414  13.381  1.00  0.00     0.149 C 
BRANCH   5   6
HETATM    6  C   UNL     1     -41.728 -48.057  12.209  1.00  0.00     0.041 A 
HETATM    7  C   UNL     1     -42.717 -47.141  12.173  1.00  0.00     0.018 A 
HETATM    8  C   UNL     1     -43.181 -46.377  13.388  1.00  0.00     0.069 C 
HETATM    9  N   UNL     1     -43.414 -46.808  11.032  1.00  0.00    -0.349 N 
HETATM   10  C   UNL     1     -43.094 -47.402   9.932  1.00  0.00     0.080 A 
ATOM     11  HN  UNL     1     -44.160 -46.113  11.056  1.00  0.00     0.167 HD
HETATM   12  C   UNL     1     -43.794 -47.067   8.646  1.00  0.00     0.089 C 
HETATM   13  N   UNL     1     -42.125 -48.356   9.851  1.00  0.00    -0.313 N 
HETATM   14  C   UNL     1     -41.422 -48.763  10.943  1.00  0.00     0.255 A 
HETATM   15  H   UNL     1     -41.922 -48.821   8.979  1.00  0.00     0.170 HD
HETATM   16  O   UNL     1     -40.580 -49.658  10.879  1.00  0.00    -0.268 OA
ENDBRANCH   5   6
ENDBRANCH   2   5
BRANCH   1  17
HETATM   17  C   UNL     1     -42.656 -51.645  14.370  1.00  0.00     0.084 C 
HETATM   18  C   UNL     1     -41.706 -52.807  14.656  1.00  0.00     0.032 C 
BRANCH  17  19
HETATM   19  C   UNL     1     -43.862 -52.072  13.515  1.00  0.00     0.012 C 
HETATM   20  C   UNL     1     -44.800 -50.889  13.167  1.00  0.00     0.011 C 
HETATM   21  C   UNL     1     -46.181 -51.396  13.610  1.00  0.00    -0.014 C 
HETATM   22  C   UNL     1     -46.223 -51.423  15.149  1.00  0.00     0.005 C 
HETATM   23  C   UNL     1     -46.092 -52.880  13.259  1.00  0.00     0.010 C 
HETATM   24  C   UNL     1     -45.380 -52.657  15.497  1.00  0.00     0.005 C 
HETATM   25  C   UNL     1     -44.847 -53.105  14.127  1.00  0.00    -0.008 C 
ENDBRANCH  17  19
ENDBRANCH   1  17
TORSDOF 4
ENDMDL
MODEL 9
REMARK VINA RESULT:      -5.3      1.755      2.955
REMARK  4 active torsions:
REMARK  status: ('A' for Active; 'I' for Inactive)
REMARK    1  A    between atoms: C_2  and  N_3 
REMARK    2  A    between atoms: C_2  and  C_17 
REMARK       I    between atoms: N_3  and  C_4 
REMARK    3  A    between atoms: C_4  and  C_6 
REMARK    4  A    between atoms: C_6  and  C_7 
ROOT
HETATM    1  N   UNL     1     -43.143 -52.077  13.871  1.00  0.00    -0.356 N 
HETATM    2  C   UNL     1     -43.083 -53.187  13.059  1.00  0.00     0.222 C 
HETATM    3  O   UNL     1     -43.835 -53.378  12.110  1.00  0.00    -0.273 OA
HETATM    4  H   UNL     1     -42.508 -52.021  14.662  1.00  0.00     0.162 HD
ENDROOT
BRANCH   2   5
HETATM    5  C   UNL     1     -42.012 -54.190  13.456  1.00  0.00     0.149 C 
BRANCH   5   6
HETATM    6  C   UNL     1     -41.896 -54.248  14.950  1.00  0.00     0.041 A 
HETATM    7  C   UNL     1     -41.036 -53.564  15.730  1.00  0.00     0.018 A 
HETATM    8  C   UNL     1     -39.953 -52.670  15.181  1.00  0.00     0.069 C 
HETATM    9  N   UNL     1     -41.048 -53.608  17.108  1.00  0.00    -0.349 N 
HETATM   10  C   UNL     1     -41.940 -54.341  17.683  1.00  0.00     0.080 A 
ATOM     11  HN  UNL     1     -40.371 -53.077  17.656  1.00  0.00     0.167 HD
HETATM   12  C   UNL     1     -42.026 -54.414  19.181  1.00  0.00     0.089 C 
HETATM   13  N   UNL     1     -42.848 -55.090  16.998  1.00  0.00    -0.313 N 
HETATM   14  C   UNL     1     -42.873 -55.127  15.638  1.00  0.00     0.255 A 
HETATM   15  H   UNL     1     -43.512 -55.676  17.481  1.00  0.00     0.170 HD
HETATM   16  O   UNL     1     -43.661 -55.840  15.019  1.00  0.00    -0.268 OA
ENDBRANCH   5   6
ENDBRANCH   2   5
BRANCH   1  17
HETATM   17  C   UNL     1     -44.120 -51.006  13.681  1.00  0.00     0.084 C 
HETATM   18  C   UNL     1     -43.384 -49.677  13.514  1.00  0.00     0.032 C 
BRANCH  17  19
HETATM   19  C   UNL     1     -45.098 -50.987  14.869  1.00  0.00     0.012 C 
HETATM   20  C   UNL     1     -44.735 -52.023  15.961  1.00  0.00     0.011 C 
HETATM   21  C   UNL     1     -46.049 -52.796  16.159  1.00  0.00    -0.014 C 
HETATM   22  C   UNL     1     -46.289 -53.678  14.919  1.00  0.00     0.005 C 
HETATM   23  C   UNL     1     -47.088 -51.691  15.981  1.00  0.00     0.010 C 
HETATM   24  C   UNL     1     -46.751 -52.667  13.861  1.00  0.00     0.005 C 
HETATM   25  C   UNL     1     -46.587 -51.319  14.580  1.00  0.00    -0.008 C 
ENDBRANCH  17  19
ENDBRANCH   1  17
TORSDOF 4
ENDMDL
