MODEL 1
REMARK VINA RESULT:      -6.1      0.000      0.000
REMARK  6 active torsions:
REMARK  status: ('A' for Active; 'I' for Inactive)
REMARK    1  A    between atoms: C_2  and  C_3 
REMARK    2  A    between atoms: C_3  and  C_4 
REMARK    3  A    between atoms: C_4  and  C_5 
REMARK       I    between atoms: C_5  and  N_7 
REMARK    4  A    between atoms: N_7  and  C_8 
REMARK    5  A    between atoms: C_8  and  C_9 
REMARK    6  A    between atoms: C_14  and  N_16 
ROOT
HETATM    1  C   UNL     1     -41.684 -51.472  12.442  1.00  0.00    -0.036 A 
HETATM    2  C   UNL     1     -40.693 -52.424  12.643  1.00  0.00     0.026 A 
HETATM    3  C   UNL     1     -41.092 -53.725  12.879  1.00  0.00     0.090 A 
HETATM    4  N   UNL     1     -42.384 -54.130  12.905  1.00  0.00    -0.352 N 
ATOM      5  HN  UNL     1     -42.613 -55.109  13.071  1.00  0.00     0.166 HD
HETATM    6  C   UNL     1     -43.366 -53.222  12.707  1.00  0.00     0.103 A 
HETATM    7  C   UNL     1     -43.023 -51.888  12.474  1.00  0.00     0.057 A 
ENDROOT
BRANCH   1   8
HETATM    8  C   UNL     1     -41.344 -50.026  12.211  1.00  0.00     0.161 C 
BRANCH   8   9
HETATM    9  N   UNL     1     -42.189 -49.424  11.205  1.00  0.00    -0.357 N 
HETATM   10  C   UNL     1     -41.819 -48.229  10.624  1.00  0.00     0.217 C 
HETATM   11  O   UNL     1     -40.809 -47.619  10.955  1.00  0.00    -0.274 OA
HETATM   12  H   UNL     1     -43.035 -49.896  10.917  1.00  0.00     0.162 HD
BRANCH  10  13
HETATM   13  C   UNL     1     -42.792 -47.720   9.578  1.00  0.00     0.103 C 
BRANCH  13  14
HETATM   14  C   UNL     1     -44.177 -47.482  10.183  1.00  0.00     0.009 C 
BRANCH  14  15
HETATM   15  C   UNL     1     -45.183 -46.996   9.141  1.00  0.00    -0.004 C 
HETATM   16  C   UNL     1     -46.227 -48.061   8.839  1.00  0.00     0.005 C 
ENDBRANCH  14  15
ENDBRANCH  13  14
ENDBRANCH  10  13
ENDBRANCH   8   9
ENDBRANCH   1   8
BRANCH   6  17
HETATM   17  N   UNL     1     -44.679 -53.634  12.817  1.00  0.00    -0.363 N 
HETATM   18  C   UNL     1     -45.764 -52.663  12.587  1.00  0.00     0.150 C 
HETATM   19  C   UNL     1     -46.468 -52.313  13.908  1.00  0.00     0.187 C 
HETATM   20  O   UNL     1     -46.926 -53.493  14.595  1.00  0.00    -0.388 OA
HETATM   21  C   UNL     1     -45.817 -54.357  14.884  1.00  0.00     0.187 C 
HETATM   22  C   UNL     1     -45.101 -54.804  13.599  1.00  0.00     0.150 C 
ENDBRANCH   6  17
TORSDOF 6
ENDMDL
MODEL 2
REMARK VINA RESULT:      -5.9      4.561      5.969
REMARK  6 active torsions:
REMARK  status: ('A' for Active; 'I' for Inactive)
REMARK    1  A    between atoms: C_2  and  C_3 
REMARK    2  A    between atoms: C_3  and  C_4 
REMARK    3  A    between atoms: C_4  and  C_5 
REMARK       I    between atoms: C_5  and  N_7 
REMARK    4  A    between atoms: N_7  and  C_8 
REMARK    5  A    between atoms: C_8  and  C_9 
REMARK    6  A    between atoms: C_14  and  N_16 
ROOT
HETATM    1  C   UNL     1     -40.928 -46.267  11.741  1.00  0.00    -0.036 A 
HETATM    2  C   UNL     1     -40.334 -45.692  12.858  1.00  0.00     0.026 A 
HETATM    3  C   UNL     1     -39.393 -46.438  13.538  1.00  0.00     0.090 A 
HETATM    4  N   UNL     1     -38.998 -47.680  13.173  1.00  0.00    -0.352 N 
ATOM      5  HN  UNL     1     -38.287 -48.174  13.711  1.00  0.00     0.166 HD
HETATM    6  C   UNL     1     -39.558 -48.259  12.086  1.00  0.00     0.103 A 
HETATM    7  C   UNL     1     -40.525 -47.557  11.363  1.00  0.00     0.057 A 
ENDROOT
BRANCH   1   8
HETATM    8  C   UNL     1     -41.986 -45.543  10.958  1.00  0.00     0.161 C 
BRANCH   8   9
HETATM    9  N   UNL     1     -42.918 -46.454  10.332  1.00  0.00    -0.357 N 
HETATM   10  C   UNL     1     -43.740 -46.007   9.320  1.00  0.00     0.217 C 
HETATM   11  O   UNL     1     -43.751 -44.841   8.944  1.00  0.00    -0.274 OA
HETATM   12  H   UNL     1     -42.943 -47.421  10.627  1.00  0.00     0.162 HD
BRANCH  10  13
HETATM   13  C   UNL     1     -44.658 -47.073   8.749  1.00  0.00     0.103 C 
BRANCH  13  14
HETATM   14  C   UNL     1     -46.109 -46.834   9.170  1.00  0.00     0.009 C 
BRANCH  14  15
HETATM   15  C   UNL     1     -46.982 -48.067   8.946  1.00  0.00    -0.004 C 
HETATM   16  C   UNL     1     -46.431 -48.940   7.828  1.00  0.00     0.005 C 
ENDBRANCH  14  15
ENDBRANCH  13  14
ENDBRANCH  10  13
ENDBRANCH   8   9
ENDBRANCH   1   8
BRANCH   6  17
HETATM   17  N   UNL     1     -39.206 -49.556  11.773  1.00  0.00    -0.363 N 
HETATM   18  C   UNL     1     -40.108 -50.661  12.146  1.00  0.00     0.150 C 
HETATM   19  C   UNL     1     -39.505 -51.488  13.293  1.00  0.00     0.187 C 
HETATM   20  O   UNL     1     -38.178 -51.948  12.978  1.00  0.00    -0.388 OA
HETATM   21  C   UNL     1     -37.317 -50.830  12.721  1.00  0.00     0.187 C 
HETATM   22  C   UNL     1     -37.822 -49.989  11.538  1.00  0.00     0.150 C 
ENDBRANCH   6  17
TORSDOF 6
ENDMDL
MODEL 3
REMARK VINA RESULT:      -5.9      2.008      6.639
REMARK  6 active torsions:
REMARK  status: ('A' for Active; 'I' for Inactive)
REMARK    1  A    between atoms: C_2  and  C_3 
REMARK    2  A    between atoms: C_3  and  C_4 
REMARK    3  A    between atoms: C_4  and  C_5 
REMARK       I    between atoms: C_5  and  N_7 
REMARK    4  A    between atoms: N_7  and  C_8 
REMARK    5  A    between atoms: C_8  and  C_9 
REMARK    6  A    between atoms: C_14  and  N_16 
ROOT
HETATM    1  C   UNL     1     -42.096 -50.851  12.523  1.00  0.00    -0.036 A 
HETATM    2  C   UNL     1     -40.874 -51.036  11.888  1.00  0.00     0.026 A 
HETATM    3  C   UNL     1     -40.415 -50.021  11.074  1.00  0.00     0.090 A 
HETATM    4  N   UNL     1     -41.069 -48.853  10.873  1.00  0.00    -0.352 N 
ATOM      5  HN  UNL     1     -40.669 -48.136  10.268  1.00  0.00     0.166 HD
HETATM    6  C   UNL     1     -42.257 -48.647  11.484  1.00  0.00     0.103 A 
HETATM    7  C   UNL     1     -42.779 -49.644  12.313  1.00  0.00     0.057 A 
ENDROOT
BRANCH   1   8
HETATM    8  C   UNL     1     -42.690 -51.915  13.402  1.00  0.00     0.161 C 
BRANCH   8   9
HETATM    9  N   UNL     1     -44.109 -51.727  13.600  1.00  0.00    -0.357 N 
HETATM   10  C   UNL     1     -45.008 -52.536  12.939  1.00  0.00     0.217 C 
HETATM   11  O   UNL     1     -44.657 -53.399  12.143  1.00  0.00    -0.274 OA
HETATM   12  H   UNL     1     -44.432 -51.015  14.241  1.00  0.00     0.162 HD
BRANCH  10  13
HETATM   13  C   UNL     1     -46.462 -52.233  13.249  1.00  0.00     0.103 C 
BRANCH  13  14
HETATM   14  C   UNL     1     -46.588 -51.362  14.501  1.00  0.00     0.009 C 
BRANCH  14  15
HETATM   15  C   UNL     1     -47.270 -52.104  15.650  1.00  0.00    -0.004 C 
HETATM   16  C   UNL     1     -47.735 -51.141  16.732  1.00  0.00     0.005 C 
ENDBRANCH  14  15
ENDBRANCH  13  14
ENDBRANCH  10  13
ENDBRANCH   8   9
ENDBRANCH   1   8
BRANCH   6  17
HETATM   17  N   UNL     1     -42.951 -47.487  11.206  1.00  0.00    -0.363 N 
HETATM   18  C   UNL     1     -43.877 -47.453  10.060  1.00  0.00     0.150 C 
HETATM   19  C   UNL     1     -43.305 -46.585   8.927  1.00  0.00     0.187 C 
HETATM   20  O   UNL     1     -42.960 -45.266   9.391  1.00  0.00    -0.388 OA
HETATM   21  C   UNL     1     -41.983 -45.351  10.437  1.00  0.00     0.187 C 
HETATM   22  C   UNL     1     -42.510 -46.153  11.638  1.00  0.00     0.150 C 
ENDBRANCH   6  17
TORSDOF 6
ENDMDL
MODEL 4
REMARK VINA RESULT:      -5.8      2.017      2.978
REMARK  6 active torsions:
REMARK  status: ('A' for Active; 'I' for Inactive)
REMARK    1  A    between atoms: C_2  and  C_3 
REMARK    2  A    between atoms: C_3  and  C_4 
REMARK    3  A    between atoms: C_4  and  C_5 
REMARK       I    between atoms: C_5  and  N_7 
REMARK    4  A    between atoms: N_7  and  C_8 
REMARK    5  A    between atoms: C_8  and  C_9 
REMARK    6  A    between atoms: C_14  and  N_16 
ROOT
HETATM    1  C   UNL     1     -41.456 -49.220  12.022  1.00  0.00    -0.036 A 
HETATM    2  C   UNL     1     -40.080 -49.065  11.902  1.00  0.00     0.026 A 
HETATM    3  C   UNL     1     -39.300 -50.202  11.963  1.00  0.00     0.090 A 
HETATM    4  N   UNL     1     -39.792 -51.454  12.111  1.00  0.00    -0.352 N 
ATOM      5  HN  UNL     1     -39.162 -52.256  12.136  1.00  0.00     0.166 HD
HETATM    6  C   UNL     1     -41.127 -51.631  12.225  1.00  0.00     0.103 A 
HETATM    7  C   UNL     1     -41.968 -50.516  12.181  1.00  0.00     0.057 A 
ENDROOT
BRANCH   1   8
HETATM    8  C   UNL     1     -42.381 -48.036  12.001  1.00  0.00     0.161 C 
BRANCH   8   9
HETATM    9  N   UNL     1     -43.323 -48.102  10.906  1.00  0.00    -0.357 N 
HETATM   10  C   UNL     1     -43.208 -47.226   9.848  1.00  0.00     0.217 C 
HETATM   11  O   UNL     1     -42.354 -46.348   9.808  1.00  0.00    -0.274 OA
HETATM   12  H   UNL     1     -44.047 -48.807  10.914  1.00  0.00     0.162 HD
BRANCH  10  13
HETATM   13  C   UNL     1     -44.255 -47.417   8.767  1.00  0.00     0.103 C 
BRANCH  13  14
HETATM   14  C   UNL     1     -45.370 -46.375   8.890  1.00  0.00     0.009 C 
BRANCH  14  15
HETATM   15  C   UNL     1     -46.737 -47.020   9.108  1.00  0.00    -0.004 C 
HETATM   16  C   UNL     1     -46.690 -48.518   8.846  1.00  0.00     0.005 C 
ENDBRANCH  14  15
ENDBRANCH  13  14
ENDBRANCH  10  13
ENDBRANCH   8   9
ENDBRANCH   1   8
BRANCH   6  17
HETATM   17  N   UNL     1     -41.609 -52.904  12.457  1.00  0.00    -0.363 N 
HETATM   18  C   UNL     1     -43.052 -53.103  12.680  1.00  0.00     0.150 C 
HETATM   19  C   UNL     1     -43.329 -53.457  14.150  1.00  0.00     0.187 C 
HETATM   20  O   UNL     1     -42.548 -54.588  14.581  1.00  0.00    -0.388 OA
HETATM   21  C   UNL     1     -41.149 -54.304  14.436  1.00  0.00     0.187 C 
HETATM   22  C   UNL     1     -40.783 -54.003  12.974  1.00  0.00     0.150 C 
ENDBRANCH   6  17
TORSDOF 6
ENDMDL
MODEL 5
REMARK VINA RESULT:      -5.7      1.433      2.024
REMARK  6 active torsions:
REMARK  status: ('A' for Active; 'I' for Inactive)
REMARK    1  A    between atoms: C_2  and  C_3 
REMARK    2  A    between atoms: C_3  and  C_4 
REMARK    3  A    between atoms: C_4  and  C_5 
REMARK       I    between atoms: C_5  and  N_7 
REMARK    4  A    between atoms: N_7  and  C_8 
REMARK    5  A    between atoms: C_8  and  C_9 
REMARK    6  A    between atoms: C_14  and  N_16 
ROOT
HETATM    1  C   UNL     1     -42.617 -49.697  12.596  1.00  0.00    -0.036 A 
HETATM    2  C   UNL     1     -41.383 -50.332  12.647  1.00  0.00     0.026 A 
HETATM    3  C   UNL     1     -41.342 -51.614  13.157  1.00  0.00     0.090 A 
HETATM    4  N   UNL     1     -42.429 -52.294  13.589  1.00  0.00    -0.352 N 
ATOM      5  HN  UNL     1     -42.335 -53.245  13.944  1.00  0.00     0.166 HD
HETATM    6  C   UNL     1     -43.643 -51.699  13.545  1.00  0.00     0.103 A 
HETATM    7  C   UNL     1     -43.745 -50.398  13.048  1.00  0.00     0.057 A 
ENDROOT
BRANCH   1   8
HETATM    8  C   UNL     1     -42.752 -48.289  12.087  1.00  0.00     0.161 C 
BRANCH   8   9
HETATM    9  N   UNL     1     -43.615 -48.210  10.930  1.00  0.00    -0.357 N 
HETATM   10  C   UNL     1     -43.276 -47.389   9.876  1.00  0.00     0.217 C 
HETATM   11  O   UNL     1     -42.280 -46.677   9.888  1.00  0.00    -0.274 OA
HETATM   12  H   UNL     1     -44.452 -48.777  10.893  1.00  0.00     0.162 HD
BRANCH  10  13
HETATM   13  C   UNL     1     -44.266 -47.415   8.726  1.00  0.00     0.103 C 
BRANCH  13  14
HETATM   14  C   UNL     1     -45.406 -46.421   8.958  1.00  0.00     0.009 C 
BRANCH  14  15
HETATM   15  C   UNL     1     -46.751 -47.122   9.138  1.00  0.00    -0.004 C 
HETATM   16  C   UNL     1     -46.676 -48.581   8.712  1.00  0.00     0.005 C 
ENDBRANCH  14  15
ENDBRANCH  13  14
ENDBRANCH  10  13
ENDBRANCH   8   9
ENDBRANCH   1   8
BRANCH   6  17
HETATM   17  N   UNL     1     -44.730 -52.374  14.064  1.00  0.00    -0.363 N 
HETATM   18  C   UNL     1     -44.791 -52.644  15.512  1.00  0.00     0.150 C 
HETATM   19  C   UNL     1     -44.579 -54.140  15.793  1.00  0.00     0.187 C 
HETATM   20  O   UNL     1     -45.498 -54.958  15.045  1.00  0.00    -0.388 OA
HETATM   21  C   UNL     1     -45.328 -54.730  13.639  1.00  0.00     0.187 C 
HETATM   22  C   UNL     1     -45.590 -53.261  13.270  1.00  0.00     0.150 C 
ENDBRANCH   6  17
TORSDOF 6
ENDMDL
MODEL 6
REMARK VINA RESULT:      -5.6      2.089      6.396
REMARK  6 active torsions:
REMARK  status: ('A' for Active; 'I' for Inactive)
REMARK    1  A    between atoms: C_2  and  C_3 
REMARK    2  A    between atoms: C_3  and  C_4 
REMARK    3  A    between atoms: C_4  and  C_5 
REMARK       I    between atoms: C_5  and  N_7 
REMARK    4  A    between atoms: N_7  and  C_8 
REMARK    5  A    between atoms: C_8  and  C_9 
REMARK    6  A    between atoms: C_14  and  N_16 
ROOT
HETATM    1  C   UNL     1     -40.616 -50.914  11.978  1.00  0.00    -0.036 A 
HETATM    2  C   UNL     1     -39.272 -50.671  12.236  1.00  0.00     0.026 A 
HETATM    3  C   UNL     1     -38.866 -49.356  12.332  1.00  0.00     0.090 A 
HETATM    4  N   UNL     1     -39.696 -48.293  12.212  1.00  0.00    -0.352 N 
ATOM      5  HN  UNL     1     -39.336 -47.344  12.306  1.00  0.00     0.166 HD
HETATM    6  C   UNL     1     -41.009 -48.504  11.965  1.00  0.00     0.103 A 
HETATM    7  C   UNL     1     -41.477 -49.815  11.848  1.00  0.00     0.057 A 
ENDROOT
BRANCH   1   8
HETATM    8  C   UNL     1     -41.142 -52.313  11.824  1.00  0.00     0.161 C 
BRANCH   8   9
HETATM    9  N   UNL     1     -42.587 -52.356  11.848  1.00  0.00    -0.357 N 
HETATM   10  C   UNL     1     -43.233 -53.261  12.663  1.00  0.00     0.217 C 
HETATM   11  O   UNL     1     -42.631 -54.076  13.352  1.00  0.00    -0.274 OA
HETATM   12  H   UNL     1     -43.113 -51.705  11.282  1.00  0.00     0.162 HD
BRANCH  10  13
HETATM   13  C   UNL     1     -44.747 -53.186  12.595  1.00  0.00     0.103 C 
BRANCH  13  14
HETATM   14  C   UNL     1     -45.315 -52.416  13.789  1.00  0.00     0.009 C 
BRANCH  14  15
HETATM   15  C   UNL     1     -46.492 -51.527  13.391  1.00  0.00    -0.004 C 
HETATM   16  C   UNL     1     -46.869 -51.729  11.931  1.00  0.00     0.005 C 
ENDBRANCH  14  15
ENDBRANCH  13  14
ENDBRANCH  10  13
ENDBRANCH   8   9
ENDBRANCH   1   8
BRANCH   6  17
HETATM   17  N   UNL     1     -41.828 -47.412  11.764  1.00  0.00    -0.363 N 
HETATM   18  C   UNL     1     -43.042 -47.558  10.941  1.00  0.00     0.150 C 
HETATM   19  C   UNL     1     -42.876 -46.835   9.595  1.00  0.00     0.187 C 
HETATM   20  O   UNL     1     -42.501 -45.456   9.776  1.00  0.00    -0.388 OA
HETATM   21  C   UNL     1     -41.262 -45.372  10.495  1.00  0.00     0.187 C 
HETATM   22  C   UNL     1     -41.372 -46.020  11.884  1.00  0.00     0.150 C 
ENDBRANCH   6  17
TORSDOF 6
ENDMDL
MODEL 7
REMARK VINA RESULT:      -5.6      2.170      7.088
REMARK  6 active torsions:
REMARK  status: ('A' for Active; 'I' for Inactive)
REMARK    1  A    between atoms: C_2  and  C_3 
REMARK    2  A    between atoms: C_3  and  C_4 
REMARK    3  A    between atoms: C_4  and  C_5 
REMARK       I    between atoms: C_5  and  N_7 
REMARK    4  A    between atoms: N_7  and  C_8 
REMARK    5  A    between atoms: C_8  and  C_9 
REMARK    6  A    between atoms: C_14  and  N_16 
ROOT
HETATM    1  C   UNL     1     -42.710 -49.639  12.478  1.00  0.00    -0.036 A 
HETATM    2  C   UNL     1     -41.603 -50.457  12.291  1.00  0.00     0.026 A 
HETATM    3  C   UNL     1     -40.723 -50.124  11.281  1.00  0.00     0.090 A 
HETATM    4  N   UNL     1     -40.861 -49.041  10.480  1.00  0.00    -0.352 N 
ATOM      5  HN  UNL     1     -40.168 -48.842   9.759  1.00  0.00     0.166 HD
HETATM    6  C   UNL     1     -41.928 -48.227  10.646  1.00  0.00     0.103 A 
HETATM    7  C   UNL     1     -42.859 -48.520  11.646  1.00  0.00     0.057 A 
ENDROOT
BRANCH   1   8
HETATM    8  C   UNL     1     -43.738 -49.942  13.531  1.00  0.00     0.161 C 
BRANCH   8   9
HETATM    9  N   UNL     1     -44.590 -51.049  13.156  1.00  0.00    -0.357 N 
HETATM   10  C   UNL     1     -45.581 -51.474  14.015  1.00  0.00     0.217 C 
HETATM   11  O   UNL     1     -45.754 -50.976  15.121  1.00  0.00    -0.274 OA
HETATM   12  H   UNL     1     -44.465 -51.489  12.255  1.00  0.00     0.162 HD
BRANCH  10  13
HETATM   13  C   UNL     1     -46.404 -52.635  13.488  1.00  0.00     0.103 C 
BRANCH  13  14
HETATM   14  C   UNL     1     -46.351 -53.827  14.446  1.00  0.00     0.009 C 
BRANCH  14  15
HETATM   15  C   UNL     1     -45.526 -54.982  13.880  1.00  0.00    -0.004 C 
HETATM   16  C   UNL     1     -44.106 -54.967  14.428  1.00  0.00     0.005 C 
ENDBRANCH  14  15
ENDBRANCH  13  14
ENDBRANCH  10  13
ENDBRANCH   8   9
ENDBRANCH   1   8
BRANCH   6  17
HETATM   17  N   UNL     1     -42.099 -47.174   9.769  1.00  0.00    -0.363 N 
HETATM   18  C   UNL     1     -41.657 -45.825  10.164  1.00  0.00     0.150 C 
HETATM   19  C   UNL     1     -42.867 -44.916  10.436  1.00  0.00     0.187 C 
HETATM   20  O   UNL     1     -43.774 -44.890   9.318  1.00  0.00    -0.388 OA
HETATM   21  C   UNL     1     -44.252 -46.214   9.040  1.00  0.00     0.187 C 
HETATM   22  C   UNL     1     -43.098 -47.168   8.692  1.00  0.00     0.150 C 
ENDBRANCH   6  17
TORSDOF 6
ENDMDL
MODEL 8
REMARK VINA RESULT:      -5.5      2.962      6.334
REMARK  6 active torsions:
REMARK  status: ('A' for Active; 'I' for Inactive)
REMARK    1  A    between atoms: C_2  and  C_3 
REMARK    2  A    between atoms: C_3  and  C_4 
REMARK    3  A    between atoms: C_4  and  C_5 
REMARK       I    between atoms: C_5  and  N_7 
REMARK    4  A    between atoms: N_7  and  C_8 
REMARK    5  A    between atoms: C_8  and  C_9 
REMARK    6  A    between atoms: C_14  and  N_16 
ROOT
HETATM    1  C   UNL     1     -41.503 -53.905  14.208  1.00  0.00    -0.036 A 
HETATM    2  C   UNL     1     -40.483 -54.752  14.625  1.00  0.00     0.026 A 
HETATM    3  C   UNL     1     -39.209 -54.227  14.712  1.00  0.00     0.090 A 
HETATM    4  N   UNL     1     -38.898 -52.939  14.436  1.00  0.00    -0.352 N 
ATOM      5  HN  UNL     1     -37.938 -52.609  14.531  1.00  0.00     0.166 HD
HETATM    6  C   UNL     1     -39.874 -52.095  14.032  1.00  0.00     0.103 A 
HETATM    7  C   UNL     1     -41.182 -52.571  13.917  1.00  0.00     0.057 A 
ENDROOT
BRANCH   1   8
HETATM    8  C   UNL     1     -42.914 -54.397  14.054  1.00  0.00     0.161 C 
BRANCH   8   9
HETATM    9  N   UNL     1     -43.777 -53.396  13.468  1.00  0.00    -0.357 N 
HETATM   10  C   UNL     1     -45.069 -53.725  13.117  1.00  0.00     0.217 C 
HETATM   11  O   UNL     1     -45.520 -54.857  13.242  1.00  0.00    -0.274 OA
HETATM   12  H   UNL     1     -43.432 -52.455  13.341  1.00  0.00     0.162 HD
BRANCH  10  13
HETATM   13  C   UNL     1     -45.863 -52.575  12.525  1.00  0.00     0.103 C 
BRANCH  13  14
HETATM   14  C   UNL     1     -45.819 -51.348  13.438  1.00  0.00     0.009 C 
BRANCH  14  15
HETATM   15  C   UNL     1     -46.791 -51.469  14.611  1.00  0.00    -0.004 C 
HETATM   16  C   UNL     1     -46.110 -51.136  15.931  1.00  0.00     0.005 C 
ENDBRANCH  14  15
ENDBRANCH  13  14
ENDBRANCH  10  13
ENDBRANCH   8   9
ENDBRANCH   1   8
BRANCH   6  17
HETATM   17  N   UNL     1     -39.528 -50.806  13.677  1.00  0.00    -0.363 N 
HETATM   18  C   UNL     1     -40.462 -50.003  12.868  1.00  0.00     0.150 C 
HETATM   19  C   UNL     1     -39.926 -49.824  11.439  1.00  0.00     0.187 C 
HETATM   20  O   UNL     1     -38.593 -49.280  11.435  1.00  0.00    -0.388 OA
HETATM   21  C   UNL     1     -37.704 -50.150  12.150  1.00  0.00     0.187 C 
HETATM   22  C   UNL     1     -38.141 -50.325  13.612  1.00  0.00     0.150 C 
ENDBRANCH   6  17
TORSDOF 6
ENDMDL
MODEL 9
REMARK VINA RESULT:      -5.5      2.755      6.404
REMARK  6 active torsions:
REMARK  status: ('A' for Active; 'I' for Inactive)
REMARK    1  A    between atoms: C_2  and  C_3 
REMARK    2  A    between atoms: C_3  and  C_4 
REMARK    3  A    between atoms: C_4  and  C_5 
REMARK       I    between atoms: C_5  and  N_7 
REMARK    4  A    between atoms: N_7  and  C_8 
REMARK    5  A    between atoms: C_8  and  C_9 
REMARK    6  A    between atoms: C_14  and  N_16 
ROOT
HETATM    1  C   UNL     1     -42.780 -53.555  13.022  1.00  0.00    -0.036 A 
HETATM    2  C   UNL     1     -42.186 -54.205  14.096  1.00  0.00     0.026 A 
HETATM    3  C   UNL     1     -40.927 -53.789  14.480  1.00  0.00     0.090 A 
HETATM    4  N   UNL     1     -40.248 -52.777  13.890  1.00  0.00    -0.352 N 
ATOM      5  HN  UNL     1     -39.325 -52.508  14.229  1.00  0.00     0.166 HD
HETATM    6  C   UNL     1     -40.808 -52.126  12.846  1.00  0.00     0.103 A 
HETATM    7  C   UNL     1     -42.077 -52.509  12.405  1.00  0.00     0.057 A 
ENDROOT
BRANCH   1   8
HETATM    8  C   UNL     1     -44.135 -53.962  12.514  1.00  0.00     0.161 C 
BRANCH   8   9
HETATM    9  N   UNL     1     -45.201 -53.241  13.172  1.00  0.00    -0.357 N 
HETATM   10  C   UNL     1     -45.922 -53.850  14.177  1.00  0.00     0.217 C 
HETATM   11  O   UNL     1     -45.726 -55.009  14.521  1.00  0.00    -0.274 OA
HETATM   12  H   UNL     1     -45.396 -52.286  12.904  1.00  0.00     0.162 HD
BRANCH  10  13
HETATM   13  C   UNL     1     -47.001 -52.973  14.785  1.00  0.00     0.103 C 
BRANCH  13  14
HETATM   14  C   UNL     1     -46.634 -51.492  14.676  1.00  0.00     0.009 C 
BRANCH  14  15
HETATM   15  C   UNL     1     -45.836 -51.008  15.886  1.00  0.00    -0.004 C 
HETATM   16  C   UNL     1     -44.422 -50.606  15.492  1.00  0.00     0.005 C 
ENDBRANCH  14  15
ENDBRANCH  13  14
ENDBRANCH  10  13
ENDBRANCH   8   9
ENDBRANCH   1   8
BRANCH   6  17
HETATM   17  N   UNL     1     -40.072 -51.151  12.202  1.00  0.00    -0.363 N 
HETATM   18  C   UNL     1     -38.704 -50.853  12.664  1.00  0.00     0.150 C 
HETATM   19  C   UNL     1     -38.653 -49.484  13.360  1.00  0.00     0.187 C 
HETATM   20  O   UNL     1     -39.186 -48.441  12.522  1.00  0.00    -0.388 OA
HETATM   21  C   UNL     1     -40.550 -48.730  12.184  1.00  0.00     0.187 C 
HETATM   22  C   UNL     1     -40.673 -50.060  11.424  1.00  0.00     0.150 C 
ENDBRANCH   6  17
TORSDOF 6
ENDMDL
