MODEL 1
REMARK VINA RESULT:      -6.9      0.000      0.000
REMARK  3 active torsions:
REMARK  status: ('A' for Active; 'I' for Inactive)
REMARK    1  A    between atoms: N_1  and  C_9 
REMARK    2  A    between atoms: N_2  and  C_12 
REMARK       I    between atoms: N_6  and  C_8 
REMARK    3  A    between atoms: C_8  and  C_9 
ROOT
HETATM    1  N   UNL     1     -40.959 -51.032  12.741  1.00  0.00    -0.255 N 
HETATM    2  N   UNL     1     -43.224 -51.524  13.274  1.00  0.00    -0.279 N 
HETATM    3  C   UNL     1     -42.298 -50.614  12.728  1.00  0.00     0.334 C 
HETATM    4  C   UNL     1     -40.543 -52.320  13.011  1.00  0.00     0.292 C 
HETATM    5  C   UNL     1     -41.594 -53.234  13.484  1.00  0.00     0.200 C 
HETATM    6  C   UNL     1     -42.842 -52.802  13.637  1.00  0.00     0.146 C 
HETATM    7  O   UNL     1     -42.646 -49.500  12.338  1.00  0.00    -0.246 OA
HETATM    8  O   UNL     1     -39.378 -52.699  12.927  1.00  0.00    -0.264 OA
HETATM    9  F   UNL     1     -41.213 -54.468  13.859  1.00  0.00    -0.199 F 
ENDROOT
BRANCH   1  10
HETATM   10  C   UNL     1     -39.891 -50.031  12.570  1.00  0.00     0.240 C 
BRANCH  10  11
HETATM   11  C   UNL     1     -39.661 -49.145  13.788  1.00  0.00     0.243 C 
HETATM   12  N   UNL     1     -39.692 -47.754  13.746  1.00  0.00    -0.311 N 
HETATM   13  C   UNL     1     -39.239 -47.014  14.956  1.00  0.00     0.093 C 
HETATM   14  C   UNL     1     -39.877 -46.795  12.710  1.00  0.00     0.044 C 
HETATM   15  C   UNL     1     -39.063 -45.536  14.575  1.00  0.00     0.066 C 
HETATM   16  C   UNL     1     -40.230 -47.156  16.115  1.00  0.00     0.033 C 
HETATM   17  C   UNL     1     -39.404 -45.550  13.123  1.00  0.00    -0.029 C 
HETATM   18  C   UNL     1     -39.329 -44.446  12.281  1.00  0.00     0.009 C 
HETATM   19  C   UNL     1     -39.837 -44.568  10.995  1.00  0.00     0.001 C 
HETATM   20  C   UNL     1     -40.430 -45.779  10.606  1.00  0.00     0.002 C 
HETATM   21  C   UNL     1     -40.443 -46.904  11.451  1.00  0.00     0.030 C 
HETATM   22  O   UNL     1     -39.363 -49.715  14.851  1.00  0.00    -0.271 OA
ENDBRANCH  10  11
ENDBRANCH   1  10
BRANCH   2  23
HETATM   23  C   UNL     1     -44.548 -50.998  13.657  1.00  0.00     0.232 C 
HETATM   24  O   UNL     1     -44.745 -51.060  15.081  1.00  0.00    -0.366 OA
HETATM   25  C   UNL     1     -46.145 -51.153  15.356  1.00  0.00     0.170 C 
HETATM   26  C   UNL     1     -46.858 -51.505  14.070  1.00  0.00     0.031 C 
HETATM   27  C   UNL     1     -45.758 -51.693  13.048  1.00  0.00     0.056 C 
ENDBRANCH   2  23
TORSDOF 3
ENDMDL
MODEL 2
REMARK VINA RESULT:      -6.7      2.915      6.973
REMARK  3 active torsions:
REMARK  status: ('A' for Active; 'I' for Inactive)
REMARK    1  A    between atoms: N_1  and  C_9 
REMARK    2  A    between atoms: N_2  and  C_12 
REMARK       I    between atoms: N_6  and  C_8 
REMARK    3  A    between atoms: C_8  and  C_9 
ROOT
HETATM    1  N   UNL     1     -39.008 -50.902  13.228  1.00  0.00    -0.255 N 
HETATM    2  N   UNL     1     -39.846 -48.924  12.210  1.00  0.00    -0.279 N 
HETATM    3  C   UNL     1     -39.964 -49.876  13.240  1.00  0.00     0.334 C 
HETATM    4  C   UNL     1     -37.864 -50.897  12.457  1.00  0.00     0.292 C 
HETATM    5  C   UNL     1     -37.775 -49.810  11.469  1.00  0.00     0.200 C 
HETATM    6  C   UNL     1     -38.758 -48.923  11.356  1.00  0.00     0.146 C 
HETATM    7  O   UNL     1     -40.893 -49.837  14.046  1.00  0.00    -0.246 OA
HETATM    8  O   UNL     1     -36.986 -51.753  12.522  1.00  0.00    -0.264 OA
HETATM    9  F   UNL     1     -36.728 -49.829  10.626  1.00  0.00    -0.199 F 
ENDROOT
BRANCH   1  10
HETATM   10  C   UNL     1     -39.266 -52.135  13.994  1.00  0.00     0.240 C 
BRANCH  10  11
HETATM   11  C   UNL     1     -40.459 -52.942  13.499  1.00  0.00     0.243 C 
HETATM   12  N   UNL     1     -41.468 -53.415  14.333  1.00  0.00    -0.311 N 
HETATM   13  C   UNL     1     -42.455 -54.368  13.755  1.00  0.00     0.093 C 
HETATM   14  C   UNL     1     -41.701 -53.368  15.737  1.00  0.00     0.044 C 
HETATM   15  C   UNL     1     -43.259 -54.985  14.910  1.00  0.00     0.066 C 
HETATM   16  C   UNL     1     -43.391 -53.683  12.755  1.00  0.00     0.033 C 
HETATM   17  C   UNL     1     -42.627 -54.345  16.100  1.00  0.00    -0.029 C 
HETATM   18  C   UNL     1     -42.956 -54.629  17.421  1.00  0.00     0.009 C 
HETATM   19  C   UNL     1     -42.405 -53.837  18.417  1.00  0.00     0.001 C 
HETATM   20  C   UNL     1     -41.567 -52.769  18.058  1.00  0.00     0.002 C 
HETATM   21  C   UNL     1     -41.198 -52.534  16.721  1.00  0.00     0.030 C 
HETATM   22  O   UNL     1     -40.478 -53.240  12.293  1.00  0.00    -0.271 OA
ENDBRANCH  10  11
ENDBRANCH   1  10
BRANCH   2  23
HETATM   23  C   UNL     1     -41.024 -48.079  11.926  1.00  0.00     0.232 C 
HETATM   24  O   UNL     1     -41.938 -48.738  11.031  1.00  0.00    -0.366 OA
HETATM   25  C   UNL     1     -42.680 -47.750  10.311  1.00  0.00     0.170 C 
HETATM   26  C   UNL     1     -41.993 -46.416  10.492  1.00  0.00     0.031 C 
HETATM   27  C   UNL     1     -40.750 -46.719  11.300  1.00  0.00     0.056 C 
ENDBRANCH   2  23
TORSDOF 3
ENDMDL
MODEL 3
REMARK VINA RESULT:      -6.7      1.698      2.289
REMARK  3 active torsions:
REMARK  status: ('A' for Active; 'I' for Inactive)
REMARK    1  A    between atoms: N_1  and  C_9 
REMARK    2  A    between atoms: N_2  and  C_12 
REMARK       I    between atoms: N_6  and  C_8 
REMARK    3  A    between atoms: C_8  and  C_9 
ROOT
HETATM    1  N   UNL     1     -42.606 -52.557  13.046  1.00  0.00    -0.255 N 
HETATM    2  N   UNL     1     -44.460 -52.399  14.526  1.00  0.00    -0.279 N 
HETATM    3  C   UNL     1     -43.715 -51.817  13.483  1.00  0.00     0.334 C 
HETATM    4  C   UNL     1     -42.359 -53.872  13.384  1.00  0.00     0.292 C 
HETATM    5  C   UNL     1     -43.248 -54.435  14.413  1.00  0.00     0.200 C 
HETATM    6  C   UNL     1     -44.202 -53.687  14.959  1.00  0.00     0.146 C 
HETATM    7  O   UNL     1     -43.986 -50.700  13.046  1.00  0.00    -0.246 OA
HETATM    8  O   UNL     1     -41.439 -54.541  12.922  1.00  0.00    -0.264 OA
HETATM    9  F   UNL     1     -42.976 -55.678  14.848  1.00  0.00    -0.199 F 
ENDROOT
BRANCH   1  10
HETATM   10  C   UNL     1     -41.555 -51.884  12.262  1.00  0.00     0.240 C 
BRANCH  10  11
HETATM   11  C   UNL     1     -40.551 -51.104  13.101  1.00  0.00     0.243 C 
HETATM   12  N   UNL     1     -40.331 -49.736  12.965  1.00  0.00    -0.311 N 
HETATM   13  C   UNL     1     -39.175 -49.144  13.693  1.00  0.00     0.093 C 
HETATM   14  C   UNL     1     -40.847 -48.728  12.103  1.00  0.00     0.044 C 
HETATM   15  C   UNL     1     -38.946 -47.724  13.153  1.00  0.00     0.066 C 
HETATM   16  C   UNL     1     -39.408 -49.114  15.206  1.00  0.00     0.033 C 
HETATM   17  C   UNL     1     -39.999 -47.621  12.101  1.00  0.00    -0.029 C 
HETATM   18  C   UNL     1     -40.170 -46.531  11.256  1.00  0.00     0.009 C 
HETATM   19  C   UNL     1     -41.293 -46.505  10.441  1.00  0.00     0.001 C 
HETATM   20  C   UNL     1     -42.221 -47.554  10.522  1.00  0.00     0.002 C 
HETATM   21  C   UNL     1     -42.002 -48.677  11.340  1.00  0.00     0.030 C 
HETATM   22  O   UNL     1     -39.852 -51.756  13.895  1.00  0.00    -0.271 OA
ENDBRANCH  10  11
ENDBRANCH   1  10
BRANCH   2  23
HETATM   23  C   UNL     1     -45.364 -51.517  15.291  1.00  0.00     0.232 C 
HETATM   24  O   UNL     1     -45.253 -51.753  16.706  1.00  0.00    -0.366 OA
HETATM   25  C   UNL     1     -46.485 -51.395  17.337  1.00  0.00     0.170 C 
HETATM   26  C   UNL     1     -47.541 -51.245  16.265  1.00  0.00     0.031 C 
HETATM   27  C   UNL     1     -46.849 -51.627  14.975  1.00  0.00     0.056 C 
ENDBRANCH   2  23
TORSDOF 3
ENDMDL
MODEL 4
REMARK VINA RESULT:      -6.7      3.114      6.731
REMARK  3 active torsions:
REMARK  status: ('A' for Active; 'I' for Inactive)
REMARK    1  A    between atoms: N_1  and  C_9 
REMARK    2  A    between atoms: N_2  and  C_12 
REMARK       I    between atoms: N_6  and  C_8 
REMARK    3  A    between atoms: C_8  and  C_9 
ROOT
HETATM    1  N   UNL     1     -40.221 -51.527  12.738  1.00  0.00    -0.255 N 
HETATM    2  N   UNL     1     -41.065 -49.435  11.985  1.00  0.00    -0.279 N 
HETATM    3  C   UNL     1     -41.333 -50.691  12.562  1.00  0.00     0.334 C 
HETATM    4  C   UNL     1     -38.908 -51.118  12.620  1.00  0.00     0.292 C 
HETATM    5  C   UNL     1     -38.717 -49.755  12.101  1.00  0.00     0.200 C 
HETATM    6  C   UNL     1     -39.767 -49.008  11.770  1.00  0.00     0.146 C 
HETATM    7  O   UNL     1     -42.483 -51.046  12.820  1.00  0.00    -0.246 OA
HETATM    8  O   UNL     1     -37.940 -51.831  12.869  1.00  0.00    -0.264 OA
HETATM    9  F   UNL     1     -37.454 -49.354  11.871  1.00  0.00    -0.199 F 
ENDROOT
BRANCH   1  10
HETATM   10  C   UNL     1     -40.431 -52.969  12.954  1.00  0.00     0.240 C 
BRANCH  10  11
HETATM   11  C   UNL     1     -40.588 -53.368  14.416  1.00  0.00     0.243 C 
HETATM   12  N   UNL     1     -41.778 -53.840  14.962  1.00  0.00    -0.311 N 
HETATM   13  C   UNL     1     -41.851 -53.987  16.442  1.00  0.00     0.093 C 
HETATM   14  C   UNL     1     -43.091 -54.050  14.452  1.00  0.00     0.044 C 
HETATM   15  C   UNL     1     -43.322 -54.209  16.828  1.00  0.00     0.066 C 
HETATM   16  C   UNL     1     -40.982 -55.143  16.944  1.00  0.00     0.033 C 
HETATM   17  C   UNL     1     -44.003 -54.136  15.504  1.00  0.00    -0.029 C 
HETATM   18  C   UNL     1     -45.378 -54.208  15.315  1.00  0.00     0.009 C 
HETATM   19  C   UNL     1     -45.857 -54.294  14.015  1.00  0.00     0.001 C 
HETATM   20  C   UNL     1     -44.943 -54.335  12.951  1.00  0.00     0.002 C 
HETATM   21  C   UNL     1     -43.558 -54.200  13.157  1.00  0.00     0.030 C 
HETATM   22  O   UNL     1     -39.608 -53.189  15.158  1.00  0.00    -0.271 OA
ENDBRANCH  10  11
ENDBRANCH   1  10
BRANCH   2  23
HETATM   23  C   UNL     1     -42.204 -48.694  11.410  1.00  0.00     0.232 C 
HETATM   24  O   UNL     1     -41.900 -48.209  10.089  1.00  0.00    -0.366 OA
HETATM   25  C   UNL     1     -42.687 -47.044   9.827  1.00  0.00     0.170 C 
HETATM   26  C   UNL     1     -43.267 -46.559  11.136  1.00  0.00     0.031 C 
HETATM   27  C   UNL     1     -42.687 -47.478  12.189  1.00  0.00     0.056 C 
ENDBRANCH   2  23
TORSDOF 3
ENDMDL
MODEL 5
REMARK VINA RESULT:      -6.5      2.665      6.851
REMARK  3 active torsions:
REMARK  status: ('A' for Active; 'I' for Inactive)
REMARK    1  A    between atoms: N_1  and  C_9 
REMARK    2  A    between atoms: N_2  and  C_12 
REMARK       I    between atoms: N_6  and  C_8 
REMARK    3  A    between atoms: C_8  and  C_9 
ROOT
HETATM    1  N   UNL     1     -41.673 -50.357  13.280  1.00  0.00    -0.255 N 
HETATM    2  N   UNL     1     -41.869 -48.417  11.919  1.00  0.00    -0.279 N 
HETATM    3  C   UNL     1     -42.340 -49.149  13.025  1.00  0.00     0.334 C 
HETATM    4  C   UNL     1     -40.479 -50.730  12.696  1.00  0.00     0.292 C 
HETATM    5  C   UNL     1     -40.008 -49.855  11.612  1.00  0.00     0.200 C 
HETATM    6  C   UNL     1     -40.721 -48.794  11.246  1.00  0.00     0.146 C 
HETATM    7  O   UNL     1     -43.320 -48.778  13.670  1.00  0.00    -0.246 OA
HETATM    8  O   UNL     1     -39.855 -51.744  12.995  1.00  0.00    -0.264 OA
HETATM    9  F   UNL     1     -38.905 -50.240  10.945  1.00  0.00    -0.199 F 
ENDROOT
BRANCH   1  10
HETATM   10  C   UNL     1     -42.316 -51.367  14.138  1.00  0.00     0.240 C 
BRANCH  10  11
HETATM   11  C   UNL     1     -43.588 -51.968  13.552  1.00  0.00     0.243 C 
HETATM   12  N   UNL     1     -44.842 -51.847  14.147  1.00  0.00    -0.311 N 
HETATM   13  C   UNL     1     -45.955 -52.661  13.586  1.00  0.00     0.093 C 
HETATM   14  C   UNL     1     -45.318 -51.251  15.348  1.00  0.00     0.044 C 
HETATM   15  C   UNL     1     -47.131 -52.607  14.574  1.00  0.00     0.066 C 
HETATM   16  C   UNL     1     -46.389 -52.160  12.205  1.00  0.00     0.033 C 
HETATM   17  C   UNL     1     -46.571 -51.771  15.674  1.00  0.00    -0.029 C 
HETATM   18  C   UNL     1     -47.231 -51.478  16.862  1.00  0.00     0.009 C 
HETATM   19  C   UNL     1     -46.655 -50.552  17.719  1.00  0.00     0.001 C 
HETATM   20  C   UNL     1     -45.455 -49.927  17.346  1.00  0.00     0.002 C 
HETATM   21  C   UNL     1     -44.771 -50.279  16.169  1.00  0.00     0.030 C 
HETATM   22  O   UNL     1     -43.466 -52.658  12.526  1.00  0.00    -0.271 OA
ENDBRANCH  10  11
ENDBRANCH   1  10
BRANCH   2  23
HETATM   23  C   UNL     1     -42.759 -47.379  11.362  1.00  0.00     0.232 C 
HETATM   24  O   UNL     1     -43.501 -47.875  10.234  1.00  0.00    -0.366 OA
HETATM   25  C   UNL     1     -43.837 -46.780   9.377  1.00  0.00     0.170 C 
HETATM   26  C   UNL     1     -42.998 -45.589   9.781  1.00  0.00     0.031 C 
HETATM   27  C   UNL     1     -42.091 -46.099  10.879  1.00  0.00     0.056 C 
ENDBRANCH   2  23
TORSDOF 3
ENDMDL
MODEL 6
REMARK VINA RESULT:      -6.5      2.760      4.228
REMARK  3 active torsions:
REMARK  status: ('A' for Active; 'I' for Inactive)
REMARK    1  A    between atoms: N_1  and  C_9 
REMARK    2  A    between atoms: N_2  and  C_12 
REMARK       I    between atoms: N_6  and  C_8 
REMARK    3  A    between atoms: C_8  and  C_9 
ROOT
HETATM    1  N   UNL     1     -44.382 -52.638  13.589  1.00  0.00    -0.255 N 
HETATM    2  N   UNL     1     -45.930 -52.549  15.392  1.00  0.00    -0.279 N 
HETATM    3  C   UNL     1     -45.008 -51.864  14.577  1.00  0.00     0.334 C 
HETATM    4  C   UNL     1     -44.780 -53.907  13.219  1.00  0.00     0.292 C 
HETATM    5  C   UNL     1     -45.818 -54.513  14.068  1.00  0.00     0.200 C 
HETATM    6  C   UNL     1     -46.303 -53.851  15.114  1.00  0.00     0.146 C 
HETATM    7  O   UNL     1     -44.727 -50.683  14.779  1.00  0.00    -0.246 OA
HETATM    8  O   UNL     1     -44.287 -54.539  12.290  1.00  0.00    -0.264 OA
HETATM    9  F   UNL     1     -46.158 -55.788  13.807  1.00  0.00    -0.199 F 
ENDROOT
BRANCH   1  10
HETATM   10  C   UNL     1     -43.146 -52.140  12.960  1.00  0.00     0.240 C 
BRANCH  10  11
HETATM   11  C   UNL     1     -41.875 -52.458  13.738  1.00  0.00     0.243 C 
HETATM   12  N   UNL     1     -40.752 -51.634  13.748  1.00  0.00    -0.311 N 
HETATM   13  C   UNL     1     -39.509 -52.166  14.371  1.00  0.00     0.093 C 
HETATM   14  C   UNL     1     -40.412 -50.410  13.106  1.00  0.00     0.044 C 
HETATM   15  C   UNL     1     -38.347 -51.236  13.991  1.00  0.00     0.066 C 
HETATM   16  C   UNL     1     -39.635 -52.275  15.893  1.00  0.00     0.033 C 
HETATM   17  C   UNL     1     -39.029 -50.231  13.124  1.00  0.00    -0.029 C 
HETATM   18  C   UNL     1     -38.387 -49.193  12.459  1.00  0.00     0.009 C 
HETATM   19  C   UNL     1     -39.169 -48.239  11.825  1.00  0.00     0.001 C 
HETATM   20  C   UNL     1     -40.567 -48.338  11.904  1.00  0.00     0.002 C 
HETATM   21  C   UNL     1     -41.199 -49.427  12.531  1.00  0.00     0.030 C 
HETATM   22  O   UNL     1     -41.835 -53.548  14.332  1.00  0.00    -0.271 OA
ENDBRANCH  10  11
ENDBRANCH   1  10
BRANCH   2  23
HETATM   23  C   UNL     1     -46.304 -51.918  16.673  1.00  0.00     0.232 C 
HETATM   24  O   UNL     1     -46.359 -52.886  17.737  1.00  0.00    -0.366 OA
HETATM   25  C   UNL     1     -47.274 -52.429  18.737  1.00  0.00     0.170 C 
HETATM   26  C   UNL     1     -48.093 -51.301  18.150  1.00  0.00     0.031 C 
HETATM   27  C   UNL     1     -47.644 -51.197  16.709  1.00  0.00     0.056 C 
ENDBRANCH   2  23
TORSDOF 3
ENDMDL
MODEL 7
REMARK VINA RESULT:      -6.4      2.173      6.666
REMARK  3 active torsions:
REMARK  status: ('A' for Active; 'I' for Inactive)
REMARK    1  A    between atoms: N_1  and  C_9 
REMARK    2  A    between atoms: N_2  and  C_12 
REMARK       I    between atoms: N_6  and  C_8 
REMARK    3  A    between atoms: C_8  and  C_9 
ROOT
HETATM    1  N   UNL     1     -40.414 -50.243  12.928  1.00  0.00    -0.255 N 
HETATM    2  N   UNL     1     -39.858 -48.001  12.364  1.00  0.00    -0.279 N 
HETATM    3  C   UNL     1     -40.767 -48.886  12.974  1.00  0.00     0.334 C 
HETATM    4  C   UNL     1     -39.171 -50.717  12.562  1.00  0.00     0.292 C 
HETATM    5  C   UNL     1     -38.246 -49.707  12.024  1.00  0.00     0.200 C 
HETATM    6  C   UNL     1     -38.629 -48.439  11.907  1.00  0.00     0.146 C 
HETATM    7  O   UNL     1     -41.831 -48.488  13.447  1.00  0.00    -0.246 OA
HETATM    8  O   UNL     1     -38.842 -51.898  12.616  1.00  0.00    -0.264 OA
HETATM    9  F   UNL     1     -37.062 -50.143  11.558  1.00  0.00    -0.199 F 
ENDROOT
BRANCH   1  10
HETATM   10  C   UNL     1     -41.449 -51.264  13.171  1.00  0.00     0.240 C 
BRANCH  10  11
HETATM   11  C   UNL     1     -41.682 -51.582  14.643  1.00  0.00     0.243 C 
HETATM   12  N   UNL     1     -42.944 -51.771  15.199  1.00  0.00    -0.311 N 
HETATM   13  C   UNL     1     -43.041 -51.861  16.682  1.00  0.00     0.093 C 
HETATM   14  C   UNL     1     -44.273 -51.707  14.693  1.00  0.00     0.044 C 
HETATM   15  C   UNL     1     -44.523 -51.751  17.073  1.00  0.00     0.066 C 
HETATM   16  C   UNL     1     -42.439 -53.164  17.216  1.00  0.00     0.033 C 
HETATM   17  C   UNL     1     -45.177 -51.566  15.745  1.00  0.00    -0.029 C 
HETATM   18  C   UNL     1     -46.537 -51.345  15.557  1.00  0.00     0.009 C 
HETATM   19  C   UNL     1     -47.028 -51.359  14.259  1.00  0.00     0.001 C 
HETATM   20  C   UNL     1     -46.149 -51.623  13.197  1.00  0.00     0.002 C 
HETATM   21  C   UNL     1     -44.767 -51.785  13.402  1.00  0.00     0.030 C 
HETATM   22  O   UNL     1     -40.683 -51.600  15.381  1.00  0.00    -0.271 OA
ENDBRANCH  10  11
ENDBRANCH   1  10
BRANCH   2  23
HETATM   23  C   UNL     1     -40.348 -46.651  12.023  1.00  0.00     0.232 C 
HETATM   24  O   UNL     1     -40.115 -46.344  10.637  1.00  0.00    -0.366 OA
HETATM   25  C   UNL     1     -40.005 -44.926  10.485  1.00  0.00     0.170 C 
HETATM   26  C   UNL     1     -39.820 -44.315  11.856  1.00  0.00     0.031 C 
HETATM   27  C   UNL     1     -39.745 -45.491  12.804  1.00  0.00     0.056 C 
ENDBRANCH   2  23
TORSDOF 3
ENDMDL
MODEL 8
REMARK VINA RESULT:      -6.3      2.812      4.742
REMARK  3 active torsions:
REMARK  status: ('A' for Active; 'I' for Inactive)
REMARK    1  A    between atoms: N_1  and  C_9 
REMARK    2  A    between atoms: N_2  and  C_12 
REMARK       I    between atoms: N_6  and  C_8 
REMARK    3  A    between atoms: C_8  and  C_9 
ROOT
HETATM    1  N   UNL     1     -42.951 -52.994  13.504  1.00  0.00    -0.255 N 
HETATM    2  N   UNL     1     -42.500 -54.336  15.414  1.00  0.00    -0.279 N 
HETATM    3  C   UNL     1     -42.204 -53.173  14.678  1.00  0.00     0.334 C 
HETATM    4  C   UNL     1     -44.078 -53.719  13.174  1.00  0.00     0.292 C 
HETATM    5  C   UNL     1     -44.370 -54.862  14.053  1.00  0.00     0.200 C 
HETATM    6  C   UNL     1     -43.571 -55.144  15.077  1.00  0.00     0.146 C 
HETATM    7  O   UNL     1     -41.297 -52.414  15.015  1.00  0.00    -0.246 OA
HETATM    8  O   UNL     1     -44.780 -53.492  12.193  1.00  0.00    -0.264 OA
HETATM    9  F   UNL     1     -45.398 -55.658  13.707  1.00  0.00    -0.199 F 
ENDROOT
BRANCH   1  10
HETATM   10  C   UNL     1     -42.466 -52.053  12.479  1.00  0.00     0.240 C 
BRANCH  10  11
HETATM   11  C   UNL     1     -42.726 -50.587  12.801  1.00  0.00     0.243 C 
HETATM   12  N   UNL     1     -41.719 -49.630  12.902  1.00  0.00    -0.311 N 
HETATM   13  C   UNL     1     -42.089 -48.289  13.432  1.00  0.00     0.093 C 
HETATM   14  C   UNL     1     -40.300 -49.667  12.803  1.00  0.00     0.044 C 
HETATM   15  C   UNL     1     -40.794 -47.525  13.747  1.00  0.00     0.066 C 
HETATM   16  C   UNL     1     -42.951 -47.501  12.441  1.00  0.00     0.033 C 
HETATM   17  C   UNL     1     -39.750 -48.531  13.396  1.00  0.00    -0.029 C 
HETATM   18  C   UNL     1     -38.383 -48.348  13.570  1.00  0.00     0.009 C 
HETATM   19  C   UNL     1     -37.524 -49.301  13.044  1.00  0.00     0.001 C 
HETATM   20  C   UNL     1     -38.058 -50.388  12.336  1.00  0.00     0.002 C 
HETATM   21  C   UNL     1     -39.446 -50.588  12.220  1.00  0.00     0.030 C 
HETATM   22  O   UNL     1     -43.899 -50.263  13.050  1.00  0.00    -0.271 OA
ENDBRANCH  10  11
ENDBRANCH   1  10
BRANCH   2  23
HETATM   23  C   UNL     1     -41.502 -54.786  16.405  1.00  0.00     0.232 C 
HETATM   24  O   UNL     1     -40.326 -55.309  15.762  1.00  0.00    -0.366 OA
HETATM   25  C   UNL     1     -39.700 -56.256  16.633  1.00  0.00     0.170 C 
HETATM   26  C   UNL     1     -40.681 -56.613  17.727  1.00  0.00     0.031 C 
HETATM   27  C   UNL     1     -41.950 -55.868  17.377  1.00  0.00     0.056 C 
ENDBRANCH   2  23
TORSDOF 3
ENDMDL
MODEL 9
REMARK VINA RESULT:      -6.1      2.230      7.376
REMARK  3 active torsions:
REMARK  status: ('A' for Active; 'I' for Inactive)
REMARK    1  A    between atoms: N_1  and  C_9 
REMARK    2  A    between atoms: N_2  and  C_12 
REMARK       I    between atoms: N_6  and  C_8 
REMARK    3  A    between atoms: C_8  and  C_9 
ROOT
HETATM    1  N   UNL     1     -41.087 -49.320  13.950  1.00  0.00    -0.255 N 
HETATM    2  N   UNL     1     -40.227 -47.557  12.606  1.00  0.00    -0.279 N 
HETATM    3  C   UNL     1     -41.079 -47.949  13.656  1.00  0.00     0.334 C 
HETATM    4  C   UNL     1     -40.168 -50.230  13.467  1.00  0.00     0.292 C 
HETATM    5  C   UNL     1     -39.250 -49.712  12.441  1.00  0.00     0.200 C 
HETATM    6  C   UNL     1     -39.342 -48.451  12.030  1.00  0.00     0.146 C 
HETATM    7  O   UNL     1     -41.816 -47.141  14.219  1.00  0.00    -0.246 OA
HETATM    8  O   UNL     1     -40.126 -51.410  13.803  1.00  0.00    -0.264 OA
HETATM    9  F   UNL     1     -38.409 -50.591  11.867  1.00  0.00    -0.199 F 
ENDROOT
BRANCH   1  10
HETATM   10  C   UNL     1     -42.201 -49.882  14.734  1.00  0.00     0.240 C 
BRANCH  10  11
HETATM   11  C   UNL     1     -43.298 -50.523  13.893  1.00  0.00     0.243 C 
HETATM   12  N   UNL     1     -43.703 -51.848  14.035  1.00  0.00    -0.311 N 
HETATM   13  C   UNL     1     -44.629 -52.403  13.009  1.00  0.00     0.093 C 
HETATM   14  C   UNL     1     -43.282 -52.932  14.855  1.00  0.00     0.044 C 
HETATM   15  C   UNL     1     -44.681 -53.928  13.188  1.00  0.00     0.066 C 
HETATM   16  C   UNL     1     -46.032 -51.799  13.120  1.00  0.00     0.033 C 
HETATM   17  C   UNL     1     -43.725 -54.139  14.314  1.00  0.00    -0.029 C 
HETATM   18  C   UNL     1     -43.359 -55.381  14.819  1.00  0.00     0.009 C 
HETATM   19  C   UNL     1     -42.592 -55.416  15.975  1.00  0.00     0.001 C 
HETATM   20  C   UNL     1     -42.242 -54.210  16.601  1.00  0.00     0.002 C 
HETATM   21  C   UNL     1     -42.571 -52.961  16.043  1.00  0.00     0.030 C 
HETATM   22  O   UNL     1     -43.797 -49.828  12.991  1.00  0.00    -0.271 OA
ENDBRANCH  10  11
ENDBRANCH   1  10
BRANCH   2  23
HETATM   23  C   UNL     1     -40.469 -46.238  11.990  1.00  0.00     0.232 C 
HETATM   24  O   UNL     1     -40.106 -46.236  10.597  1.00  0.00    -0.366 OA
HETATM   25  C   UNL     1     -39.757 -44.905  10.208  1.00  0.00     0.170 C 
HETATM   26  C   UNL     1     -39.558 -44.081  11.460  1.00  0.00     0.031 C 
HETATM   27  C   UNL     1     -39.733 -45.055  12.604  1.00  0.00     0.056 C 
ENDBRANCH   2  23
TORSDOF 3
ENDMDL
