MODEL 1
REMARK VINA RESULT:      -5.3      0.000      0.000
REMARK  3 active torsions:
REMARK  status: ('A' for Active; 'I' for Inactive)
REMARK    1  A    between atoms: C_4  and  C_5 
REMARK    2  A    between atoms: C_5  and  C_6 
REMARK    3  A    between atoms: C_6  and  N_7 
REMARK       I    between atoms: N_7  and  C_8 
REMARK       I    between atoms: C_8  and  N_10 
ROOT
HETATM    1  N   UNL     1     -43.974 -52.804  12.286  1.00  0.00    -0.343 N 
HETATM    2  C   UNL     1     -43.077 -53.532  13.026  1.00  0.00     0.318 C 
HETATM    3  O   UNL     1     -43.436 -54.290  13.923  1.00  0.00    -0.247 OA
HETATM    4  N   UNL     1     -41.756 -53.342  12.683  1.00  0.00    -0.330 N 
HETATM    5  C   UNL     1     -40.718 -54.144  13.334  1.00  0.00     0.153 C 
HETATM    6  C   UNL     1     -39.690 -53.248  14.034  1.00  0.00     0.187 C 
HETATM    7  O   UNL     1     -39.149 -52.271  13.127  1.00  0.00    -0.388 OA
HETATM    8  C   UNL     1     -40.196 -51.437  12.607  1.00  0.00     0.187 C 
HETATM    9  C   UNL     1     -41.226 -52.266  11.834  1.00  0.00     0.153 C 
HETATM   10  H   UNL     1     -43.715 -52.693  11.319  1.00  0.00     0.164 HD
ENDROOT
BRANCH   1  11
HETATM   11  C   UNL     1     -45.397 -52.912  12.562  1.00  0.00     0.129 C 
BRANCH  11  12
HETATM   12  C   UNL     1     -46.028 -51.581  12.975  1.00  0.00     0.061 C 
BRANCH  12  13
HETATM   13  C   UNL     1     -46.075 -51.364  14.451  1.00  0.00    -0.023 A 
HETATM   14  C   UNL     1     -47.142 -51.525  15.311  1.00  0.00     0.118 A 
HETATM   15  N   UNL     1     -46.686 -51.207  16.556  1.00  0.00    -0.308 N 
HETATM   16  C   UNL     1     -47.436 -51.229  17.789  1.00  0.00     0.177 C 
HETATM   17  N   UNL     1     -45.394 -50.839  16.572  1.00  0.00    -0.310 N 
HETATM   18  C   UNL     1     -45.026 -50.926  15.291  1.00  0.00     0.115 A 
ATOM     19  HN  UNL     1     -44.827 -50.559  17.373  1.00  0.00     0.186 HD
ENDBRANCH  12  13
ENDBRANCH  11  12
ENDBRANCH   1  11
TORSDOF 3
ENDMDL
MODEL 2
REMARK VINA RESULT:      -5.2      4.291      5.776
REMARK  3 active torsions:
REMARK  status: ('A' for Active; 'I' for Inactive)
REMARK    1  A    between atoms: C_4  and  C_5 
REMARK    2  A    between atoms: C_5  and  C_6 
REMARK    3  A    between atoms: C_6  and  N_7 
REMARK       I    between atoms: N_7  and  C_8 
REMARK       I    between atoms: C_8  and  N_10 
ROOT
HETATM    1  N   UNL     1     -42.123 -49.745  11.735  1.00  0.00    -0.343 N 
HETATM    2  C   UNL     1     -42.612 -50.294  12.892  1.00  0.00     0.318 C 
HETATM    3  O   UNL     1     -42.978 -49.601  13.838  1.00  0.00    -0.247 OA
HETATM    4  N   UNL     1     -42.657 -51.671  12.905  1.00  0.00    -0.330 N 
HETATM    5  C   UNL     1     -43.259 -52.364  14.047  1.00  0.00     0.153 C 
HETATM    6  C   UNL     1     -42.257 -53.327  14.694  1.00  0.00     0.187 C 
HETATM    7  O   UNL     1     -41.705 -54.233  13.723  1.00  0.00    -0.388 OA
HETATM    8  C   UNL     1     -41.027 -53.505  12.687  1.00  0.00     0.187 C 
HETATM    9  C   UNL     1     -41.992 -52.569  11.952  1.00  0.00     0.153 C 
HETATM   10  H   UNL     1     -42.378 -50.248  10.901  1.00  0.00     0.164 HD
ENDROOT
BRANCH   1  11
HETATM   11  C   UNL     1     -42.016 -48.301  11.607  1.00  0.00     0.129 C 
BRANCH  11  12
HETATM   12  C   UNL     1     -41.940 -47.834  10.151  1.00  0.00     0.061 C 
BRANCH  12  13
HETATM   13  C   UNL     1     -43.269 -47.710   9.483  1.00  0.00    -0.023 A 
HETATM   14  C   UNL     1     -44.494 -47.429  10.051  1.00  0.00     0.118 A 
HETATM   15  N   UNL     1     -45.400 -47.422   9.031  1.00  0.00    -0.308 N 
HETATM   16  C   UNL     1     -46.817 -47.169   9.128  1.00  0.00     0.177 C 
HETATM   17  N   UNL     1     -44.854 -47.687   7.832  1.00  0.00    -0.310 N 
HETATM   18  C   UNL     1     -43.561 -47.871   8.109  1.00  0.00     0.115 A 
ATOM     19  HN  UNL     1     -45.318 -47.737   6.925  1.00  0.00     0.186 HD
ENDBRANCH  12  13
ENDBRANCH  11  12
ENDBRANCH   1  11
TORSDOF 3
ENDMDL
MODEL 3
REMARK VINA RESULT:      -5.2      4.281      5.827
REMARK  3 active torsions:
REMARK  status: ('A' for Active; 'I' for Inactive)
REMARK    1  A    between atoms: C_4  and  C_5 
REMARK    2  A    between atoms: C_5  and  C_6 
REMARK    3  A    between atoms: C_6  and  N_7 
REMARK       I    between atoms: N_7  and  C_8 
REMARK       I    between atoms: C_8  and  N_10 
ROOT
HETATM    1  N   UNL     1     -42.075 -49.827  11.633  1.00  0.00    -0.343 N 
HETATM    2  C   UNL     1     -41.371 -48.661  11.788  1.00  0.00     0.318 C 
HETATM    3  O   UNL     1     -40.663 -48.453  12.771  1.00  0.00    -0.247 OA
HETATM    4  N   UNL     1     -41.522 -47.753  10.763  1.00  0.00    -0.330 N 
HETATM    5  C   UNL     1     -40.736 -46.516  10.770  1.00  0.00     0.153 C 
HETATM    6  C   UNL     1     -41.648 -45.285  10.738  1.00  0.00     0.187 C 
HETATM    7  O   UNL     1     -42.570 -45.350   9.636  1.00  0.00    -0.388 OA
HETATM    8  C   UNL     1     -43.395 -46.521   9.741  1.00  0.00     0.187 C 
HETATM    9  C   UNL     1     -42.545 -47.796   9.710  1.00  0.00     0.153 C 
HETATM   10  H   UNL     1     -42.134 -50.147  10.680  1.00  0.00     0.164 HD
ENDROOT
BRANCH   1  11
HETATM   11  C   UNL     1     -42.004 -50.858  12.655  1.00  0.00     0.129 C 
BRANCH  11  12
HETATM   12  C   UNL     1     -41.974 -52.274  12.074  1.00  0.00     0.061 C 
BRANCH  12  13
HETATM   13  C   UNL     1     -42.776 -53.265  12.850  1.00  0.00    -0.023 A 
HETATM   14  C   UNL     1     -44.110 -53.590  12.711  1.00  0.00     0.118 A 
HETATM   15  N   UNL     1     -44.373 -54.548  13.645  1.00  0.00    -0.308 N 
HETATM   16  C   UNL     1     -45.634 -55.207  13.883  1.00  0.00     0.177 C 
HETATM   17  N   UNL     1     -43.305 -54.869  14.394  1.00  0.00    -0.310 N 
HETATM   18  C   UNL     1     -42.337 -54.082  13.916  1.00  0.00     0.115 A 
ATOM     19  HN  UNL     1     -43.246 -55.552  15.150  1.00  0.00     0.186 HD
ENDBRANCH  12  13
ENDBRANCH  11  12
ENDBRANCH   1  11
TORSDOF 3
ENDMDL
MODEL 4
REMARK VINA RESULT:      -5.0      3.523      5.740
REMARK  3 active torsions:
REMARK  status: ('A' for Active; 'I' for Inactive)
REMARK    1  A    between atoms: C_4  and  C_5 
REMARK    2  A    between atoms: C_5  and  C_6 
REMARK    3  A    between atoms: C_6  and  N_7 
REMARK       I    between atoms: N_7  and  C_8 
REMARK       I    between atoms: C_8  and  N_10 
ROOT
HETATM    1  N   UNL     1     -43.111 -50.802  14.111  1.00  0.00    -0.343 N 
HETATM    2  C   UNL     1     -44.100 -51.573  13.556  1.00  0.00     0.318 C 
HETATM    3  O   UNL     1     -45.116 -51.080  13.073  1.00  0.00    -0.247 OA
HETATM    4  N   UNL     1     -43.861 -52.930  13.586  1.00  0.00    -0.330 N 
HETATM    5  C   UNL     1     -44.799 -53.844  12.929  1.00  0.00     0.153 C 
HETATM    6  C   UNL     1     -45.354 -54.869  13.923  1.00  0.00     0.187 C 
HETATM    7  O   UNL     1     -44.292 -55.560  14.606  1.00  0.00    -0.388 OA
HETATM    8  C   UNL     1     -43.472 -54.628  15.328  1.00  0.00     0.187 C 
HETATM    9  C   UNL     1     -42.829 -53.611  14.379  1.00  0.00     0.153 C 
HETATM   10  H   UNL     1     -42.180 -51.154  13.956  1.00  0.00     0.164 HD
ENDROOT
BRANCH   1  11
HETATM   11  C   UNL     1     -43.254 -49.356  14.148  1.00  0.00     0.129 C 
BRANCH  11  12
HETATM   12  C   UNL     1     -42.064 -48.622  13.525  1.00  0.00     0.061 C 
BRANCH  12  13
HETATM   13  C   UNL     1     -42.178 -48.423  12.051  1.00  0.00    -0.023 A 
HETATM   14  C   UNL     1     -43.221 -47.873  11.335  1.00  0.00     0.118 A 
HETATM   15  N   UNL     1     -42.851 -47.910  10.022  1.00  0.00    -0.308 N 
HETATM   16  C   UNL     1     -43.612 -47.440   8.890  1.00  0.00     0.177 C 
HETATM   17  N   UNL     1     -41.639 -48.456   9.827  1.00  0.00    -0.310 N 
HETATM   18  C   UNL     1     -41.235 -48.775  11.058  1.00  0.00     0.115 A 
ATOM     19  HN  UNL     1     -41.144 -48.593   8.945  1.00  0.00     0.186 HD
ENDBRANCH  12  13
ENDBRANCH  11  12
ENDBRANCH   1  11
TORSDOF 3
ENDMDL
MODEL 5
REMARK VINA RESULT:      -5.0      2.515      3.870
REMARK  3 active torsions:
REMARK  status: ('A' for Active; 'I' for Inactive)
REMARK    1  A    between atoms: C_4  and  C_5 
REMARK    2  A    between atoms: C_5  and  C_6 
REMARK    3  A    between atoms: C_6  and  N_7 
REMARK       I    between atoms: N_7  and  C_8 
REMARK       I    between atoms: C_8  and  N_10 
ROOT
HETATM    1  N   UNL     1     -40.676 -53.198  13.532  1.00  0.00    -0.343 N 
HETATM    2  C   UNL     1     -40.677 -52.194  12.598  1.00  0.00     0.318 C 
HETATM    3  O   UNL     1     -41.374 -52.246  11.587  1.00  0.00    -0.247 OA
HETATM    4  N   UNL     1     -39.842 -51.136  12.885  1.00  0.00    -0.330 N 
HETATM    5  C   UNL     1     -39.839 -49.960  12.011  1.00  0.00     0.153 C 
HETATM    6  C   UNL     1     -38.438 -49.696  11.449  1.00  0.00     0.187 C 
HETATM    7  O   UNL     1     -37.463 -49.607  12.503  1.00  0.00    -0.388 OA
HETATM    8  C   UNL     1     -37.426 -50.830  13.256  1.00  0.00     0.187 C 
HETATM    9  C   UNL     1     -38.784 -51.118  13.904  1.00  0.00     0.153 C 
HETATM   10  H   UNL     1     -40.578 -52.876  14.481  1.00  0.00     0.164 HD
ENDROOT
BRANCH   1  11
HETATM   11  C   UNL     1     -41.510 -54.372  13.335  1.00  0.00     0.129 C 
BRANCH  11  12
HETATM   12  C   UNL     1     -42.591 -54.524  14.408  1.00  0.00     0.061 C 
BRANCH  12  13
HETATM   13  C   UNL     1     -43.933 -54.019  13.993  1.00  0.00    -0.023 A 
HETATM   14  C   UNL     1     -44.290 -52.742  13.608  1.00  0.00     0.118 A 
HETATM   15  N   UNL     1     -45.624 -52.784  13.324  1.00  0.00    -0.308 N 
HETATM   16  C   UNL     1     -46.451 -51.692  12.873  1.00  0.00     0.177 C 
HETATM   17  N   UNL     1     -46.168 -53.999  13.505  1.00  0.00    -0.310 N 
HETATM   18  C   UNL     1     -45.142 -54.746  13.919  1.00  0.00     0.115 A 
ATOM     19  HN  UNL     1     -47.137 -54.284  13.359  1.00  0.00     0.186 HD
ENDBRANCH  12  13
ENDBRANCH  11  12
ENDBRANCH   1  11
TORSDOF 3
ENDMDL
MODEL 6
REMARK VINA RESULT:      -4.9      5.042      6.533
REMARK  3 active torsions:
REMARK  status: ('A' for Active; 'I' for Inactive)
REMARK    1  A    between atoms: C_4  and  C_5 
REMARK    2  A    between atoms: C_5  and  C_6 
REMARK    3  A    between atoms: C_6  and  N_7 
REMARK       I    between atoms: N_7  and  C_8 
REMARK       I    between atoms: C_8  and  N_10 
ROOT
HETATM    1  N   UNL     1     -41.592 -47.723  12.374  1.00  0.00    -0.343 N 
HETATM    2  C   UNL     1     -40.274 -47.967  12.661  1.00  0.00     0.318 C 
HETATM    3  O   UNL     1     -39.401 -47.122  12.479  1.00  0.00    -0.247 OA
HETATM    4  N   UNL     1     -40.014 -49.223  13.164  1.00  0.00    -0.330 N 
HETATM    5  C   UNL     1     -38.658 -49.559  13.604  1.00  0.00     0.153 C 
HETATM    6  C   UNL     1     -38.121 -50.778  12.846  1.00  0.00     0.187 C 
HETATM    7  O   UNL     1     -39.027 -51.891  12.940  1.00  0.00    -0.388 OA
HETATM    8  C   UNL     1     -40.307 -51.543  12.388  1.00  0.00     0.187 C 
HETATM    9  C   UNL     1     -40.932 -50.370  13.149  1.00  0.00     0.153 C 
HETATM   10  H   UNL     1     -42.239 -48.153  13.015  1.00  0.00     0.164 HD
ENDROOT
BRANCH   1  11
HETATM   11  C   UNL     1     -41.989 -46.436  11.828  1.00  0.00     0.129 C 
BRANCH  11  12
HETATM   12  C   UNL     1     -42.085 -46.439  10.300  1.00  0.00     0.061 C 
BRANCH  12  13
HETATM   13  C   UNL     1     -43.483 -46.490   9.780  1.00  0.00    -0.023 A 
HETATM   14  C   UNL     1     -44.388 -47.530   9.846  1.00  0.00     0.118 A 
HETATM   15  N   UNL     1     -45.525 -47.091   9.233  1.00  0.00    -0.308 N 
HETATM   16  C   UNL     1     -46.756 -47.823   9.058  1.00  0.00     0.177 C 
HETATM   17  N   UNL     1     -45.426 -45.837   8.761  1.00  0.00    -0.310 N 
HETATM   18  C   UNL     1     -44.182 -45.476   9.086  1.00  0.00     0.115 A 
ATOM     19  HN  UNL     1     -46.134 -45.289   8.271  1.00  0.00     0.186 HD
ENDBRANCH  12  13
ENDBRANCH  11  12
ENDBRANCH   1  11
TORSDOF 3
ENDMDL
MODEL 7
REMARK VINA RESULT:      -4.8      2.954      5.651
REMARK  3 active torsions:
REMARK  status: ('A' for Active; 'I' for Inactive)
REMARK    1  A    between atoms: C_4  and  C_5 
REMARK    2  A    between atoms: C_5  and  C_6 
REMARK    3  A    between atoms: C_6  and  N_7 
REMARK       I    between atoms: N_7  and  C_8 
REMARK       I    between atoms: C_8  and  N_10 
ROOT
HETATM    1  N   UNL     1     -41.763 -53.676  13.693  1.00  0.00    -0.343 N 
HETATM    2  C   UNL     1     -43.059 -53.920  13.318  1.00  0.00     0.318 C 
HETATM    3  O   UNL     1     -43.484 -53.615  12.207  1.00  0.00    -0.247 OA
HETATM    4  N   UNL     1     -43.834 -54.528  14.281  1.00  0.00    -0.330 N 
HETATM    5  C   UNL     1     -45.205 -54.931  13.957  1.00  0.00     0.153 C 
HETATM    6  C   UNL     1     -46.211 -54.268  14.904  1.00  0.00     0.187 C 
HETATM    7  O   UNL     1     -45.871 -54.514  16.280  1.00  0.00    -0.388 OA
HETATM    8  C   UNL     1     -44.564 -53.995  16.573  1.00  0.00     0.187 C 
HETATM    9  C   UNL     1     -43.498 -54.669  15.704  1.00  0.00     0.153 C 
HETATM   10  H   UNL     1     -41.365 -54.387  14.285  1.00  0.00     0.164 HD
ENDROOT
BRANCH   1  11
HETATM   11  C   UNL     1     -40.850 -53.029  12.765  1.00  0.00     0.129 C 
BRANCH  11  12
HETATM   12  C   UNL     1     -40.481 -51.604  13.186  1.00  0.00     0.061 C 
BRANCH  12  13
HETATM   13  C   UNL     1     -41.286 -50.544  12.511  1.00  0.00    -0.023 A 
HETATM   14  C   UNL     1     -40.906 -49.690  11.496  1.00  0.00     0.118 A 
HETATM   15  N   UNL     1     -41.990 -48.910  11.222  1.00  0.00    -0.308 N 
HETATM   16  C   UNL     1     -42.083 -47.868  10.229  1.00  0.00     0.177 C 
HETATM   17  N   UNL     1     -43.055 -49.187  11.994  1.00  0.00    -0.310 N 
HETATM   18  C   UNL     1     -42.623 -50.174  12.783  1.00  0.00     0.115 A 
ATOM     19  HN  UNL     1     -43.975 -48.748  11.981  1.00  0.00     0.186 HD
ENDBRANCH  12  13
ENDBRANCH  11  12
ENDBRANCH   1  11
TORSDOF 3
ENDMDL
MODEL 8
REMARK VINA RESULT:      -4.8      4.249      6.642
REMARK  3 active torsions:
REMARK  status: ('A' for Active; 'I' for Inactive)
REMARK    1  A    between atoms: C_4  and  C_5 
REMARK    2  A    between atoms: C_5  and  C_6 
REMARK    3  A    between atoms: C_6  and  N_7 
REMARK       I    between atoms: N_7  and  C_8 
REMARK       I    between atoms: C_8  and  N_10 
ROOT
HETATM    1  N   UNL     1     -42.295 -49.842  11.629  1.00  0.00    -0.343 N 
HETATM    2  C   UNL     1     -41.435 -48.794  11.832  1.00  0.00     0.318 C 
HETATM    3  O   UNL     1     -40.710 -48.728  12.821  1.00  0.00    -0.247 OA
HETATM    4  N   UNL     1     -41.453 -47.832  10.845  1.00  0.00    -0.330 N 
HETATM    5  C   UNL     1     -40.502 -46.719  10.903  1.00  0.00     0.153 C 
HETATM    6  C   UNL     1     -41.233 -45.372  10.923  1.00  0.00     0.187 C 
HETATM    7  O   UNL     1     -42.150 -45.262   9.821  1.00  0.00    -0.388 OA
HETATM    8  C   UNL     1     -43.131 -46.309   9.878  1.00  0.00     0.187 C 
HETATM    9  C   UNL     1     -42.467 -47.688   9.793  1.00  0.00     0.153 C 
HETATM   10  H   UNL     1     -42.394 -50.112  10.664  1.00  0.00     0.164 HD
ENDROOT
BRANCH   1  11
HETATM   11  C   UNL     1     -42.374 -50.914  12.607  1.00  0.00     0.129 C 
BRANCH  11  12
HETATM   12  C   UNL     1     -41.723 -52.213  12.124  1.00  0.00     0.061 C 
BRANCH  12  13
HETATM   13  C   UNL     1     -40.676 -52.746  13.043  1.00  0.00    -0.023 A 
HETATM   14  C   UNL     1     -40.557 -54.017  13.567  1.00  0.00     0.118 A 
HETATM   15  N   UNL     1     -39.438 -54.010  14.347  1.00  0.00    -0.308 N 
HETATM   16  C   UNL     1     -38.896 -55.115  15.101  1.00  0.00     0.177 C 
HETATM   17  N   UNL     1     -38.819 -52.818  14.379  1.00  0.00    -0.310 N 
HETATM   18  C   UNL     1     -39.576 -52.049  13.594  1.00  0.00     0.115 A 
ATOM     19  HN  UNL     1     -37.970 -52.561  14.884  1.00  0.00     0.186 HD
ENDBRANCH  12  13
ENDBRANCH  11  12
ENDBRANCH   1  11
TORSDOF 3
ENDMDL
MODEL 9
REMARK VINA RESULT:      -4.8      2.480      6.120
REMARK  3 active torsions:
REMARK  status: ('A' for Active; 'I' for Inactive)
REMARK    1  A    between atoms: C_4  and  C_5 
REMARK    2  A    between atoms: C_5  and  C_6 
REMARK    3  A    between atoms: C_6  and  N_7 
REMARK       I    between atoms: N_7  and  C_8 
REMARK       I    between atoms: C_8  and  N_10 
ROOT
HETATM    1  N   UNL     1     -42.314 -53.406  15.240  1.00  0.00    -0.343 N 
HETATM    2  C   UNL     1     -43.528 -54.039  15.315  1.00  0.00     0.318 C 
HETATM    3  O   UNL     1     -43.635 -55.258  15.205  1.00  0.00    -0.247 OA
HETATM    4  N   UNL     1     -44.604 -53.204  15.522  1.00  0.00    -0.330 N 
HETATM    5  C   UNL     1     -45.937 -53.779  15.724  1.00  0.00     0.153 C 
HETATM    6  C   UNL     1     -46.926 -53.252  14.678  1.00  0.00     0.187 C 
HETATM    7  O   UNL     1     -46.940 -51.814  14.653  1.00  0.00    -0.388 OA
HETATM    8  C   UNL     1     -45.634 -51.306  14.337  1.00  0.00     0.187 C 
HETATM    9  C   UNL     1     -44.606 -51.742  15.386  1.00  0.00     0.153 C 
HETATM   10  H   UNL     1     -42.226 -52.612  15.853  1.00  0.00     0.164 HD
ENDROOT
BRANCH   1  11
HETATM   11  C   UNL     1     -41.106 -54.181  15.013  1.00  0.00     0.129 C 
BRANCH  11  12
HETATM   12  C   UNL     1     -40.713 -54.258  13.536  1.00  0.00     0.061 C 
BRANCH  12  13
HETATM   13  C   UNL     1     -40.581 -52.928  12.873  1.00  0.00    -0.023 A 
HETATM   14  C   UNL     1     -39.707 -51.901  13.170  1.00  0.00     0.118 A 
HETATM   15  N   UNL     1     -39.974 -50.899  12.283  1.00  0.00    -0.308 N 
HETATM   16  C   UNL     1     -39.314 -49.619  12.194  1.00  0.00     0.177 C 
HETATM   17  N   UNL     1     -40.969 -51.194  11.430  1.00  0.00    -0.310 N 
HETATM   18  C   UNL     1     -41.342 -52.423  11.795  1.00  0.00     0.115 A 
ATOM     19  HN  UNL     1     -41.349 -50.616  10.680  1.00  0.00     0.186 HD
ENDBRANCH  12  13
ENDBRANCH  11  12
ENDBRANCH   1  11
TORSDOF 3
ENDMDL
