MODEL 1
REMARK VINA RESULT:      -5.1      0.000      0.000
REMARK  3 active torsions:
REMARK  status: ('A' for Active; 'I' for Inactive)
REMARK    1  A    between atoms: O_2  and  C_3 
REMARK    2  A    between atoms: C_9  and  N_10 
REMARK       I    between atoms: N_10  and  C_11 
REMARK    3  A    between atoms: C_11  and  C_13 
ROOT
HETATM    1  C   UNL     1     -40.569 -50.818  12.145  1.00  0.00     0.169 A 
HETATM    2  N   UNL     1     -39.769 -51.561  12.953  1.00  0.00    -0.345 N 
ATOM      3  HN  UNL     1     -40.134 -52.351  13.485  1.00  0.00     0.167 HD
HETATM    4  C   UNL     1     -38.470 -51.208  13.021  1.00  0.00     0.090 A 
HETATM    5  C   UNL     1     -37.930 -50.143  12.329  1.00  0.00     0.019 A 
HETATM    6  C   UNL     1     -38.771 -49.396  11.505  1.00  0.00     0.035 A 
HETATM    7  C   UNL     1     -40.123 -49.729  11.382  1.00  0.00     0.086 A 
ENDROOT
BRANCH   7   8
HETATM    8  N   UNL     1     -41.022 -49.005  10.559  1.00  0.00    -0.321 N 
HETATM    9  C   UNL     1     -41.798 -47.926  10.950  1.00  0.00     0.251 C 
HETATM   10  O   UNL     1     -41.740 -47.374  12.047  1.00  0.00    -0.270 OA
HETATM   11  H   UNL     1     -41.072 -49.290   9.582  1.00  0.00     0.169 HD
BRANCH   9  12
HETATM   12  C   UNL     1     -42.700 -47.360   9.841  1.00  0.00     0.213 C 
HETATM   13  C   UNL     1     -44.161 -47.338  10.282  1.00  0.00     0.044 C 
HETATM   14  C   UNL     1     -44.956 -47.629   9.032  1.00  0.00     0.029 C 
HETATM   15  C   UNL     1     -43.917 -47.781   7.945  1.00  0.00     0.168 C 
HETATM   16  O   UNL     1     -42.675 -48.071   8.603  1.00  0.00    -0.376 OA
ENDBRANCH   9  12
ENDBRANCH   7   8
BRANCH   1  17
HETATM   17  O   UNL     1     -41.904 -51.176  12.031  1.00  0.00    -0.339 OA
HETATM   18  C   UNL     1     -42.131 -52.543  12.377  1.00  0.00     0.211 C 
ENDBRANCH   1  17
TORSDOF 3
ENDMDL
MODEL 2
REMARK VINA RESULT:      -5.1      2.053      6.197
REMARK  3 active torsions:
REMARK  status: ('A' for Active; 'I' for Inactive)
REMARK    1  A    between atoms: O_2  and  C_3 
REMARK    2  A    between atoms: C_9  and  N_10 
REMARK       I    between atoms: N_10  and  C_11 
REMARK    3  A    between atoms: C_11  and  C_13 
ROOT
HETATM    1  C   UNL     1     -43.074 -45.926   9.550  1.00  0.00     0.169 A 
HETATM    2  N   UNL     1     -44.073 -45.046   9.279  1.00  0.00    -0.345 N 
ATOM      3  HN  UNL     1     -43.916 -44.038   9.301  1.00  0.00     0.167 HD
HETATM    4  C   UNL     1     -45.281 -45.563   8.979  1.00  0.00     0.090 A 
HETATM    5  C   UNL     1     -45.545 -46.917   8.945  1.00  0.00     0.019 A 
HETATM    6  C   UNL     1     -44.504 -47.801   9.225  1.00  0.00     0.035 A 
HETATM    7  C   UNL     1     -43.226 -47.321   9.524  1.00  0.00     0.086 A 
ENDROOT
BRANCH   7   8
HETATM    8  N   UNL     1     -42.131 -48.173   9.816  1.00  0.00    -0.321 N 
HETATM    9  C   UNL     1     -41.744 -48.600  11.076  1.00  0.00     0.251 C 
HETATM   10  O   UNL     1     -42.360 -48.383  12.116  1.00  0.00    -0.270 OA
HETATM   11  H   UNL     1     -41.606 -48.526   9.017  1.00  0.00     0.169 HD
BRANCH   9  12
HETATM   12  C   UNL     1     -40.498 -49.502  11.083  1.00  0.00     0.213 C 
HETATM   13  C   UNL     1     -40.751 -50.777  11.881  1.00  0.00     0.044 C 
HETATM   14  C   UNL     1     -39.431 -51.100  12.540  1.00  0.00     0.029 C 
HETATM   15  C   UNL     1     -38.494 -50.010  12.071  1.00  0.00     0.168 C 
HETATM   16  O   UNL     1     -39.318 -48.919  11.638  1.00  0.00    -0.376 OA
ENDBRANCH   9  12
ENDBRANCH   7   8
BRANCH   1  17
HETATM   17  O   UNL     1     -41.813 -45.424   9.832  1.00  0.00    -0.339 OA
HETATM   18  C   UNL     1     -41.762 -44.761  11.096  1.00  0.00     0.211 C 
ENDBRANCH   1  17
TORSDOF 3
ENDMDL
MODEL 3
REMARK VINA RESULT:      -5.0      2.335      5.263
REMARK  3 active torsions:
REMARK  status: ('A' for Active; 'I' for Inactive)
REMARK    1  A    between atoms: O_2  and  C_3 
REMARK    2  A    between atoms: C_9  and  N_10 
REMARK       I    between atoms: N_10  and  C_11 
REMARK    3  A    between atoms: C_11  and  C_13 
ROOT
HETATM    1  C   UNL     1     -39.761 -50.204  11.511  1.00  0.00     0.169 A 
HETATM    2  N   UNL     1     -38.614 -49.683  11.003  1.00  0.00    -0.345 N 
ATOM      3  HN  UNL     1     -38.622 -49.063  10.193  1.00  0.00     0.167 HD
HETATM    4  C   UNL     1     -37.462 -50.022  11.617  1.00  0.00     0.090 A 
HETATM    5  C   UNL     1     -37.398 -50.863  12.709  1.00  0.00     0.019 A 
HETATM    6  C   UNL     1     -38.589 -51.384  13.213  1.00  0.00     0.035 A 
HETATM    7  C   UNL     1     -39.813 -51.052  12.627  1.00  0.00     0.086 A 
ENDROOT
BRANCH   7   8
HETATM    8  N   UNL     1     -41.054 -51.552  13.099  1.00  0.00    -0.321 N 
HETATM    9  C   UNL     1     -41.527 -52.843  12.935  1.00  0.00     0.251 C 
HETATM   10  O   UNL     1     -40.890 -53.773  12.446  1.00  0.00    -0.270 OA
HETATM   11  H   UNL     1     -41.629 -50.904  13.634  1.00  0.00     0.169 HD
BRANCH   9  12
HETATM   12  C   UNL     1     -42.923 -53.086  13.534  1.00  0.00     0.213 C 
HETATM   13  C   UNL     1     -42.906 -54.269  14.498  1.00  0.00     0.044 C 
HETATM   14  C   UNL     1     -44.251 -54.934  14.332  1.00  0.00     0.029 C 
HETATM   15  C   UNL     1     -44.970 -54.090  13.304  1.00  0.00     0.168 C 
HETATM   16  O   UNL     1     -43.959 -53.364  12.591  1.00  0.00    -0.376 OA
ENDBRANCH   9  12
ENDBRANCH   7   8
BRANCH   1  17
HETATM   17  O   UNL     1     -40.964 -49.849  10.919  1.00  0.00    -0.339 OA
HETATM   18  C   UNL     1     -41.212 -48.445  10.994  1.00  0.00     0.211 C 
ENDBRANCH   1  17
TORSDOF 3
ENDMDL
MODEL 4
REMARK VINA RESULT:      -5.0      4.525      6.592
REMARK  3 active torsions:
REMARK  status: ('A' for Active; 'I' for Inactive)
REMARK    1  A    between atoms: O_2  and  C_3 
REMARK    2  A    between atoms: C_9  and  N_10 
REMARK       I    between atoms: N_10  and  C_11 
REMARK    3  A    between atoms: C_11  and  C_13 
ROOT
HETATM    1  C   UNL     1     -41.396 -53.795  13.444  1.00  0.00     0.169 A 
HETATM    2  N   UNL     1     -40.102 -54.160  13.243  1.00  0.00    -0.345 N 
ATOM      3  HN  UNL     1     -39.641 -54.013  12.345  1.00  0.00     0.167 HD
HETATM    4  C   UNL     1     -39.455 -54.724  14.282  1.00  0.00     0.090 A 
HETATM    5  C   UNL     1     -40.038 -54.950  15.512  1.00  0.00     0.019 A 
HETATM    6  C   UNL     1     -41.366 -54.566  15.696  1.00  0.00     0.035 A 
HETATM    7  C   UNL     1     -42.079 -53.960  14.658  1.00  0.00     0.086 A 
ENDROOT
BRANCH   7   8
HETATM    8  N   UNL     1     -43.430 -53.549  14.789  1.00  0.00    -0.321 N 
HETATM    9  C   UNL     1     -44.545 -54.359  14.650  1.00  0.00     0.251 C 
HETATM   10  O   UNL     1     -44.520 -55.577  14.495  1.00  0.00    -0.270 OA
HETATM   11  H   UNL     1     -43.585 -52.574  15.041  1.00  0.00     0.169 HD
BRANCH   9  12
HETATM   12  C   UNL     1     -45.885 -53.624  14.823  1.00  0.00     0.213 C 
HETATM   13  C   UNL     1     -46.024 -52.493  13.809  1.00  0.00     0.044 C 
HETATM   14  C   UNL     1     -46.782 -51.404  14.532  1.00  0.00     0.029 C 
HETATM   15  C   UNL     1     -47.053 -51.975  15.905  1.00  0.00     0.168 C 
HETATM   16  O   UNL     1     -46.102 -53.032  16.105  1.00  0.00    -0.376 OA
ENDBRANCH   9  12
ENDBRANCH   7   8
BRANCH   1  17
HETATM   17  O   UNL     1     -42.077 -53.185  12.403  1.00  0.00    -0.339 OA
HETATM   18  C   UNL     1     -41.462 -51.962  11.993  1.00  0.00     0.211 C 
ENDBRANCH   1  17
TORSDOF 3
ENDMDL
MODEL 5
REMARK VINA RESULT:      -4.9      1.953      5.229
REMARK  3 active torsions:
REMARK  status: ('A' for Active; 'I' for Inactive)
REMARK    1  A    between atoms: O_2  and  C_3 
REMARK    2  A    between atoms: C_9  and  N_10 
REMARK       I    between atoms: N_10  and  C_11 
REMARK    3  A    between atoms: C_11  and  C_13 
ROOT
HETATM    1  C   UNL     1     -41.795 -47.480  10.261  1.00  0.00     0.169 A 
HETATM    2  N   UNL     1     -41.737 -46.127  10.138  1.00  0.00    -0.345 N 
ATOM      3  HN  UNL     1     -42.408 -45.615   9.567  1.00  0.00     0.167 HD
HETATM    4  C   UNL     1     -40.753 -45.493  10.807  1.00  0.00     0.090 A 
HETATM    5  C   UNL     1     -39.817 -46.142  11.585  1.00  0.00     0.019 A 
HETATM    6  C   UNL     1     -39.897 -47.530  11.696  1.00  0.00     0.035 A 
HETATM    7  C   UNL     1     -40.908 -48.237  11.041  1.00  0.00     0.086 A 
ENDROOT
BRANCH   7   8
HETATM    8  N   UNL     1     -41.037 -49.648  11.119  1.00  0.00    -0.321 N 
HETATM    9  C   UNL     1     -41.595 -50.358  12.168  1.00  0.00     0.251 C 
HETATM   10  O   UNL     1     -42.156 -49.859  13.141  1.00  0.00    -0.270 OA
HETATM   11  H   UNL     1     -40.716 -50.177  10.310  1.00  0.00     0.169 HD
BRANCH   9  12
HETATM   12  C   UNL     1     -41.573 -51.884  11.982  1.00  0.00     0.213 C 
HETATM   13  C   UNL     1     -42.763 -52.538  12.679  1.00  0.00     0.044 C 
HETATM   14  C   UNL     1     -42.245 -53.863  13.185  1.00  0.00     0.029 C 
HETATM   15  C   UNL     1     -40.802 -53.906  12.736  1.00  0.00     0.168 C 
HETATM   16  O   UNL     1     -40.412 -52.550  12.481  1.00  0.00    -0.376 OA
ENDBRANCH   9  12
ENDBRANCH   7   8
BRANCH   1  17
HETATM   17  O   UNL     1     -42.814 -48.157   9.609  1.00  0.00    -0.339 OA
HETATM   18  C   UNL     1     -43.456 -47.350   8.620  1.00  0.00     0.211 C 
ENDBRANCH   1  17
TORSDOF 3
ENDMDL
MODEL 6
REMARK VINA RESULT:      -4.9      3.601      4.715
REMARK  3 active torsions:
REMARK  status: ('A' for Active; 'I' for Inactive)
REMARK    1  A    between atoms: O_2  and  C_3 
REMARK    2  A    between atoms: C_9  and  N_10 
REMARK       I    between atoms: N_10  and  C_11 
REMARK    3  A    between atoms: C_11  and  C_13 
ROOT
HETATM    1  C   UNL     1     -41.420 -47.684  10.578  1.00  0.00     0.169 A 
HETATM    2  N   UNL     1     -41.291 -49.025  10.398  1.00  0.00    -0.345 N 
ATOM      3  HN  UNL     1     -41.921 -49.544   9.786  1.00  0.00     0.167 HD
HETATM    4  C   UNL     1     -40.293 -49.639  11.064  1.00  0.00     0.090 A 
HETATM    5  C   UNL     1     -39.422 -48.983  11.909  1.00  0.00     0.019 A 
HETATM    6  C   UNL     1     -39.574 -47.607  12.078  1.00  0.00     0.035 A 
HETATM    7  C   UNL     1     -40.579 -46.916  11.397  1.00  0.00     0.086 A 
ENDROOT
BRANCH   7   8
HETATM    8  N   UNL     1     -40.779 -45.518  11.530  1.00  0.00    -0.321 N 
HETATM    9  C   UNL     1     -40.236 -44.536  10.718  1.00  0.00     0.251 C 
HETATM   10  O   UNL     1     -39.583 -44.743   9.698  1.00  0.00    -0.270 OA
HETATM   11  H   UNL     1     -41.408 -45.219  12.274  1.00  0.00     0.169 HD
BRANCH   9  12
HETATM   12  C   UNL     1     -40.611 -43.101  11.124  1.00  0.00     0.213 C 
HETATM   13  C   UNL     1     -40.854 -43.003  12.627  1.00  0.00     0.044 C 
HETATM   14  C   UNL     1     -41.958 -41.985  12.785  1.00  0.00     0.029 C 
HETATM   15  C   UNL     1     -42.273 -41.542  11.374  1.00  0.00     0.168 C 
HETATM   16  O   UNL     1     -41.783 -42.571  10.502  1.00  0.00    -0.376 OA
ENDBRANCH   9  12
ENDBRANCH   7   8
BRANCH   1  17
HETATM   17  O   UNL     1     -42.419 -47.020   9.883  1.00  0.00    -0.339 OA
HETATM   18  C   UNL     1     -43.726 -47.452  10.264  1.00  0.00     0.211 C 
ENDBRANCH   1  17
TORSDOF 3
ENDMDL
MODEL 7
REMARK VINA RESULT:      -4.9      1.913      3.341
REMARK  3 active torsions:
REMARK  status: ('A' for Active; 'I' for Inactive)
REMARK    1  A    between atoms: O_2  and  C_3 
REMARK    2  A    between atoms: C_9  and  N_10 
REMARK       I    between atoms: N_10  and  C_11 
REMARK    3  A    between atoms: C_11  and  C_13 
ROOT
HETATM    1  C   UNL     1     -40.445 -52.476  12.747  1.00  0.00     0.169 A 
HETATM    2  N   UNL     1     -40.409 -53.594  13.519  1.00  0.00    -0.345 N 
ATOM      3  HN  UNL     1     -39.534 -53.943  13.912  1.00  0.00     0.167 HD
HETATM    4  C   UNL     1     -41.581 -54.222  13.742  1.00  0.00     0.090 A 
HETATM    5  C   UNL     1     -42.787 -53.795  13.227  1.00  0.00     0.019 A 
HETATM    6  C   UNL     1     -42.799 -52.645  12.439  1.00  0.00     0.035 A 
HETATM    7  C   UNL     1     -41.617 -51.943  12.190  1.00  0.00     0.086 A 
ENDROOT
BRANCH   7   8
HETATM    8  N   UNL     1     -41.571 -50.768  11.397  1.00  0.00    -0.321 N 
HETATM    9  C   UNL     1     -41.631 -49.465  11.865  1.00  0.00     0.251 C 
HETATM   10  O   UNL     1     -41.627 -49.139  13.050  1.00  0.00    -0.270 OA
HETATM   11  H   UNL     1     -41.451 -50.902  10.394  1.00  0.00     0.169 HD
BRANCH   9  12
HETATM   12  C   UNL     1     -41.584 -48.394  10.763  1.00  0.00     0.213 C 
HETATM   13  C   UNL     1     -40.728 -47.206  11.190  1.00  0.00     0.044 C 
HETATM   14  C   UNL     1     -41.394 -45.997  10.577  1.00  0.00     0.029 C 
HETATM   15  C   UNL     1     -42.577 -46.556   9.820  1.00  0.00     0.168 C 
HETATM   16  O   UNL     1     -42.848 -47.849  10.379  1.00  0.00    -0.376 OA
ENDBRANCH   9  12
ENDBRANCH   7   8
BRANCH   1  17
HETATM   17  O   UNL     1     -39.260 -51.791  12.525  1.00  0.00    -0.339 OA
HETATM   18  C   UNL     1     -38.608 -51.425  13.742  1.00  0.00     0.211 C 
ENDBRANCH   1  17
TORSDOF 3
ENDMDL
MODEL 8
REMARK VINA RESULT:      -4.8      2.395      5.374
REMARK  3 active torsions:
REMARK  status: ('A' for Active; 'I' for Inactive)
REMARK    1  A    between atoms: O_2  and  C_3 
REMARK    2  A    between atoms: C_9  and  N_10 
REMARK       I    between atoms: N_10  and  C_11 
REMARK    3  A    between atoms: C_11  and  C_13 
ROOT
HETATM    1  C   UNL     1     -40.143 -47.766  11.350  1.00  0.00     0.169 A 
HETATM    2  N   UNL     1     -40.085 -46.414  11.219  1.00  0.00    -0.345 N 
ATOM      3  HN  UNL     1     -39.292 -45.878  11.573  1.00  0.00     0.167 HD
HETATM    4  C   UNL     1     -41.121 -45.814  10.600  1.00  0.00     0.090 A 
HETATM    5  C   UNL     1     -42.218 -46.494  10.114  1.00  0.00     0.019 A 
HETATM    6  C   UNL     1     -42.255 -47.880  10.259  1.00  0.00     0.035 A 
HETATM    7  C   UNL     1     -41.199 -48.557  10.875  1.00  0.00     0.086 A 
ENDROOT
BRANCH   7   8
HETATM    8  N   UNL     1     -41.183 -49.965  11.049  1.00  0.00    -0.321 N 
HETATM    9  C   UNL     1     -41.602 -50.652  12.176  1.00  0.00     0.251 C 
HETATM   10  O   UNL     1     -42.148 -50.143  13.152  1.00  0.00    -0.270 OA
HETATM   11  H   UNL     1     -40.863 -50.516  10.254  1.00  0.00     0.169 HD
BRANCH   9  12
HETATM   12  C   UNL     1     -41.441 -52.178  12.083  1.00  0.00     0.213 C 
HETATM   13  C   UNL     1     -42.624 -52.893  12.729  1.00  0.00     0.044 C 
HETATM   14  C   UNL     1     -42.041 -54.141  13.350  1.00  0.00     0.029 C 
HETATM   15  C   UNL     1     -40.568 -54.083  13.011  1.00  0.00     0.168 C 
HETATM   16  O   UNL     1     -40.271 -52.714  12.704  1.00  0.00    -0.376 OA
ENDBRANCH   9  12
ENDBRANCH   7   8
BRANCH   1  17
HETATM   17  O   UNL     1     -39.077 -48.414  11.955  1.00  0.00    -0.339 OA
HETATM   18  C   UNL     1     -38.962 -48.093  13.342  1.00  0.00     0.211 C 
ENDBRANCH   1  17
TORSDOF 3
ENDMDL
MODEL 9
REMARK VINA RESULT:      -4.8      4.875      8.539
REMARK  3 active torsions:
REMARK  status: ('A' for Active; 'I' for Inactive)
REMARK    1  A    between atoms: O_2  and  C_3 
REMARK    2  A    between atoms: C_9  and  N_10 
REMARK       I    between atoms: N_10  and  C_11 
REMARK    3  A    between atoms: C_11  and  C_13 
ROOT
HETATM    1  C   UNL     1     -44.486 -52.704  13.031  1.00  0.00     0.169 A 
HETATM    2  N   UNL     1     -45.364 -52.109  12.181  1.00  0.00    -0.345 N 
ATOM      3  HN  UNL     1     -45.204 -52.095  11.173  1.00  0.00     0.167 HD
HETATM    4  C   UNL     1     -46.456 -51.540  12.728  1.00  0.00     0.090 A 
HETATM    5  C   UNL     1     -46.712 -51.525  14.084  1.00  0.00     0.019 A 
HETATM    6  C   UNL     1     -45.797 -52.143  14.936  1.00  0.00     0.035 A 
HETATM    7  C   UNL     1     -44.657 -52.766  14.422  1.00  0.00     0.086 A 
ENDROOT
BRANCH   7   8
HETATM    8  N   UNL     1     -43.695 -53.409  15.241  1.00  0.00    -0.321 N 
HETATM    9  C   UNL     1     -43.566 -54.775  15.429  1.00  0.00     0.251 C 
HETATM   10  O   UNL     1     -44.205 -55.635  14.828  1.00  0.00    -0.270 OA
HETATM   11  H   UNL     1     -43.018 -52.804  15.705  1.00  0.00     0.169 HD
BRANCH   9  12
HETATM   12  C   UNL     1     -42.442 -55.177  16.399  1.00  0.00     0.213 C 
HETATM   13  C   UNL     1     -41.081 -54.729  15.874  1.00  0.00     0.044 C 
HETATM   14  C   UNL     1     -40.115 -55.806  16.309  1.00  0.00     0.029 C 
HETATM   15  C   UNL     1     -40.966 -56.796  17.072  1.00  0.00     0.168 C 
HETATM   16  O   UNL     1     -42.322 -56.577  16.657  1.00  0.00    -0.376 OA
ENDBRANCH   9  12
ENDBRANCH   7   8
BRANCH   1  17
HETATM   17  O   UNL     1     -43.369 -53.325  12.494  1.00  0.00    -0.339 OA
HETATM   18  C   UNL     1     -42.325 -52.398  12.192  1.00  0.00     0.211 C 
ENDBRANCH   1  17
TORSDOF 3
ENDMDL
