MODEL 1
REMARK VINA RESULT:      -6.3      0.000      0.000
REMARK  2 active torsions:
REMARK  status: ('A' for Active; 'I' for Inactive)
REMARK    1  A    between atoms: C_9  and  N_10 
REMARK    2  A    between atoms: N_10  and  C_11 
ROOT
HETATM    1  C   UNL     1     -47.284 -51.709  11.153  1.00  0.00     0.068 C 
HETATM    2  C   UNL     1     -46.406 -51.853  12.367  1.00  0.00     0.007 C 
HETATM    3  C   UNL     1     -46.827 -51.276  13.553  1.00  0.00     0.033 C 
HETATM    4  C   UNL     1     -46.295 -51.771  14.741  1.00  0.00    -0.036 C 
HETATM    5  C   UNL     1     -46.635 -51.132  16.056  1.00  0.00     0.050 C 
HETATM    6  C   UNL     1     -45.409 -52.860  14.662  1.00  0.00     0.094 C 
HETATM    7  C   UNL     1     -45.415 -53.817  15.721  1.00  0.00     0.104 C 
HETATM    8  N   UNL     1     -45.517 -54.622  16.554  1.00  0.00    -0.191 NA
HETATM    9  C   UNL     1     -44.778 -53.138  13.449  1.00  0.00     0.123 C 
HETATM   10  N   UNL     1     -45.318 -52.672  12.296  1.00  0.00    -0.345 N 
ATOM     11  HN  UNL     1     -44.919 -52.930  11.394  1.00  0.00     0.167 HD
ENDROOT
BRANCH   9  12
HETATM   12  N   UNL     1     -43.617 -53.911  13.330  1.00  0.00    -0.368 N 
HETATM   13  H   UNL     1     -43.802 -54.671  12.680  1.00  0.00     0.161 HD
BRANCH  12  14
HETATM   14  C   UNL     1     -42.287 -53.286  13.286  1.00  0.00     0.114 C 
HETATM   15  C   UNL     1     -41.135 -54.207  12.862  1.00  0.00     0.059 C 
HETATM   16  C   UNL     1     -40.094 -53.955  13.957  1.00  0.00     0.124 C 
HETATM   17  C   UNL     1     -40.497 -54.621  15.268  1.00  0.00     0.034 C 
HETATM   18  O   UNL     1     -40.336 -52.563  14.273  1.00  0.00    -0.378 OA
HETATM   19  C   UNL     1     -41.636 -53.721  15.747  1.00  0.00     0.036 C 
HETATM   20  C   UNL     1     -41.750 -52.709  14.612  1.00  0.00     0.144 C 
ENDBRANCH  12  14
ENDBRANCH   9  12
TORSDOF 2
ENDMDL
MODEL 2
REMARK VINA RESULT:      -5.7      5.341      7.495
REMARK  2 active torsions:
REMARK  status: ('A' for Active; 'I' for Inactive)
REMARK    1  A    between atoms: C_9  and  N_10 
REMARK    2  A    between atoms: N_10  and  C_11 
ROOT
HETATM    1  C   UNL     1     -41.544 -53.782  12.881  1.00  0.00     0.068 C 
HETATM    2  C   UNL     1     -40.884 -52.430  12.847  1.00  0.00     0.007 C 
HETATM    3  C   UNL     1     -39.816 -52.201  13.699  1.00  0.00     0.033 C 
HETATM    4  C   UNL     1     -38.932 -51.175  13.370  1.00  0.00    -0.036 C 
HETATM    5  C   UNL     1     -37.807 -50.810  14.294  1.00  0.00     0.050 C 
HETATM    6  C   UNL     1     -39.149 -50.479  12.168  1.00  0.00     0.094 C 
HETATM    7  C   UNL     1     -38.015 -50.002  11.445  1.00  0.00     0.104 C 
HETATM    8  N   UNL     1     -37.064 -49.715  10.840  1.00  0.00    -0.191 NA
HETATM    9  C   UNL     1     -40.410 -50.528  11.571  1.00  0.00     0.123 C 
HETATM   10  N   UNL     1     -41.253 -51.544  11.879  1.00  0.00    -0.345 N 
ATOM     11  HN  UNL     1     -42.146 -51.643  11.395  1.00  0.00     0.167 HD
ENDROOT
BRANCH   9  12
HETATM   12  N   UNL     1     -40.865 -49.600  10.628  1.00  0.00    -0.368 N 
HETATM   13  H   UNL     1     -40.982 -50.077   9.737  1.00  0.00     0.161 HD
BRANCH  12  14
HETATM   14  C   UNL     1     -41.855 -48.573  10.986  1.00  0.00     0.114 C 
HETATM   15  C   UNL     1     -42.323 -47.673   9.833  1.00  0.00     0.059 C 
HETATM   16  C   UNL     1     -42.163 -46.271  10.428  1.00  0.00     0.124 C 
HETATM   17  C   UNL     1     -40.695 -45.864  10.501  1.00  0.00     0.034 C 
HETATM   18  O   UNL     1     -42.448 -46.513  11.826  1.00  0.00    -0.378 OA
HETATM   19  C   UNL     1     -40.183 -46.723  11.658  1.00  0.00     0.036 C 
HETATM   20  C   UNL     1     -41.420 -47.530  12.035  1.00  0.00     0.144 C 
ENDBRANCH  12  14
ENDBRANCH   9  12
TORSDOF 2
ENDMDL
MODEL 3
REMARK VINA RESULT:      -5.6      3.501      5.547
REMARK  2 active torsions:
REMARK  status: ('A' for Active; 'I' for Inactive)
REMARK    1  A    between atoms: C_9  and  N_10 
REMARK    2  A    between atoms: N_10  and  C_11 
ROOT
HETATM    1  C   UNL     1     -41.243 -47.758  11.277  1.00  0.00     0.068 C 
HETATM    2  C   UNL     1     -40.697 -49.157  11.397  1.00  0.00     0.007 C 
HETATM    3  C   UNL     1     -39.353 -49.312  11.693  1.00  0.00     0.033 C 
HETATM    4  C   UNL     1     -38.947 -50.523  12.248  1.00  0.00    -0.036 C 
HETATM    5  C   UNL     1     -37.494 -50.796  12.507  1.00  0.00     0.050 C 
HETATM    6  C   UNL     1     -39.934 -51.486  12.523  1.00  0.00     0.094 C 
HETATM    7  C   UNL     1     -39.757 -52.333  13.657  1.00  0.00     0.104 C 
HETATM    8  N   UNL     1     -39.622 -52.939  14.641  1.00  0.00    -0.191 NA
HETATM    9  C   UNL     1     -41.171 -51.394  11.883  1.00  0.00     0.123 C 
HETATM   10  N   UNL     1     -41.567 -50.205  11.369  1.00  0.00    -0.345 N 
ATOM     11  HN  UNL     1     -42.500 -50.097  10.968  1.00  0.00     0.167 HD
ENDROOT
BRANCH   9  12
HETATM   12  N   UNL     1     -42.068 -52.461  11.761  1.00  0.00    -0.368 N 
HETATM   13  H   UNL     1     -41.539 -53.330  11.768  1.00  0.00     0.161 HD
BRANCH  12  14
HETATM   14  C   UNL     1     -43.366 -52.448  12.454  1.00  0.00     0.114 C 
HETATM   15  C   UNL     1     -43.431 -51.589  13.725  1.00  0.00     0.059 C 
HETATM   16  C   UNL     1     -44.050 -52.555  14.740  1.00  0.00     0.124 C 
HETATM   17  C   UNL     1     -43.045 -53.611  15.185  1.00  0.00     0.034 C 
HETATM   18  O   UNL     1     -44.921 -53.346  13.896  1.00  0.00    -0.378 OA
HETATM   19  C   UNL     1     -42.961 -54.512  13.953  1.00  0.00     0.036 C 
HETATM   20  C   UNL     1     -43.887 -53.804  12.970  1.00  0.00     0.144 C 
ENDBRANCH  12  14
ENDBRANCH   9  12
TORSDOF 2
ENDMDL
MODEL 4
REMARK VINA RESULT:      -5.5      1.973      3.221
REMARK  2 active torsions:
REMARK  status: ('A' for Active; 'I' for Inactive)
REMARK    1  A    between atoms: C_9  and  N_10 
REMARK    2  A    between atoms: N_10  and  C_11 
ROOT
HETATM    1  C   UNL     1     -43.760 -48.924  16.609  1.00  0.00     0.068 C 
HETATM    2  C   UNL     1     -44.198 -50.096  15.771  1.00  0.00     0.007 C 
HETATM    3  C   UNL     1     -45.382 -50.733  16.103  1.00  0.00     0.033 C 
HETATM    4  C   UNL     1     -46.017 -51.479  15.113  1.00  0.00    -0.036 C 
HETATM    5  C   UNL     1     -47.253 -52.270  15.427  1.00  0.00     0.050 C 
HETATM    6  C   UNL     1     -45.446 -51.490  13.828  1.00  0.00     0.094 C 
HETATM    7  C   UNL     1     -46.316 -51.569  12.700  1.00  0.00     0.104 C 
HETATM    8  N   UNL     1     -47.061 -51.538  11.807  1.00  0.00    -0.191 NA
HETATM    9  C   UNL     1     -44.106 -51.132  13.676  1.00  0.00     0.123 C 
HETATM   10  N   UNL     1     -43.504 -50.385  14.634  1.00  0.00    -0.345 N 
ATOM     11  HN  UNL     1     -42.551 -50.045  14.505  1.00  0.00     0.167 HD
ENDROOT
BRANCH   9  12
HETATM   12  N   UNL     1     -43.328 -51.468  12.562  1.00  0.00    -0.368 N 
HETATM   13  H   UNL     1     -42.794 -50.648  12.284  1.00  0.00     0.161 HD
BRANCH  12  14
HETATM   14  C   UNL     1     -42.669 -52.779  12.461  1.00  0.00     0.114 C 
HETATM   15  C   UNL     1     -42.940 -53.749  13.619  1.00  0.00     0.059 C 
HETATM   16  C   UNL     1     -41.529 -54.209  13.998  1.00  0.00     0.124 C 
HETATM   17  C   UNL     1     -40.770 -53.115  14.741  1.00  0.00     0.034 C 
HETATM   18  O   UNL     1     -40.859 -54.180  12.715  1.00  0.00    -0.378 OA
HETATM   19  C   UNL     1     -40.455 -52.125  13.619  1.00  0.00     0.036 C 
HETATM   20  C   UNL     1     -41.127 -52.775  12.415  1.00  0.00     0.144 C 
ENDBRANCH  12  14
ENDBRANCH   9  12
TORSDOF 2
ENDMDL
MODEL 5
REMARK VINA RESULT:      -5.4      4.261      6.183
REMARK  2 active torsions:
REMARK  status: ('A' for Active; 'I' for Inactive)
REMARK    1  A    between atoms: C_9  and  N_10 
REMARK    2  A    between atoms: N_10  and  C_11 
ROOT
HETATM    1  C   UNL     1     -44.042 -53.861  12.565  1.00  0.00     0.068 C 
HETATM    2  C   UNL     1     -43.038 -52.812  12.962  1.00  0.00     0.007 C 
HETATM    3  C   UNL     1     -42.367 -52.970  14.164  1.00  0.00     0.033 C 
HETATM    4  C   UNL     1     -41.156 -52.300  14.322  1.00  0.00    -0.036 C 
HETATM    5  C   UNL     1     -40.422 -52.350  15.630  1.00  0.00     0.050 C 
HETATM    6  C   UNL     1     -40.667 -51.556  13.235  1.00  0.00     0.094 C 
HETATM    7  C   UNL     1     -39.255 -51.484  13.043  1.00  0.00     0.104 C 
HETATM    8  N   UNL     1     -38.106 -51.528  12.866  1.00  0.00    -0.191 NA
HETATM    9  C   UNL     1     -41.548 -51.168  12.225  1.00  0.00     0.123 C 
HETATM   10  N   UNL     1     -42.713 -51.842  12.062  1.00  0.00    -0.345 N 
ATOM     11  HN  UNL     1     -43.334 -51.626  11.282  1.00  0.00     0.167 HD
ENDROOT
BRANCH   9  12
HETATM   12  N   UNL     1     -41.294 -50.128  11.323  1.00  0.00    -0.368 N 
HETATM   13  H   UNL     1     -41.712 -50.370  10.427  1.00  0.00     0.161 HD
BRANCH  12  14
HETATM   14  C   UNL     1     -41.354 -48.721  11.745  1.00  0.00     0.114 C 
HETATM   15  C   UNL     1     -42.558 -48.342  12.620  1.00  0.00     0.059 C 
HETATM   16  C   UNL     1     -43.092 -47.091  11.916  1.00  0.00     0.124 C 
HETATM   17  C   UNL     1     -43.809 -47.449  10.618  1.00  0.00     0.034 C 
HETATM   18  O   UNL     1     -41.873 -46.504  11.400  1.00  0.00    -0.378 OA
HETATM   19  C   UNL     1     -42.643 -47.815   9.699  1.00  0.00     0.036 C 
HETATM   20  C   UNL     1     -41.441 -47.665  10.625  1.00  0.00     0.144 C 
ENDBRANCH  12  14
ENDBRANCH   9  12
TORSDOF 2
ENDMDL
MODEL 6
REMARK VINA RESULT:      -5.3      2.000      3.518
REMARK  2 active torsions:
REMARK  status: ('A' for Active; 'I' for Inactive)
REMARK    1  A    between atoms: C_9  and  N_10 
REMARK    2  A    between atoms: N_10  and  C_11 
ROOT
HETATM    1  C   UNL     1     -47.740 -51.106  17.340  1.00  0.00     0.068 C 
HETATM    2  C   UNL     1     -46.753 -51.519  16.281  1.00  0.00     0.007 C 
HETATM    3  C   UNL     1     -47.173 -51.529  14.961  1.00  0.00     0.033 C 
HETATM    4  C   UNL     1     -46.198 -51.452  13.970  1.00  0.00    -0.036 C 
HETATM    5  C   UNL     1     -46.574 -51.551  12.520  1.00  0.00     0.050 C 
HETATM    6  C   UNL     1     -44.859 -51.313  14.372  1.00  0.00     0.094 C 
HETATM    7  C   UNL     1     -43.980 -50.543  13.552  1.00  0.00     0.104 C 
HETATM    8  N   UNL     1     -43.323 -49.832  12.909  1.00  0.00    -0.191 NA
HETATM    9  C   UNL     1     -44.499 -51.664  15.674  1.00  0.00     0.123 C 
HETATM   10  N   UNL     1     -45.451 -51.711  16.637  1.00  0.00    -0.345 N 
ATOM     11  HN  UNL     1     -45.199 -51.887  17.610  1.00  0.00     0.167 HD
ENDROOT
BRANCH   9  12
HETATM   12  N   UNL     1     -43.188 -51.945  16.075  1.00  0.00    -0.368 N 
HETATM   13  H   UNL     1     -42.878 -51.207  16.702  1.00  0.00     0.161 HD
BRANCH  12  14
HETATM   14  C   UNL     1     -42.761 -53.320  16.376  1.00  0.00     0.114 C 
HETATM   15  C   UNL     1     -41.254 -53.513  16.598  1.00  0.00     0.059 C 
HETATM   16  C   UNL     1     -40.939 -54.702  15.685  1.00  0.00     0.124 C 
HETATM   17  C   UNL     1     -40.940 -54.290  14.217  1.00  0.00     0.034 C 
HETATM   18  O   UNL     1     -42.172 -55.458  15.757  1.00  0.00    -0.378 OA
HETATM   19  C   UNL     1     -42.432 -54.106  13.938  1.00  0.00     0.036 C 
HETATM   20  C   UNL     1     -43.054 -54.386  15.301  1.00  0.00     0.144 C 
ENDBRANCH  12  14
ENDBRANCH   9  12
TORSDOF 2
ENDMDL
MODEL 7
REMARK VINA RESULT:      -5.2      3.148      4.184
REMARK  2 active torsions:
REMARK  status: ('A' for Active; 'I' for Inactive)
REMARK    1  A    between atoms: C_9  and  N_10 
REMARK    2  A    between atoms: N_10  and  C_11 
ROOT
HETATM    1  C   UNL     1     -46.564 -51.520  13.522  1.00  0.00     0.068 C 
HETATM    2  C   UNL     1     -45.083 -51.617  13.778  1.00  0.00     0.007 C 
HETATM    3  C   UNL     1     -44.649 -52.426  14.816  1.00  0.00     0.033 C 
HETATM    4  C   UNL     1     -43.334 -52.883  14.776  1.00  0.00    -0.036 C 
HETATM    5  C   UNL     1     -42.769 -53.685  15.912  1.00  0.00     0.050 C 
HETATM    6  C   UNL     1     -42.552 -52.541  13.659  1.00  0.00     0.094 C 
HETATM    7  C   UNL     1     -41.577 -53.477  13.202  1.00  0.00     0.104 C 
HETATM    8  N   UNL     1     -40.862 -54.304  12.804  1.00  0.00    -0.191 NA
HETATM    9  C   UNL     1     -42.937 -51.461  12.863  1.00  0.00     0.123 C 
HETATM   10  N   UNL     1     -44.224 -51.040  12.891  1.00  0.00    -0.345 N 
ATOM     11  HN  UNL     1     -44.545 -50.306  12.259  1.00  0.00     0.167 HD
ENDROOT
BRANCH   9  12
HETATM   12  N   UNL     1     -42.075 -50.786  11.991  1.00  0.00    -0.368 N 
HETATM   13  H   UNL     1     -42.503 -50.764  11.069  1.00  0.00     0.161 HD
BRANCH  12  14
HETATM   14  C   UNL     1     -41.330 -49.595  12.426  1.00  0.00     0.114 C 
HETATM   15  C   UNL     1     -40.677 -48.775  11.305  1.00  0.00     0.059 C 
HETATM   16  C   UNL     1     -39.244 -48.604  11.818  1.00  0.00     0.124 C 
HETATM   17  C   UNL     1     -38.451 -49.901  11.694  1.00  0.00     0.034 C 
HETATM   18  O   UNL     1     -39.452 -48.547  13.249  1.00  0.00    -0.378 OA
HETATM   19  C   UNL     1     -39.054 -50.751  12.813  1.00  0.00     0.036 C 
HETATM   20  C   UNL     1     -40.136 -49.833  13.372  1.00  0.00     0.144 C 
ENDBRANCH  12  14
ENDBRANCH   9  12
TORSDOF 2
ENDMDL
MODEL 8
REMARK VINA RESULT:      -5.1      3.299      5.430
REMARK  2 active torsions:
REMARK  status: ('A' for Active; 'I' for Inactive)
REMARK    1  A    between atoms: C_9  and  N_10 
REMARK    2  A    between atoms: N_10  and  C_11 
ROOT
HETATM    1  C   UNL     1     -39.456 -54.826  16.100  1.00  0.00     0.068 C 
HETATM    2  C   UNL     1     -40.373 -54.452  14.966  1.00  0.00     0.007 C 
HETATM    3  C   UNL     1     -41.682 -54.905  15.005  1.00  0.00     0.033 C 
HETATM    4  C   UNL     1     -42.629 -54.217  14.250  1.00  0.00    -0.036 C 
HETATM    5  C   UNL     1     -44.046 -54.707  14.172  1.00  0.00     0.050 C 
HETATM    6  C   UNL     1     -42.208 -53.076  13.545  1.00  0.00     0.094 C 
HETATM    7  C   UNL     1     -43.126 -51.995  13.393  1.00  0.00     0.104 C 
HETATM    8  N   UNL     1     -43.869 -51.100  13.374  1.00  0.00    -0.191 NA
HETATM    9  C   UNL     1     -40.848 -52.905  13.277  1.00  0.00     0.123 C 
HETATM   10  N   UNL     1     -39.934 -53.560  14.033  1.00  0.00    -0.345 N 
ATOM     11  HN  UNL     1     -38.936 -53.388  13.907  1.00  0.00     0.167 HD
ENDROOT
BRANCH   9  12
HETATM   12  N   UNL     1     -40.348 -52.059  12.281  1.00  0.00    -0.368 N 
HETATM   13  H   UNL     1     -40.848 -52.250  11.416  1.00  0.00     0.161 HD
BRANCH  12  14
HETATM   14  C   UNL     1     -40.001 -50.660  12.574  1.00  0.00     0.114 C 
HETATM   15  C   UNL     1     -39.915 -49.729  11.356  1.00  0.00     0.059 C 
HETATM   16  C   UNL     1     -38.564 -49.041  11.566  1.00  0.00     0.124 C 
HETATM   17  C   UNL     1     -37.406 -49.985  11.259  1.00  0.00     0.034 C 
HETATM   18  O   UNL     1     -38.489 -48.979  13.010  1.00  0.00    -0.378 OA
HETATM   19  C   UNL     1     -37.435 -50.927  12.464  1.00  0.00     0.036 C 
HETATM   20  C   UNL     1     -38.637 -50.413  13.249  1.00  0.00     0.144 C 
ENDBRANCH  12  14
ENDBRANCH   9  12
TORSDOF 2
ENDMDL
MODEL 9
REMARK VINA RESULT:      -5.1      2.302      5.493
REMARK  2 active torsions:
REMARK  status: ('A' for Active; 'I' for Inactive)
REMARK    1  A    between atoms: C_9  and  N_10 
REMARK    2  A    between atoms: N_10  and  C_11 
ROOT
HETATM    1  C   UNL     1     -39.169 -50.793  14.385  1.00  0.00     0.068 C 
HETATM    2  C   UNL     1     -39.623 -52.224  14.268  1.00  0.00     0.007 C 
HETATM    3  C   UNL     1     -39.000 -53.175  15.058  1.00  0.00     0.033 C 
HETATM    4  C   UNL     1     -39.685 -54.363  15.304  1.00  0.00    -0.036 C 
HETATM    5  C   UNL     1     -39.033 -55.475  16.073  1.00  0.00     0.050 C 
HETATM    6  C   UNL     1     -40.983 -54.495  14.783  1.00  0.00     0.094 C 
HETATM    7  C   UNL     1     -41.942 -55.243  15.531  1.00  0.00     0.104 C 
HETATM    8  N   UNL     1     -42.716 -55.779  16.214  1.00  0.00    -0.191 NA
HETATM    9  C   UNL     1     -41.382 -53.668  13.732  1.00  0.00     0.123 C 
HETATM   10  N   UNL     1     -40.726 -52.503  13.517  1.00  0.00    -0.345 N 
ATOM     11  HN  UNL     1     -41.050 -51.847  12.806  1.00  0.00     0.167 HD
ENDROOT
BRANCH   9  12
HETATM   12  N   UNL     1     -42.460 -53.947  12.884  1.00  0.00    -0.368 N 
HETATM   13  H   UNL     1     -42.579 -54.956  12.836  1.00  0.00     0.161 HD
BRANCH  12  14
HETATM   14  C   UNL     1     -43.675 -53.117  12.898  1.00  0.00     0.114 C 
HETATM   15  C   UNL     1     -43.963 -52.386  14.216  1.00  0.00     0.059 C 
HETATM   16  C   UNL     1     -45.432 -52.738  14.471  1.00  0.00     0.124 C 
HETATM   17  C   UNL     1     -45.584 -54.184  14.931  1.00  0.00     0.034 C 
HETATM   18  O   UNL     1     -45.948 -52.827  13.121  1.00  0.00    -0.378 OA
HETATM   19  C   UNL     1     -45.326 -54.960  13.639  1.00  0.00     0.036 C 
HETATM   20  C   UNL     1     -45.012 -53.844  12.648  1.00  0.00     0.144 C 
ENDBRANCH  12  14
ENDBRANCH   9  12
TORSDOF 2
ENDMDL
