MODEL 1
REMARK VINA RESULT:      -6.8      0.000      0.000
REMARK  5 active torsions:
REMARK  status: ('A' for Active; 'I' for Inactive)
REMARK    1  A    between atoms: N_6  and  C_7 
REMARK    2  A    between atoms: C_7  and  C_8 
REMARK    3  A    between atoms: C_8  and  N_9 
REMARK       I    between atoms: N_9  and  C_10 
REMARK       I    between atoms: C_10  and  N_12 
REMARK    4  A    between atoms: N_12  and  C_13 
REMARK    5  A    between atoms: C_16  and  N_20 
ROOT
HETATM    1  N   UNL     1     -41.895 -52.889  11.942  1.00  0.00    -0.341 N 
HETATM    2  C   UNL     1     -41.749 -51.543  12.193  1.00  0.00     0.320 C 
HETATM    3  O   UNL     1     -42.247 -51.013  13.179  1.00  0.00    -0.247 OA
HETATM    4  N   UNL     1     -41.011 -50.907  11.213  1.00  0.00    -0.308 N 
HETATM    5  H   UNL     1     -41.137 -53.317  11.431  1.00  0.00     0.164 HD
HETATM    6  H   UNL     1     -40.997 -51.354  10.309  1.00  0.00     0.170 HD
ENDROOT
BRANCH   4   7
HETATM    7  C   UNL     1     -40.625 -49.550  11.285  1.00  0.00     0.051 A 
HETATM    8  C   UNL     1     -39.600 -49.117  12.107  1.00  0.00     0.035 A 
HETATM    9  C   UNL     1     -39.333 -47.760  12.222  1.00  0.00     0.051 A 
HETATM   10  C   UNL     1     -40.068 -46.829  11.495  1.00  0.00     0.103 A 
HETATM   11  N   UNL     1     -40.995 -47.237  10.601  1.00  0.00    -0.350 N 
HETATM   12  C   UNL     1     -41.264 -48.572  10.526  1.00  0.00     0.119 A 
ATOM     13  HN  UNL     1     -41.477 -46.569  10.000  1.00  0.00     0.166 HD
BRANCH  10  14
HETATM   14  N   UNL     1     -39.807 -45.493  11.665  1.00  0.00    -0.363 N 
HETATM   15  C   UNL     1     -39.197 -44.967  12.878  1.00  0.00     0.150 C 
HETATM   16  C   UNL     1     -39.974 -43.685  13.256  1.00  0.00     0.187 C 
HETATM   17  O   UNL     1     -40.010 -42.727  12.176  1.00  0.00    -0.388 OA
HETATM   18  C   UNL     1     -40.606 -43.304  10.997  1.00  0.00     0.187 C 
HETATM   19  C   UNL     1     -39.835 -44.551  10.545  1.00  0.00     0.150 C 
ENDBRANCH  10  14
ENDBRANCH   4   7
BRANCH   1  20
HETATM   20  C   UNL     1     -42.543 -53.714  12.953  1.00  0.00     0.154 C 
BRANCH  20  21
HETATM   21  C   UNL     1     -44.038 -53.975  12.660  1.00  0.00     0.292 C 
BRANCH  21  22
HETATM   22  N   UNL     1     -44.962 -53.347  13.631  1.00  0.00     0.090 N 
HETATM   23  C   UNL     1     -45.643 -52.169  13.081  1.00  0.00     0.272 C 
HETATM   24  C   UNL     1     -46.613 -51.546  14.084  1.00  0.00     0.031 C 
HETATM   25  C   UNL     1     -45.921 -51.213  15.400  1.00  0.00     0.007 C 
HETATM   26  C   UNL     1     -45.161 -52.422  15.954  1.00  0.00     0.010 C 
HETATM   27  C   UNL     1     -46.117 -53.483  16.510  1.00  0.00     0.011 C 
HETATM   28  C   UNL     1     -44.234 -53.004  14.869  1.00  0.00     0.276 C 
ENDBRANCH  21  22
ENDBRANCH  20  21
ENDBRANCH   1  20
TORSDOF 5
ENDMDL
MODEL 2
REMARK VINA RESULT:      -6.7      1.834      2.660
REMARK  5 active torsions:
REMARK  status: ('A' for Active; 'I' for Inactive)
REMARK    1  A    between atoms: N_6  and  C_7 
REMARK    2  A    between atoms: C_7  and  C_8 
REMARK    3  A    between atoms: C_8  and  N_9 
REMARK       I    between atoms: N_9  and  C_10 
REMARK       I    between atoms: C_10  and  N_12 
REMARK    4  A    between atoms: N_12  and  C_13 
REMARK    5  A    between atoms: C_16  and  N_20 
ROOT
HETATM    1  N   UNL     1     -41.526 -51.053  11.517  1.00  0.00    -0.341 N 
HETATM    2  C   UNL     1     -41.709 -49.723  11.824  1.00  0.00     0.320 C 
HETATM    3  O   UNL     1     -41.934 -49.351  12.970  1.00  0.00    -0.247 OA
HETATM    4  N   UNL     1     -41.619 -48.913  10.708  1.00  0.00    -0.308 N 
HETATM    5  H   UNL     1     -40.925 -51.235  10.728  1.00  0.00     0.164 HD
HETATM    6  H   UNL     1     -41.812 -49.356   9.823  1.00  0.00     0.170 HD
ENDROOT
BRANCH   4   7
HETATM    7  C   UNL     1     -41.661 -47.502  10.763  1.00  0.00     0.051 A 
HETATM    8  C   UNL     1     -40.538 -46.740  11.033  1.00  0.00     0.035 A 
HETATM    9  C   UNL     1     -40.654 -45.366  11.183  1.00  0.00     0.051 A 
HETATM   10  C   UNL     1     -41.888 -44.739  11.036  1.00  0.00     0.103 A 
HETATM   11  N   UNL     1     -42.975 -45.448  10.659  1.00  0.00    -0.350 N 
HETATM   12  C   UNL     1     -42.845 -46.802  10.548  1.00  0.00     0.119 A 
ATOM     13  HN  UNL     1     -43.863 -44.987  10.464  1.00  0.00     0.166 HD
BRANCH  10  14
HETATM   14  N   UNL     1     -41.976 -43.385  11.233  1.00  0.00    -0.363 N 
HETATM   15  C   UNL     1     -40.799 -42.544  11.405  1.00  0.00     0.150 C 
HETATM   16  C   UNL     1     -41.103 -41.572  12.567  1.00  0.00     0.187 C 
HETATM   17  O   UNL     1     -42.314 -40.817  12.348  1.00  0.00    -0.388 OA
HETATM   18  C   UNL     1     -43.442 -41.695  12.167  1.00  0.00     0.187 C 
HETATM   19  C   UNL     1     -43.215 -42.646  10.984  1.00  0.00     0.150 C 
ENDBRANCH  10  14
ENDBRANCH   4   7
BRANCH   1  20
HETATM   20  C   UNL     1     -41.468 -52.012  12.612  1.00  0.00     0.154 C 
BRANCH  20  21
HETATM   21  C   UNL     1     -42.689 -52.960  12.658  1.00  0.00     0.292 C 
BRANCH  21  22
HETATM   22  N   UNL     1     -43.959 -52.289  13.013  1.00  0.00     0.090 N 
HETATM   23  C   UNL     1     -43.945 -51.735  14.372  1.00  0.00     0.272 C 
HETATM   24  C   UNL     1     -45.252 -51.021  14.716  1.00  0.00     0.031 C 
HETATM   25  C   UNL     1     -46.457 -51.930  14.509  1.00  0.00     0.007 C 
HETATM   26  C   UNL     1     -46.451 -52.557  13.111  1.00  0.00     0.010 C 
HETATM   27  C   UNL     1     -46.805 -51.528  12.030  1.00  0.00     0.011 C 
HETATM   28  C   UNL     1     -45.089 -53.223  12.838  1.00  0.00     0.276 C 
ENDBRANCH  21  22
ENDBRANCH  20  21
ENDBRANCH   1  20
TORSDOF 5
ENDMDL
MODEL 3
REMARK VINA RESULT:      -6.3      1.464      2.373
REMARK  5 active torsions:
REMARK  status: ('A' for Active; 'I' for Inactive)
REMARK    1  A    between atoms: N_6  and  C_7 
REMARK    2  A    between atoms: C_7  and  C_8 
REMARK    3  A    between atoms: C_8  and  N_9 
REMARK       I    between atoms: N_9  and  C_10 
REMARK       I    between atoms: C_10  and  N_12 
REMARK    4  A    between atoms: N_12  and  C_13 
REMARK    5  A    between atoms: C_16  and  N_20 
ROOT
HETATM    1  N   UNL     1     -40.751 -52.228  11.821  1.00  0.00    -0.341 N 
HETATM    2  C   UNL     1     -41.074 -50.929  12.146  1.00  0.00     0.320 C 
HETATM    3  O   UNL     1     -41.406 -50.612  13.282  1.00  0.00    -0.247 OA
HETATM    4  N   UNL     1     -40.987 -50.083  11.057  1.00  0.00    -0.308 N 
HETATM    5  H   UNL     1     -40.086 -52.332  11.069  1.00  0.00     0.164 HD
HETATM    6  H   UNL     1     -41.081 -50.515  10.151  1.00  0.00     0.170 HD
ENDROOT
BRANCH   4   7
HETATM    7  C   UNL     1     -41.162 -48.683  11.141  1.00  0.00     0.051 A 
HETATM    8  C   UNL     1     -42.351 -48.066  10.795  1.00  0.00     0.035 A 
HETATM    9  C   UNL     1     -42.435 -46.681  10.792  1.00  0.00     0.051 A 
HETATM   10  C   UNL     1     -41.343 -45.904  11.163  1.00  0.00     0.103 A 
HETATM   11  N   UNL     1     -40.211 -46.486  11.615  1.00  0.00    -0.350 N 
HETATM   12  C   UNL     1     -40.137 -47.848  11.580  1.00  0.00     0.119 A 
ATOM     13  HN  UNL     1     -39.436 -45.927  11.972  1.00  0.00     0.166 HD
BRANCH  10  14
HETATM   14  N   UNL     1     -41.446 -44.537  11.108  1.00  0.00    -0.363 N 
HETATM   15  C   UNL     1     -40.290 -43.676  10.904  1.00  0.00     0.150 C 
HETATM   16  C   UNL     1     -40.425 -42.495  11.892  1.00  0.00     0.187 C 
HETATM   17  O   UNL     1     -41.683 -41.801  11.747  1.00  0.00    -0.388 OA
HETATM   18  C   UNL     1     -42.792 -42.701  11.940  1.00  0.00     0.187 C 
HETATM   19  C   UNL     1     -42.736 -43.865  10.942  1.00  0.00     0.150 C 
ENDBRANCH  10  14
ENDBRANCH   4   7
BRANCH   1  20
HETATM   20  C   UNL     1     -40.676 -53.209  12.895  1.00  0.00     0.154 C 
BRANCH  20  21
HETATM   21  C   UNL     1     -41.860 -54.204  12.896  1.00  0.00     0.292 C 
BRANCH  21  22
HETATM   22  N   UNL     1     -43.105 -53.657  13.479  1.00  0.00     0.090 N 
HETATM   23  C   UNL     1     -43.672 -54.525  14.518  1.00  0.00     0.272 C 
HETATM   24  C   UNL     1     -44.942 -53.936  15.130  1.00  0.00     0.031 C 
HETATM   25  C   UNL     1     -45.980 -53.613  14.062  1.00  0.00     0.007 C 
HETATM   26  C   UNL     1     -45.382 -52.752  12.944  1.00  0.00     0.010 C 
HETATM   27  C   UNL     1     -45.139 -51.312  13.409  1.00  0.00     0.011 C 
HETATM   28  C   UNL     1     -44.092 -53.403  12.410  1.00  0.00     0.276 C 
ENDBRANCH  21  22
ENDBRANCH  20  21
ENDBRANCH   1  20
TORSDOF 5
ENDMDL
MODEL 4
REMARK VINA RESULT:      -6.3      2.139      3.462
REMARK  5 active torsions:
REMARK  status: ('A' for Active; 'I' for Inactive)
REMARK    1  A    between atoms: N_6  and  C_7 
REMARK    2  A    between atoms: C_7  and  C_8 
REMARK    3  A    between atoms: C_8  and  N_9 
REMARK       I    between atoms: N_9  and  C_10 
REMARK       I    between atoms: C_10  and  N_12 
REMARK    4  A    between atoms: N_12  and  C_13 
REMARK    5  A    between atoms: C_16  and  N_20 
ROOT
HETATM    1  N   UNL     1     -40.648 -50.208  11.033  1.00  0.00    -0.341 N 
HETATM    2  C   UNL     1     -41.020 -48.952  11.459  1.00  0.00     0.320 C 
HETATM    3  O   UNL     1     -41.314 -48.729  12.627  1.00  0.00    -0.247 OA
HETATM    4  N   UNL     1     -41.026 -48.033  10.428  1.00  0.00    -0.308 N 
HETATM    5  H   UNL     1     -40.014 -50.227  10.248  1.00  0.00     0.164 HD
HETATM    6  H   UNL     1     -41.140 -48.409   9.499  1.00  0.00     0.170 HD
ENDROOT
BRANCH   4   7
HETATM    7  C   UNL     1     -41.267 -46.653  10.615  1.00  0.00     0.051 A 
HETATM    8  C   UNL     1     -40.240 -45.742  10.790  1.00  0.00     0.035 A 
HETATM    9  C   UNL     1     -40.533 -44.417  11.078  1.00  0.00     0.051 A 
HETATM   10  C   UNL     1     -41.853 -43.986  11.163  1.00  0.00     0.103 A 
HETATM   11  N   UNL     1     -42.869 -44.832  10.882  1.00  0.00    -0.350 N 
HETATM   12  C   UNL     1     -42.560 -46.137  10.633  1.00  0.00     0.119 A 
ATOM     13  HN  UNL     1     -43.835 -44.505  10.857  1.00  0.00     0.166 HD
BRANCH  10  14
HETATM   14  N   UNL     1     -42.109 -42.679  11.492  1.00  0.00    -0.363 N 
HETATM   15  C   UNL     1     -41.047 -41.733  11.807  1.00  0.00     0.150 C 
HETATM   16  C   UNL     1     -41.508 -40.931  13.045  1.00  0.00     0.187 C 
HETATM   17  O   UNL     1     -42.790 -40.299  12.843  1.00  0.00    -0.388 OA
HETATM   18  C   UNL     1     -43.799 -41.276  12.517  1.00  0.00     0.187 C 
HETATM   19  C   UNL     1     -43.416 -42.063  11.258  1.00  0.00     0.150 C 
ENDBRANCH  10  14
ENDBRANCH   4   7
BRANCH   1  20
HETATM   20  C   UNL     1     -40.474 -51.253  12.033  1.00  0.00     0.154 C 
BRANCH  20  21
HETATM   21  C   UNL     1     -41.330 -52.510  11.758  1.00  0.00     0.292 C 
BRANCH  21  22
HETATM   22  N   UNL     1     -42.153 -52.943  12.909  1.00  0.00     0.090 N 
HETATM   23  C   UNL     1     -41.674 -54.196  13.505  1.00  0.00     0.272 C 
HETATM   24  C   UNL     1     -42.515 -54.618  14.709  1.00  0.00     0.031 C 
HETATM   25  C   UNL     1     -43.994 -54.711  14.354  1.00  0.00     0.007 C 
HETATM   26  C   UNL     1     -44.489 -53.427  13.681  1.00  0.00     0.010 C 
HETATM   27  C   UNL     1     -44.611 -52.274  14.685  1.00  0.00     0.011 C 
HETATM   28  C   UNL     1     -43.567 -53.061  12.502  1.00  0.00     0.276 C 
ENDBRANCH  21  22
ENDBRANCH  20  21
ENDBRANCH   1  20
TORSDOF 5
ENDMDL
MODEL 5
REMARK VINA RESULT:      -6.2      1.402      1.751
REMARK  5 active torsions:
REMARK  status: ('A' for Active; 'I' for Inactive)
REMARK    1  A    between atoms: N_6  and  C_7 
REMARK    2  A    between atoms: C_7  and  C_8 
REMARK    3  A    between atoms: C_8  and  N_9 
REMARK       I    between atoms: N_9  and  C_10 
REMARK       I    between atoms: C_10  and  N_12 
REMARK    4  A    between atoms: N_12  and  C_13 
REMARK    5  A    between atoms: C_16  and  N_20 
ROOT
HETATM    1  N   UNL     1     -41.297 -53.112  13.776  1.00  0.00    -0.341 N 
HETATM    2  C   UNL     1     -41.511 -51.970  13.037  1.00  0.00     0.320 C 
HETATM    3  O   UNL     1     -42.487 -51.848  12.307  1.00  0.00    -0.247 OA
HETATM    4  N   UNL     1     -40.509 -51.036  13.219  1.00  0.00    -0.308 N 
HETATM    5  H   UNL     1     -40.791 -52.979  14.639  1.00  0.00     0.164 HD
HETATM    6  H   UNL     1     -39.617 -51.397  13.520  1.00  0.00     0.170 HD
ENDROOT
BRANCH   4   7
HETATM    7  C   UNL     1     -40.542 -49.739  12.661  1.00  0.00     0.051 A 
HETATM    8  C   UNL     1     -40.430 -48.599  13.437  1.00  0.00     0.035 A 
HETATM    9  C   UNL     1     -40.577 -47.348  12.854  1.00  0.00     0.051 A 
HETATM   10  C   UNL     1     -40.808 -47.227  11.487  1.00  0.00     0.103 A 
HETATM   11  N   UNL     1     -40.805 -48.319  10.693  1.00  0.00    -0.350 N 
HETATM   12  C   UNL     1     -40.691 -49.541  11.290  1.00  0.00     0.119 A 
ATOM     13  HN  UNL     1     -40.886 -48.235   9.680  1.00  0.00     0.166 HD
BRANCH  10  14
HETATM   14  N   UNL     1     -40.992 -45.978  10.950  1.00  0.00    -0.363 N 
HETATM   15  C   UNL     1     -39.880 -45.151  10.502  1.00  0.00     0.150 C 
HETATM   16  C   UNL     1     -40.152 -43.715  11.004  1.00  0.00     0.187 C 
HETATM   17  O   UNL     1     -41.438 -43.219  10.576  1.00  0.00    -0.388 OA
HETATM   18  C   UNL     1     -42.500 -44.082  11.030  1.00  0.00     0.187 C 
HETATM   19  C   UNL     1     -42.307 -45.512  10.509  1.00  0.00     0.150 C 
ENDBRANCH  10  14
ENDBRANCH   4   7
BRANCH   1  20
HETATM   20  C   UNL     1     -42.335 -54.135  13.783  1.00  0.00     0.154 C 
BRANCH  20  21
HETATM   21  C   UNL     1     -43.267 -54.050  15.013  1.00  0.00     0.292 C 
BRANCH  21  22
HETATM   22  N   UNL     1     -44.569 -53.401  14.739  1.00  0.00     0.090 N 
HETATM   23  C   UNL     1     -45.011 -53.587  13.352  1.00  0.00     0.272 C 
HETATM   24  C   UNL     1     -46.369 -52.936  13.090  1.00  0.00     0.031 C 
HETATM   25  C   UNL     1     -46.365 -51.460  13.470  1.00  0.00     0.007 C 
HETATM   26  C   UNL     1     -45.851 -51.252  14.898  1.00  0.00     0.010 C 
HETATM   27  C   UNL     1     -46.879 -51.710  15.939  1.00  0.00     0.011 C 
HETATM   28  C   UNL     1     -44.499 -51.967  15.081  1.00  0.00     0.276 C 
ENDBRANCH  21  22
ENDBRANCH  20  21
ENDBRANCH   1  20
TORSDOF 5
ENDMDL
MODEL 6
REMARK VINA RESULT:      -5.9      3.269      8.491
REMARK  5 active torsions:
REMARK  status: ('A' for Active; 'I' for Inactive)
REMARK    1  A    between atoms: N_6  and  C_7 
REMARK    2  A    between atoms: C_7  and  C_8 
REMARK    3  A    between atoms: C_8  and  N_9 
REMARK       I    between atoms: N_9  and  C_10 
REMARK       I    between atoms: C_10  and  N_12 
REMARK    4  A    between atoms: N_12  and  C_13 
REMARK    5  A    between atoms: C_16  and  N_20 
ROOT
HETATM    1  N   UNL     1     -41.527 -48.379  10.081  1.00  0.00    -0.341 N 
HETATM    2  C   UNL     1     -41.446 -49.196  11.188  1.00  0.00     0.320 C 
HETATM    3  O   UNL     1     -42.026 -48.926  12.232  1.00  0.00    -0.247 OA
HETATM    4  N   UNL     1     -40.644 -50.298  10.963  1.00  0.00    -0.308 N 
HETATM    5  H   UNL     1     -41.437 -48.848   9.192  1.00  0.00     0.164 HD
HETATM    6  H   UNL     1     -39.951 -50.202  10.237  1.00  0.00     0.170 HD
ENDROOT
BRANCH   4   7
HETATM    7  C   UNL     1     -40.479 -51.345  11.897  1.00  0.00     0.051 A 
HETATM    8  C   UNL     1     -41.304 -52.456  11.913  1.00  0.00     0.035 A 
HETATM    9  C   UNL     1     -41.169 -53.403  12.918  1.00  0.00     0.051 A 
HETATM   10  C   UNL     1     -40.190 -53.263  13.897  1.00  0.00     0.103 A 
HETATM   11  N   UNL     1     -39.301 -52.248  13.834  1.00  0.00    -0.350 N 
HETATM   12  C   UNL     1     -39.471 -51.311  12.857  1.00  0.00     0.119 A 
ATOM     13  HN  UNL     1     -38.527 -52.184  14.495  1.00  0.00     0.166 HD
BRANCH  10  14
HETATM   14  N   UNL     1     -40.112 -54.194  14.900  1.00  0.00    -0.363 N 
HETATM   15  C   UNL     1     -41.295 -54.738  15.553  1.00  0.00     0.150 C 
HETATM   16  C   UNL     1     -41.002 -54.768  17.070  1.00  0.00     0.187 C 
HETATM   17  O   UNL     1     -39.795 -55.497  17.382  1.00  0.00    -0.388 OA
HETATM   18  C   UNL     1     -38.661 -54.930  16.698  1.00  0.00     0.187 C 
HETATM   19  C   UNL     1     -38.877 -54.929  15.179  1.00  0.00     0.150 C 
ENDBRANCH  10  14
ENDBRANCH   4   7
BRANCH   1  20
HETATM   20  C   UNL     1     -42.439 -47.243  10.127  1.00  0.00     0.154 C 
BRANCH  20  21
HETATM   21  C   UNL     1     -41.714 -45.878  10.091  1.00  0.00     0.292 C 
BRANCH  21  22
HETATM   22  N   UNL     1     -41.248 -45.408  11.414  1.00  0.00     0.090 N 
HETATM   23  C   UNL     1     -42.319 -45.392  12.417  1.00  0.00     0.272 C 
HETATM   24  C   UNL     1     -41.817 -44.931  13.786  1.00  0.00     0.031 C 
HETATM   25  C   UNL     1     -41.127 -43.575  13.701  1.00  0.00     0.007 C 
HETATM   26  C   UNL     1     -40.044 -43.566  12.617  1.00  0.00     0.010 C 
HETATM   27  C   UNL     1     -38.814 -44.375  13.042  1.00  0.00     0.011 C 
HETATM   28  C   UNL     1     -40.628 -44.074  11.285  1.00  0.00     0.276 C 
ENDBRANCH  21  22
ENDBRANCH  20  21
ENDBRANCH   1  20
TORSDOF 5
ENDMDL
MODEL 7
REMARK VINA RESULT:      -5.9      2.902      4.880
REMARK  5 active torsions:
REMARK  status: ('A' for Active; 'I' for Inactive)
REMARK    1  A    between atoms: N_6  and  C_7 
REMARK    2  A    between atoms: C_7  and  C_8 
REMARK    3  A    between atoms: C_8  and  N_9 
REMARK       I    between atoms: N_9  and  C_10 
REMARK       I    between atoms: C_10  and  N_12 
REMARK    4  A    between atoms: N_12  and  C_13 
REMARK    5  A    between atoms: C_16  and  N_20 
ROOT
HETATM    1  N   UNL     1     -40.760 -49.214  10.664  1.00  0.00    -0.341 N 
HETATM    2  C   UNL     1     -41.347 -48.033  11.063  1.00  0.00     0.320 C 
HETATM    3  O   UNL     1     -42.130 -47.988  12.004  1.00  0.00    -0.247 OA
HETATM    4  N   UNL     1     -40.955 -46.966  10.278  1.00  0.00    -0.308 N 
HETATM    5  H   UNL     1     -39.849 -49.121  10.241  1.00  0.00     0.164 HD
HETATM    6  H   UNL     1     -40.636 -47.192   9.349  1.00  0.00     0.170 HD
ENDROOT
BRANCH   4   7
HETATM    7  C   UNL     1     -41.327 -45.628  10.540  1.00  0.00     0.051 A 
HETATM    8  C   UNL     1     -40.396 -44.650  10.842  1.00  0.00     0.035 A 
HETATM    9  C   UNL     1     -40.821 -43.377  11.198  1.00  0.00     0.051 A 
HETATM   10  C   UNL     1     -42.177 -43.065  11.225  1.00  0.00     0.103 A 
HETATM   11  N   UNL     1     -43.095 -43.971  10.822  1.00  0.00    -0.350 N 
HETATM   12  C   UNL     1     -42.659 -45.224  10.508  1.00  0.00     0.119 A 
ATOM     13  HN  UNL     1     -44.083 -43.725  10.755  1.00  0.00     0.166 HD
BRANCH  10  14
HETATM   14  N   UNL     1     -42.565 -41.811  11.623  1.00  0.00    -0.363 N 
HETATM   15  C   UNL     1     -41.609 -40.739  11.863  1.00  0.00     0.150 C 
HETATM   16  C   UNL     1     -42.040 -40.032  13.168  1.00  0.00     0.187 C 
HETATM   17  O   UNL     1     -43.408 -39.572  13.116  1.00  0.00    -0.388 OA
HETATM   18  C   UNL     1     -44.309 -40.667  12.858  1.00  0.00     0.187 C 
HETATM   19  C   UNL     1     -43.958 -41.370  11.540  1.00  0.00     0.150 C 
ENDBRANCH  10  14
ENDBRANCH   4   7
BRANCH   1  20
HETATM   20  C   UNL     1     -40.981 -50.403  11.476  1.00  0.00     0.154 C 
BRANCH  20  21
HETATM   21  C   UNL     1     -39.762 -50.783  12.346  1.00  0.00     0.292 C 
BRANCH  21  22
HETATM   22  N   UNL     1     -40.027 -51.873  13.312  1.00  0.00     0.090 N 
HETATM   23  C   UNL     1     -38.821 -52.287  14.040  1.00  0.00     0.272 C 
HETATM   24  C   UNL     1     -39.114 -53.393  15.053  1.00  0.00     0.031 C 
HETATM   25  C   UNL     1     -39.794 -54.588  14.396  1.00  0.00     0.007 C 
HETATM   26  C   UNL     1     -41.022 -54.158  13.587  1.00  0.00     0.010 C 
HETATM   27  C   UNL     1     -42.187 -53.760  14.500  1.00  0.00     0.011 C 
HETATM   28  C   UNL     1     -40.643 -53.021  12.619  1.00  0.00     0.276 C 
ENDBRANCH  21  22
ENDBRANCH  20  21
ENDBRANCH   1  20
TORSDOF 5
ENDMDL
MODEL 8
REMARK VINA RESULT:      -5.7      2.247      8.983
REMARK  5 active torsions:
REMARK  status: ('A' for Active; 'I' for Inactive)
REMARK    1  A    between atoms: N_6  and  C_7 
REMARK    2  A    between atoms: C_7  and  C_8 
REMARK    3  A    between atoms: C_8  and  N_9 
REMARK       I    between atoms: N_9  and  C_10 
REMARK       I    between atoms: C_10  and  N_12 
REMARK    4  A    between atoms: N_12  and  C_13 
REMARK    5  A    between atoms: C_16  and  N_20 
ROOT
HETATM    1  N   UNL     1     -40.117 -46.658  10.623  1.00  0.00    -0.341 N 
HETATM    2  C   UNL     1     -40.318 -47.726  11.470  1.00  0.00     0.320 C 
HETATM    3  O   UNL     1     -39.953 -47.699  12.639  1.00  0.00    -0.247 OA
HETATM    4  N   UNL     1     -40.945 -48.781  10.836  1.00  0.00    -0.308 N 
HETATM    5  H   UNL     1     -40.799 -46.557   9.887  1.00  0.00     0.164 HD
HETATM    6  H   UNL     1     -40.841 -48.822   9.834  1.00  0.00     0.170 HD
ENDROOT
BRANCH   4   7
HETATM    7  C   UNL     1     -41.363 -49.954  11.504  1.00  0.00     0.051 A 
HETATM    8  C   UNL     1     -40.596 -51.105  11.523  1.00  0.00     0.035 A 
HETATM    9  C   UNL     1     -41.100 -52.263  12.099  1.00  0.00     0.051 A 
HETATM   10  C   UNL     1     -42.360 -52.270  12.688  1.00  0.00     0.103 A 
HETATM   11  N   UNL     1     -43.077 -51.129  12.783  1.00  0.00    -0.350 N 
HETATM   12  C   UNL     1     -42.578 -50.011  12.182  1.00  0.00     0.119 A 
ATOM     13  HN  UNL     1     -43.963 -51.104  13.288  1.00  0.00     0.166 HD
BRANCH  10  14
HETATM   14  N   UNL     1     -42.846 -53.441  13.210  1.00  0.00    -0.363 N 
HETATM   15  C   UNL     1     -44.109 -54.024  12.776  1.00  0.00     0.150 C 
HETATM   16  C   UNL     1     -44.853 -54.491  14.047  1.00  0.00     0.187 C 
HETATM   17  O   UNL     1     -44.057 -55.391  14.849  1.00  0.00    -0.388 OA
HETATM   18  C   UNL     1     -42.814 -54.773  15.235  1.00  0.00     0.187 C 
HETATM   19  C   UNL     1     -42.007 -54.341  14.004  1.00  0.00     0.150 C 
ENDBRANCH  10  14
ENDBRANCH   4   7
BRANCH   1  20
HETATM   20  C   UNL     1     -39.579 -45.425  11.184  1.00  0.00     0.154 C 
BRANCH  20  21
HETATM   21  C   UNL     1     -40.005 -44.162  10.401  1.00  0.00     0.292 C 
BRANCH  21  22
HETATM   22  N   UNL     1     -40.753 -43.175  11.211  1.00  0.00     0.090 N 
HETATM   23  C   UNL     1     -40.031 -42.779  12.427  1.00  0.00     0.272 C 
HETATM   24  C   UNL     1     -40.802 -41.739  13.239  1.00  0.00     0.031 C 
HETATM   25  C   UNL     1     -42.210 -42.219  13.572  1.00  0.00     0.007 C 
HETATM   26  C   UNL     1     -42.951 -42.687  12.315  1.00  0.00     0.010 C 
HETATM   27  C   UNL     1     -43.362 -41.505  11.430  1.00  0.00     0.011 C 
HETATM   28  C   UNL     1     -42.091 -43.705  11.543  1.00  0.00     0.276 C 
ENDBRANCH  21  22
ENDBRANCH  20  21
ENDBRANCH   1  20
TORSDOF 5
ENDMDL
MODEL 9
REMARK VINA RESULT:      -5.6      4.204      9.343
REMARK  5 active torsions:
REMARK  status: ('A' for Active; 'I' for Inactive)
REMARK    1  A    between atoms: N_6  and  C_7 
REMARK    2  A    between atoms: C_7  and  C_8 
REMARK    3  A    between atoms: C_8  and  N_9 
REMARK       I    between atoms: N_9  and  C_10 
REMARK       I    between atoms: C_10  and  N_12 
REMARK    4  A    between atoms: N_12  and  C_13 
REMARK    5  A    between atoms: C_16  and  N_20 
ROOT
HETATM    1  N   UNL     1     -40.805 -50.990  11.339  1.00  0.00    -0.341 N 
HETATM    2  C   UNL     1     -40.308 -51.636  12.449  1.00  0.00     0.320 C 
HETATM    3  O   UNL     1     -39.589 -51.065  13.260  1.00  0.00    -0.247 OA
HETATM    4  N   UNL     1     -40.708 -52.958  12.504  1.00  0.00    -0.308 N 
HETATM    5  H   UNL     1     -41.692 -51.332  11.001  1.00  0.00     0.164 HD
HETATM    6  H   UNL     1     -40.956 -53.383  11.624  1.00  0.00     0.170 HD
ENDROOT
BRANCH   4   7
HETATM    7  C   UNL     1     -40.426 -53.813  13.593  1.00  0.00     0.051 A 
HETATM    8  C   UNL     1     -41.388 -54.165  14.523  1.00  0.00     0.035 A 
HETATM    9  C   UNL     1     -41.034 -54.919  15.633  1.00  0.00     0.051 A 
HETATM   10  C   UNL     1     -39.723 -55.352  15.805  1.00  0.00     0.103 A 
HETATM   11  N   UNL     1     -38.794 -55.119  14.852  1.00  0.00    -0.350 N 
HETATM   12  C   UNL     1     -39.155 -54.348  13.786  1.00  0.00     0.119 A 
ATOM     13  HN  UNL     1     -37.853 -55.506  14.928  1.00  0.00     0.166 HD
BRANCH  10  14
HETATM   14  N   UNL     1     -39.397 -56.058  16.935  1.00  0.00    -0.363 N 
HETATM   15  C   UNL     1     -38.358 -55.619  17.857  1.00  0.00     0.150 C 
HETATM   16  C   UNL     1     -37.526 -56.866  18.229  1.00  0.00     0.187 C 
HETATM   17  O   UNL     1     -38.342 -57.932  18.760  1.00  0.00    -0.388 OA
HETATM   18  C   UNL     1     -39.363 -58.316  17.817  1.00  0.00     0.187 C 
HETATM   19  C   UNL     1     -40.256 -57.122  17.457  1.00  0.00     0.150 C 
ENDBRANCH  10  14
ENDBRANCH   4   7
BRANCH   1  20
HETATM   20  C   UNL     1     -40.571 -49.557  11.213  1.00  0.00     0.154 C 
BRANCH  20  21
HETATM   21  C   UNL     1     -41.803 -48.702  11.589  1.00  0.00     0.292 C 
BRANCH  21  22
HETATM   22  N   UNL     1     -41.523 -47.253  11.692  1.00  0.00     0.090 N 
HETATM   23  C   UNL     1     -40.311 -46.859  10.963  1.00  0.00     0.272 C 
HETATM   24  C   UNL     1     -40.048 -45.357  11.055  1.00  0.00     0.031 C 
HETATM   25  C   UNL     1     -39.993 -44.886  12.503  1.00  0.00     0.007 C 
HETATM   26  C   UNL     1     -41.229 -45.340  13.286  1.00  0.00     0.010 C 
HETATM   27  C   UNL     1     -42.477 -44.548  12.880  1.00  0.00     0.011 C 
HETATM   28  C   UNL     1     -41.435 -46.856  13.111  1.00  0.00     0.276 C 
ENDBRANCH  21  22
ENDBRANCH  20  21
ENDBRANCH   1  20
TORSDOF 5
ENDMDL
