MODEL 1
REMARK VINA RESULT:      -5.8      0.000      0.000
REMARK  3 active torsions:
REMARK  status: ('A' for Active; 'I' for Inactive)
REMARK    1  A    between atoms: C_2  and  N_9 
REMARK       I    between atoms: N_9  and  C_10 
REMARK    2  A    between atoms: C_10  and  C_12 
REMARK    3  A    between atoms: C_12  and  N_13 
ROOT
HETATM    1  N   UNL     1     -44.033 -53.624  14.503  1.00  0.00    -0.351 N 
HETATM    2  C   UNL     1     -43.050 -54.429  15.049  1.00  0.00     0.237 C 
HETATM    3  O   UNL     1     -43.268 -55.523  15.565  1.00  0.00    -0.272 OA
HETATM    4  H   UNL     1     -43.786 -52.679  14.229  1.00  0.00     0.163 HD
ENDROOT
BRANCH   1   5
HETATM    5  C   UNL     1     -45.474 -53.971  14.506  1.00  0.00     0.029 C 
HETATM    6  C   UNL     1     -45.655 -55.347  13.814  1.00  0.00     0.038 C 
HETATM    7  C   UNL     1     -46.063 -54.065  15.934  1.00  0.00     0.031 C 
HETATM    8  C   UNL     1     -45.733 -52.923  16.896  1.00  0.00     0.002 C 
HETATM    9  C   UNL     1     -46.402 -51.569  16.680  1.00  0.00     0.000 C 
HETATM   10  C   UNL     1     -47.157 -51.322  15.384  1.00  0.00     0.000 C 
HETATM   11  C   UNL     1     -46.342 -51.515  14.116  1.00  0.00     0.002 C 
HETATM   12  C   UNL     1     -46.258 -52.960  13.634  1.00  0.00     0.031 C 
ENDBRANCH   1   5
BRANCH   2  13
HETATM   13  C   UNL     1     -41.646 -53.879  14.980  1.00  0.00     0.249 C 
BRANCH  13  14
HETATM   14  N   UNL     1     -41.376 -53.375  13.661  1.00  0.00    -0.264 N 
HETATM   15  C   UNL     1     -40.880 -54.029  12.577  1.00  0.00     0.213 A 
HETATM   16  N   UNL     1     -40.777 -53.169  11.590  1.00  0.00    -0.281 N 
HETATM   17  N   UNL     1     -41.232 -51.970  12.085  1.00  0.00    -0.008 NA
ATOM     18  HN  UNL     1     -40.429 -53.353  10.649  1.00  0.00     0.184 HD
HETATM   19  N   UNL     1     -41.605 -52.089  13.352  1.00  0.00    -0.005 NA
ENDBRANCH  13  14
ENDBRANCH   2  13
TORSDOF 3
ENDMDL
MODEL 2
REMARK VINA RESULT:      -5.2      2.404      5.421
REMARK  3 active torsions:
REMARK  status: ('A' for Active; 'I' for Inactive)
REMARK    1  A    between atoms: C_2  and  N_9 
REMARK       I    between atoms: N_9  and  C_10 
REMARK    2  A    between atoms: C_10  and  C_12 
REMARK    3  A    between atoms: C_12  and  N_13 
ROOT
HETATM    1  N   UNL     1     -43.381 -52.129  12.686  1.00  0.00    -0.351 N 
HETATM    2  C   UNL     1     -44.502 -51.490  13.185  1.00  0.00     0.237 C 
HETATM    3  O   UNL     1     -44.460 -50.496  13.907  1.00  0.00    -0.272 OA
HETATM    4  H   UNL     1     -43.502 -53.022  12.220  1.00  0.00     0.163 HD
ENDROOT
BRANCH   1   5
HETATM    5  C   UNL     1     -41.993 -51.712  12.994  1.00  0.00     0.029 C 
HETATM    6  C   UNL     1     -41.749 -50.309  12.381  1.00  0.00     0.038 C 
HETATM    7  C   UNL     1     -41.716 -51.632  14.515  1.00  0.00     0.031 C 
HETATM    8  C   UNL     1     -42.175 -52.816  15.366  1.00  0.00     0.002 C 
HETATM    9  C   UNL     1     -41.403 -54.129  15.268  1.00  0.00     0.000 C 
HETATM   10  C   UNL     1     -40.385 -54.300  14.152  1.00  0.00     0.000 C 
HETATM   11  C   UNL     1     -40.932 -54.110  12.746  1.00  0.00     0.002 C 
HETATM   12  C   UNL     1     -40.993 -52.657  12.285  1.00  0.00     0.031 C 
ENDBRANCH   1   5
BRANCH   2  13
HETATM   13  C   UNL     1     -45.826 -52.092  12.785  1.00  0.00     0.249 C 
BRANCH  13  14
HETATM   14  N   UNL     1     -46.013 -53.358  13.441  1.00  0.00    -0.264 N 
HETATM   15  C   UNL     1     -46.847 -53.679  14.465  1.00  0.00     0.213 A 
HETATM   16  N   UNL     1     -46.668 -54.947  14.760  1.00  0.00    -0.281 N 
HETATM   17  N   UNL     1     -45.711 -55.405  13.885  1.00  0.00    -0.008 NA
ATOM     18  HN  UNL     1     -47.141 -55.481  15.488  1.00  0.00     0.184 HD
HETATM   19  N   UNL     1     -45.307 -54.439  13.072  1.00  0.00    -0.005 NA
ENDBRANCH  13  14
ENDBRANCH   2  13
TORSDOF 3
ENDMDL
MODEL 3
REMARK VINA RESULT:      -5.1      2.306      2.875
REMARK  3 active torsions:
REMARK  status: ('A' for Active; 'I' for Inactive)
REMARK    1  A    between atoms: C_2  and  N_9 
REMARK       I    between atoms: N_9  and  C_10 
REMARK    2  A    between atoms: C_10  and  C_12 
REMARK    3  A    between atoms: C_12  and  N_13 
ROOT
HETATM    1  N   UNL     1     -42.719 -52.417  14.220  1.00  0.00    -0.351 N 
HETATM    2  C   UNL     1     -41.631 -52.517  13.371  1.00  0.00     0.237 C 
HETATM    3  O   UNL     1     -41.428 -53.475  12.628  1.00  0.00    -0.272 OA
HETATM    4  H   UNL     1     -42.733 -51.664  14.899  1.00  0.00     0.163 HD
ENDROOT
BRANCH   1   5
HETATM    5  C   UNL     1     -43.750 -53.471  14.360  1.00  0.00     0.029 C 
HETATM    6  C   UNL     1     -43.055 -54.798  14.759  1.00  0.00     0.038 C 
HETATM    7  C   UNL     1     -44.808 -53.133  15.440  1.00  0.00     0.031 C 
HETATM    8  C   UNL     1     -45.406 -51.727  15.407  1.00  0.00     0.002 C 
HETATM    9  C   UNL     1     -46.392 -51.378  14.296  1.00  0.00     0.000 C 
HETATM   10  C   UNL     1     -46.543 -52.333  13.122  1.00  0.00     0.000 C 
HETATM   11  C   UNL     1     -45.259 -52.636  12.368  1.00  0.00     0.002 C 
HETATM   12  C   UNL     1     -44.411 -53.744  12.986  1.00  0.00     0.031 C 
ENDBRANCH   1   5
BRANCH   2  13
HETATM   13  C   UNL     1     -40.672 -51.353  13.401  1.00  0.00     0.249 C 
BRANCH  13  14
HETATM   14  N   UNL     1     -41.001 -50.413  12.364  1.00  0.00    -0.264 N 
HETATM   15  C   UNL     1     -40.278 -50.053  11.271  1.00  0.00     0.213 A 
HETATM   16  N   UNL     1     -40.957 -49.145  10.609  1.00  0.00    -0.281 N 
HETATM   17  N   UNL     1     -42.125 -48.960  11.311  1.00  0.00    -0.008 NA
ATOM     18  HN  UNL     1     -40.676 -48.672   9.750  1.00  0.00     0.184 HD
HETATM   19  N   UNL     1     -42.161 -49.736  12.386  1.00  0.00    -0.005 NA
ENDBRANCH  13  14
ENDBRANCH   2  13
TORSDOF 3
ENDMDL
MODEL 4
REMARK VINA RESULT:      -5.1      2.727      3.331
REMARK  3 active torsions:
REMARK  status: ('A' for Active; 'I' for Inactive)
REMARK    1  A    between atoms: C_2  and  N_9 
REMARK       I    between atoms: N_9  and  C_10 
REMARK    2  A    between atoms: C_10  and  C_12 
REMARK    3  A    between atoms: C_12  and  N_13 
ROOT
HETATM    1  N   UNL     1     -42.538 -51.848  13.469  1.00  0.00    -0.351 N 
HETATM    2  C   UNL     1     -41.789 -51.788  12.308  1.00  0.00     0.237 C 
HETATM    3  O   UNL     1     -41.710 -52.707  11.495  1.00  0.00    -0.272 OA
HETATM    4  H   UNL     1     -42.433 -51.104  14.150  1.00  0.00     0.163 HD
ENDROOT
BRANCH   1   5
HETATM    5  C   UNL     1     -43.308 -53.043  13.889  1.00  0.00     0.029 C 
HETATM    6  C   UNL     1     -42.329 -54.233  14.051  1.00  0.00     0.038 C 
HETATM    7  C   UNL     1     -44.047 -52.835  15.234  1.00  0.00     0.031 C 
HETATM    8  C   UNL     1     -44.840 -51.539  15.396  1.00  0.00     0.002 C 
HETATM    9  C   UNL     1     -46.147 -51.381  14.624  1.00  0.00     0.000 C 
HETATM   10  C   UNL     1     -46.481 -52.385  13.532  1.00  0.00     0.000 C 
HETATM   11  C   UNL     1     -45.439 -52.513  12.433  1.00  0.00     0.002 C 
HETATM   12  C   UNL     1     -44.287 -53.457  12.763  1.00  0.00     0.031 C 
ENDBRANCH   1   5
BRANCH   2  13
HETATM   13  C   UNL     1     -41.046 -50.495  12.078  1.00  0.00     0.249 C 
BRANCH  13  14
HETATM   14  N   UNL     1     -39.631 -50.704  12.228  1.00  0.00    -0.264 N 
HETATM   15  C   UNL     1     -38.599 -50.024  11.662  1.00  0.00     0.213 A 
HETATM   16  N   UNL     1     -37.476 -50.574  12.061  1.00  0.00    -0.281 N 
HETATM   17  N   UNL     1     -37.837 -51.604  12.899  1.00  0.00    -0.008 NA
ATOM     18  HN  UNL     1     -36.529 -50.296  11.804  1.00  0.00     0.184 HD
HETATM   19  N   UNL     1     -39.156 -51.687  13.009  1.00  0.00    -0.005 NA
ENDBRANCH  13  14
ENDBRANCH   2  13
TORSDOF 3
ENDMDL
MODEL 5
REMARK VINA RESULT:      -5.0      6.238      8.074
REMARK  3 active torsions:
REMARK  status: ('A' for Active; 'I' for Inactive)
REMARK    1  A    between atoms: C_2  and  N_9 
REMARK       I    between atoms: N_9  and  C_10 
REMARK    2  A    between atoms: C_10  and  C_12 
REMARK    3  A    between atoms: C_12  and  N_13 
ROOT
HETATM    1  N   UNL     1     -41.474 -49.143  11.198  1.00  0.00    -0.351 N 
HETATM    2  C   UNL     1     -42.455 -48.218  10.890  1.00  0.00     0.237 C 
HETATM    3  O   UNL     1     -43.205 -47.712  11.722  1.00  0.00    -0.272 OA
HETATM    4  H   UNL     1     -40.999 -49.615  10.436  1.00  0.00     0.163 HD
ENDROOT
BRANCH   1   5
HETATM    5  C   UNL     1     -41.233 -49.660  12.565  1.00  0.00     0.029 C 
HETATM    6  C   UNL     1     -42.536 -50.322  13.083  1.00  0.00     0.038 C 
HETATM    7  C   UNL     1     -40.100 -50.715  12.615  1.00  0.00     0.031 C 
HETATM    8  C   UNL     1     -38.804 -50.375  11.879  1.00  0.00     0.002 C 
HETATM    9  C   UNL     1     -37.881 -49.317  12.477  1.00  0.00     0.000 C 
HETATM   10  C   UNL     1     -38.393 -48.458  13.622  1.00  0.00     0.000 C 
HETATM   11  C   UNL     1     -39.667 -47.683  13.327  1.00  0.00     0.002 C 
HETATM   12  C   UNL     1     -40.952 -48.481  13.529  1.00  0.00     0.031 C 
ENDBRANCH   1   5
BRANCH   2  13
HETATM   13  C   UNL     1     -42.566 -47.848   9.432  1.00  0.00     0.249 C 
BRANCH  13  14
HETATM   14  N   UNL     1     -43.459 -46.732   9.271  1.00  0.00    -0.264 N 
HETATM   15  C   UNL     1     -44.789 -46.731   8.993  1.00  0.00     0.213 A 
HETATM   16  N   UNL     1     -45.192 -45.483   8.913  1.00  0.00    -0.281 N 
HETATM   17  N   UNL     1     -44.081 -44.712   9.162  1.00  0.00    -0.008 NA
ATOM     18  HN  UNL     1     -46.135 -45.153   8.709  1.00  0.00     0.184 HD
HETATM   19  N   UNL     1     -43.016 -45.470   9.385  1.00  0.00    -0.005 NA
ENDBRANCH  13  14
ENDBRANCH   2  13
TORSDOF 3
ENDMDL
MODEL 6
REMARK VINA RESULT:      -5.0      2.072      3.044
REMARK  3 active torsions:
REMARK  status: ('A' for Active; 'I' for Inactive)
REMARK    1  A    between atoms: C_2  and  N_9 
REMARK       I    between atoms: N_9  and  C_10 
REMARK    2  A    between atoms: C_10  and  C_12 
REMARK    3  A    between atoms: C_12  and  N_13 
ROOT
HETATM    1  N   UNL     1     -43.484 -52.282  14.389  1.00  0.00    -0.351 N 
HETATM    2  C   UNL     1     -43.047 -53.069  13.339  1.00  0.00     0.237 C 
HETATM    3  O   UNL     1     -43.236 -52.798  12.155  1.00  0.00    -0.272 OA
HETATM    4  H   UNL     1     -43.412 -52.651  15.331  1.00  0.00     0.163 HD
ENDROOT
BRANCH   1   5
HETATM    5  C   UNL     1     -44.262 -51.034  14.211  1.00  0.00     0.029 C 
HETATM    6  C   UNL     1     -43.440 -50.056  13.334  1.00  0.00     0.038 C 
HETATM    7  C   UNL     1     -45.628 -51.274  13.522  1.00  0.00     0.031 C 
HETATM    8  C   UNL     1     -46.480 -52.426  14.054  1.00  0.00     0.002 C 
HETATM    9  C   UNL     1     -47.163 -52.265  15.409  1.00  0.00     0.000 C 
HETATM   10  C   UNL     1     -46.769 -51.093  16.295  1.00  0.00     0.000 C 
HETATM   11  C   UNL     1     -45.290 -51.012  16.637  1.00  0.00     0.002 C 
HETATM   12  C   UNL     1     -44.434 -50.325  15.577  1.00  0.00     0.031 C 
ENDBRANCH   1   5
BRANCH   2  13
HETATM   13  C   UNL     1     -42.303 -54.322  13.729  1.00  0.00     0.249 C 
BRANCH  13  14
HETATM   14  N   UNL     1     -40.932 -54.008  14.034  1.00  0.00    -0.264 N 
HETATM   15  C   UNL     1     -40.291 -54.040  15.231  1.00  0.00     0.213 A 
HETATM   16  N   UNL     1     -39.050 -53.653  15.043  1.00  0.00    -0.281 N 
HETATM   17  N   UNL     1     -38.935 -53.393  13.698  1.00  0.00    -0.008 NA
ATOM     18  HN  UNL     1     -38.320 -53.563  15.750  1.00  0.00     0.184 HD
HETATM   19  N   UNL     1     -40.084 -53.611  13.072  1.00  0.00    -0.005 NA
ENDBRANCH  13  14
ENDBRANCH   2  13
TORSDOF 3
ENDMDL
MODEL 7
REMARK VINA RESULT:      -5.0      1.703      2.542
REMARK  3 active torsions:
REMARK  status: ('A' for Active; 'I' for Inactive)
REMARK    1  A    between atoms: C_2  and  N_9 
REMARK       I    between atoms: N_9  and  C_10 
REMARK    2  A    between atoms: C_10  and  C_12 
REMARK    3  A    between atoms: C_12  and  N_13 
ROOT
HETATM    1  N   UNL     1     -44.574 -52.144  13.397  1.00  0.00    -0.351 N 
HETATM    2  C   UNL     1     -43.772 -53.004  12.669  1.00  0.00     0.237 C 
HETATM    3  O   UNL     1     -44.190 -53.996  12.077  1.00  0.00    -0.272 OA
HETATM    4  H   UNL     1     -44.128 -51.435  13.970  1.00  0.00     0.163 HD
ENDROOT
BRANCH   1   5
HETATM    5  C   UNL     1     -46.032 -52.337  13.577  1.00  0.00     0.029 C 
HETATM    6  C   UNL     1     -46.728 -52.187  12.200  1.00  0.00     0.038 C 
HETATM    7  C   UNL     1     -46.385 -53.731  14.150  1.00  0.00     0.031 C 
HETATM    8  C   UNL     1     -45.576 -54.210  15.356  1.00  0.00     0.002 C 
HETATM    9  C   UNL     1     -45.832 -53.559  16.712  1.00  0.00     0.000 C 
HETATM   10  C   UNL     1     -46.676 -52.296  16.772  1.00  0.00     0.000 C 
HETATM   11  C   UNL     1     -46.172 -51.142  15.921  1.00  0.00     0.002 C 
HETATM   12  C   UNL     1     -46.606 -51.200  14.459  1.00  0.00     0.031 C 
ENDBRANCH   1   5
BRANCH   2  13
HETATM   13  C   UNL     1     -42.304 -52.654  12.637  1.00  0.00     0.249 C 
BRANCH  13  14
HETATM   14  N   UNL     1     -41.602 -53.368  13.669  1.00  0.00    -0.264 N 
HETATM   15  C   UNL     1     -40.433 -54.058  13.591  1.00  0.00     0.213 A 
HETATM   16  N   UNL     1     -40.179 -54.571  14.774  1.00  0.00    -0.281 N 
HETATM   17  N   UNL     1     -41.213 -54.171  15.588  1.00  0.00    -0.008 NA
ATOM     18  HN  UNL     1     -39.380 -55.147  15.035  1.00  0.00     0.184 HD
HETATM   19  N   UNL     1     -42.087 -53.432  14.919  1.00  0.00    -0.005 NA
ENDBRANCH  13  14
ENDBRANCH   2  13
TORSDOF 3
ENDMDL
MODEL 8
REMARK VINA RESULT:      -4.9      1.572      2.492
REMARK  3 active torsions:
REMARK  status: ('A' for Active; 'I' for Inactive)
REMARK    1  A    between atoms: C_2  and  N_9 
REMARK       I    between atoms: N_9  and  C_10 
REMARK    2  A    between atoms: C_10  and  C_12 
REMARK    3  A    between atoms: C_12  and  N_13 
ROOT
HETATM    1  N   UNL     1     -43.048 -53.096  14.347  1.00  0.00    -0.351 N 
HETATM    2  C   UNL     1     -42.114 -54.114  14.274  1.00  0.00     0.237 C 
HETATM    3  O   UNL     1     -41.860 -54.879  15.201  1.00  0.00    -0.272 OA
HETATM    4  H   UNL     1     -43.090 -52.424  13.588  1.00  0.00     0.163 HD
ENDROOT
BRANCH   1   5
HETATM    5  C   UNL     1     -43.830 -52.785  15.567  1.00  0.00     0.029 C 
HETATM    6  C   UNL     1     -42.870 -52.784  16.785  1.00  0.00     0.038 C 
HETATM    7  C   UNL     1     -44.526 -51.404  15.496  1.00  0.00     0.031 C 
HETATM    8  C   UNL     1     -45.288 -51.078  14.211  1.00  0.00     0.002 C 
HETATM    9  C   UNL     1     -46.612 -51.789  13.947  1.00  0.00     0.000 C 
HETATM   10  C   UNL     1     -46.997 -52.973  14.821  1.00  0.00     0.000 C 
HETATM   11  C   UNL     1     -45.989 -54.110  14.845  1.00  0.00     0.002 C 
HETATM   12  C   UNL     1     -44.848 -53.920  15.840  1.00  0.00     0.031 C 
ENDBRANCH   1   5
BRANCH   2  13
HETATM   13  C   UNL     1     -41.395 -54.244  12.954  1.00  0.00     0.249 C 
BRANCH  13  14
HETATM   14  N   UNL     1     -40.661 -53.041  12.669  1.00  0.00    -0.264 N 
HETATM   15  C   UNL     1     -40.982 -52.017  11.835  1.00  0.00     0.213 A 
HETATM   16  N   UNL     1     -40.007 -51.137  11.869  1.00  0.00    -0.281 N 
HETATM   17  N   UNL     1     -39.081 -51.635  12.755  1.00  0.00    -0.008 NA
ATOM     18  HN  UNL     1     -39.949 -50.264  11.346  1.00  0.00     0.184 HD
HETATM   19  N   UNL     1     -39.476 -52.800  13.252  1.00  0.00    -0.005 NA
ENDBRANCH  13  14
ENDBRANCH   2  13
TORSDOF 3
ENDMDL
MODEL 9
REMARK VINA RESULT:      -4.8     16.454     17.578
REMARK  3 active torsions:
REMARK  status: ('A' for Active; 'I' for Inactive)
REMARK    1  A    between atoms: C_2  and  N_9 
REMARK       I    between atoms: N_9  and  C_10 
REMARK    2  A    between atoms: C_10  and  C_12 
REMARK    3  A    between atoms: C_12  and  N_13 
ROOT
HETATM    1  N   UNL     1     -48.875 -52.232  -2.402  1.00  0.00    -0.351 N 
HETATM    2  C   UNL     1     -47.951 -51.236  -2.146  1.00  0.00     0.237 C 
HETATM    3  O   UNL     1     -47.452 -51.031  -1.041  1.00  0.00    -0.272 OA
HETATM    4  H   UNL     1     -49.341 -52.239  -3.303  1.00  0.00     0.163 HD
ENDROOT
BRANCH   1   5
HETATM    5  C   UNL     1     -49.400 -53.152  -1.365  1.00  0.00     0.029 C 
HETATM    6  C   UNL     1     -48.223 -53.986  -0.799  1.00  0.00     0.038 C 
HETATM    7  C   UNL     1     -50.075 -52.404  -0.189  1.00  0.00     0.031 C 
HETATM    8  C   UNL     1     -51.066 -51.297  -0.549  1.00  0.00     0.002 C 
HETATM    9  C   UNL     1     -52.428 -51.693  -1.113  1.00  0.00     0.000 C 
HETATM   10  C   UNL     1     -52.655 -53.134  -1.542  1.00  0.00     0.000 C 
HETATM   11  C   UNL     1     -51.680 -53.657  -2.584  1.00  0.00     0.002 C 
HETATM   12  C   UNL     1     -50.364 -54.176  -2.012  1.00  0.00     0.031 C 
ENDBRANCH   1   5
BRANCH   2  13
HETATM   13  C   UNL     1     -47.572 -50.380  -3.329  1.00  0.00     0.249 C 
BRANCH  13  14
HETATM   14  N   UNL     1     -46.349 -50.859  -3.914  1.00  0.00    -0.264 N 
HETATM   15  C   UNL     1     -45.460 -50.201  -4.705  1.00  0.00     0.213 A 
HETATM   16  N   UNL     1     -44.499 -51.035  -5.027  1.00  0.00    -0.281 N 
HETATM   17  N   UNL     1     -44.807 -52.223  -4.407  1.00  0.00    -0.008 NA
ATOM     18  HN  UNL     1     -43.690 -50.843  -5.617  1.00  0.00     0.184 HD
HETATM   19  N   UNL     1     -45.937 -52.122  -3.720  1.00  0.00    -0.005 NA
ENDBRANCH  13  14
ENDBRANCH   2  13
TORSDOF 3
ENDMDL
