MODEL 1
REMARK VINA RESULT:      -6.3      0.000      0.000
REMARK  7 active torsions:
REMARK  status: ('A' for Active; 'I' for Inactive)
REMARK    1  A    between atoms: O_2  and  C_3 
REMARK    2  A    between atoms: C_3  and  C_4 
REMARK    3  A    between atoms: C_4  and  N_5 
REMARK    4  A    between atoms: C_6  and  N_7 
REMARK    5  A    between atoms: C_8  and  N_9 
REMARK    6  A    between atoms: N_9  and  C_10 
REMARK       I    between atoms: N_9  and  C_17 
REMARK    7  A    between atoms: C_10  and  C_11 
ROOT
HETATM    1  N   UNL     1     -41.017 -47.707  11.326  1.00  0.00    -0.286 N 
HETATM    2  C   UNL     1     -40.284 -48.894  11.433  1.00  0.00     0.117 C 
HETATM    3  C   UNL     1     -39.405 -49.057  12.451  1.00  0.00     0.145 C 
HETATM    4  C   UNL     1     -39.015 -47.831  13.204  1.00  0.00     0.279 C 
HETATM    5  O   UNL     1     -37.903 -47.704  13.710  1.00  0.00    -0.265 OA
HETATM    6  N   UNL     1     -39.939 -46.833  13.211  1.00  0.00    -0.273 N 
HETATM    7  C   UNL     1     -40.876 -46.661  12.238  1.00  0.00     0.330 C 
HETATM    8  O   UNL     1     -41.502 -45.603  12.188  1.00  0.00    -0.246 OA
HETATM    9  H   UNL     1     -39.703 -46.002  13.731  1.00  0.00     0.173 HD
ENDROOT
BRANCH   3  10
HETATM   10  N   UNL     1     -38.802 -50.266  12.776  1.00  0.00    -0.306 N 
HETATM   11  C   UNL     1     -37.658 -50.765  12.174  1.00  0.00     0.220 C 
HETATM   12  O   UNL     1     -37.099 -51.792  12.570  1.00  0.00    -0.273 OA
HETATM   13  C   UNL     1     -37.145 -50.103  10.917  1.00  0.00     0.117 C 
BRANCH  10  14
HETATM   14  C   UNL     1     -39.376 -51.027  13.905  1.00  0.00     0.171 C 
BRANCH  14  15
HETATM   15  C   UNL     1     -40.530 -51.964  13.586  1.00  0.00    -0.040 A 
HETATM   16  C   UNL     1     -40.256 -53.327  13.364  1.00  0.00     0.009 A 
HETATM   17  C   UNL     1     -41.278 -54.230  13.054  1.00  0.00     0.001 A 
HETATM   18  C   UNL     1     -42.596 -53.791  12.982  1.00  0.00     0.000 A 
HETATM   19  C   UNL     1     -42.893 -52.460  13.268  1.00  0.00     0.001 A 
HETATM   20  C   UNL     1     -41.870 -51.557  13.583  1.00  0.00     0.009 A 
ENDBRANCH  14  15
ENDBRANCH  10  14
ENDBRANCH   3  10
BRANCH   2  21
HETATM   21  N   UNL     1     -40.445 -49.903  10.489  1.00  0.00    -0.286 NA
HETATM   22  H   UNL     1     -39.555 -50.361  10.298  1.00  0.00     0.125 HD
HETATM   23  H   UNL     1     -41.129 -50.600  10.783  1.00  0.00     0.125 HD
ENDBRANCH   2  21
BRANCH   1  24
HETATM   24  C   UNL     1     -42.059 -47.557  10.290  1.00  0.00     0.161 C 
BRANCH  24  25
HETATM   25  C   UNL     1     -43.486 -47.870  10.765  1.00  0.00     0.187 C 
BRANCH  25  26
HETATM   26  O   UNL     1     -44.420 -47.522   9.737  1.00  0.00    -0.394 OA
HETATM   27  C   UNL     1     -43.805 -47.551   8.452  1.00  0.00     0.201 C 
ENDBRANCH  25  26
ENDBRANCH  24  25
ENDBRANCH   1  24
TORSDOF 7
ENDMDL
MODEL 2
REMARK VINA RESULT:      -6.2      2.150      2.721
REMARK  7 active torsions:
REMARK  status: ('A' for Active; 'I' for Inactive)
REMARK    1  A    between atoms: O_2  and  C_3 
REMARK    2  A    between atoms: C_3  and  C_4 
REMARK    3  A    between atoms: C_4  and  N_5 
REMARK    4  A    between atoms: C_6  and  N_7 
REMARK    5  A    between atoms: C_8  and  N_9 
REMARK    6  A    between atoms: N_9  and  C_10 
REMARK       I    between atoms: N_9  and  C_17 
REMARK    7  A    between atoms: C_10  and  C_11 
ROOT
HETATM    1  N   UNL     1     -41.940 -48.796  11.430  1.00  0.00    -0.286 N 
HETATM    2  C   UNL     1     -41.032 -49.848  11.593  1.00  0.00     0.117 C 
HETATM    3  C   UNL     1     -41.146 -50.680  12.657  1.00  0.00     0.145 C 
HETATM    4  C   UNL     1     -42.019 -50.224  13.776  1.00  0.00     0.279 C 
HETATM    5  O   UNL     1     -41.795 -50.532  14.944  1.00  0.00    -0.265 OA
HETATM    6  N   UNL     1     -43.021 -49.375  13.424  1.00  0.00    -0.273 N 
HETATM    7  C   UNL     1     -42.976 -48.559  12.334  1.00  0.00     0.330 C 
HETATM    8  O   UNL     1     -43.800 -47.653  12.229  1.00  0.00    -0.246 OA
HETATM    9  H   UNL     1     -43.636 -49.070  14.163  1.00  0.00     0.173 HD
ENDROOT
BRANCH   3  10
HETATM   10  N   UNL     1     -40.448 -51.874  12.793  1.00  0.00    -0.306 N 
HETATM   11  C   UNL     1     -39.263 -52.020  13.497  1.00  0.00     0.220 C 
HETATM   12  O   UNL     1     -38.736 -53.122  13.679  1.00  0.00    -0.273 OA
HETATM   13  C   UNL     1     -38.525 -50.784  13.953  1.00  0.00     0.117 C 
BRANCH  10  14
HETATM   14  C   UNL     1     -41.062 -53.087  12.216  1.00  0.00     0.171 C 
BRANCH  14  15
HETATM   15  C   UNL     1     -42.244 -53.682  12.963  1.00  0.00    -0.040 A 
HETATM   16  C   UNL     1     -42.012 -54.342  14.185  1.00  0.00     0.009 A 
HETATM   17  C   UNL     1     -43.061 -54.921  14.907  1.00  0.00     0.001 A 
HETATM   18  C   UNL     1     -44.365 -54.829  14.432  1.00  0.00     0.000 A 
HETATM   19  C   UNL     1     -44.622 -54.119  13.261  1.00  0.00     0.001 A 
HETATM   20  C   UNL     1     -43.572 -53.536  12.541  1.00  0.00     0.009 A 
ENDBRANCH  14  15
ENDBRANCH  10  14
ENDBRANCH   3  10
BRANCH   2  21
HETATM   21  N   UNL     1     -40.005 -50.034  10.675  1.00  0.00    -0.286 NA
HETATM   22  H   UNL     1     -39.098 -49.933  11.126  1.00  0.00     0.125 HD
HETATM   23  H   UNL     1     -40.057 -50.945  10.219  1.00  0.00     0.125 HD
ENDBRANCH   2  21
BRANCH   1  24
HETATM   24  C   UNL     1     -41.901 -47.950  10.220  1.00  0.00     0.161 C 
BRANCH  24  25
HETATM   25  C   UNL     1     -41.303 -46.552  10.435  1.00  0.00     0.187 C 
BRANCH  25  26
HETATM   26  O   UNL     1     -42.122 -45.576   9.782  1.00  0.00    -0.394 OA
HETATM   27  C   UNL     1     -43.185 -46.193   9.062  1.00  0.00     0.201 C 
ENDBRANCH  25  26
ENDBRANCH  24  25
ENDBRANCH   1  24
TORSDOF 7
ENDMDL
MODEL 3
REMARK VINA RESULT:      -5.7      3.168      6.064
REMARK  7 active torsions:
REMARK  status: ('A' for Active; 'I' for Inactive)
REMARK    1  A    between atoms: O_2  and  C_3 
REMARK    2  A    between atoms: C_3  and  C_4 
REMARK    3  A    between atoms: C_4  and  N_5 
REMARK    4  A    between atoms: C_6  and  N_7 
REMARK    5  A    between atoms: C_8  and  N_9 
REMARK    6  A    between atoms: N_9  and  C_10 
REMARK       I    between atoms: N_9  and  C_17 
REMARK    7  A    between atoms: C_10  and  C_11 
ROOT
HETATM    1  N   UNL     1     -44.026 -51.734  13.029  1.00  0.00    -0.286 N 
HETATM    2  C   UNL     1     -42.998 -50.789  13.106  1.00  0.00     0.117 C 
HETATM    3  C   UNL     1     -41.770 -51.084  12.614  1.00  0.00     0.145 C 
HETATM    4  C   UNL     1     -41.489 -52.519  12.328  1.00  0.00     0.279 C 
HETATM    5  O   UNL     1     -40.361 -52.995  12.433  1.00  0.00    -0.265 OA
HETATM    6  N   UNL     1     -42.577 -53.279  12.034  1.00  0.00    -0.273 N 
HETATM    7  C   UNL     1     -43.839 -52.993  12.461  1.00  0.00     0.330 C 
HETATM    8  O   UNL     1     -44.713 -53.854  12.366  1.00  0.00    -0.246 OA
HETATM    9  H   UNL     1     -42.406 -54.250  11.818  1.00  0.00     0.173 HD
ENDROOT
BRANCH   3  10
HETATM   10  N   UNL     1     -40.756 -50.151  12.436  1.00  0.00    -0.306 N 
HETATM   11  C   UNL     1     -39.814 -49.816  13.395  1.00  0.00     0.220 C 
HETATM   12  O   UNL     1     -38.867 -49.060  13.155  1.00  0.00    -0.273 OA
HETATM   13  C   UNL     1     -40.015 -50.290  14.815  1.00  0.00     0.117 C 
BRANCH  10  14
HETATM   14  C   UNL     1     -40.625 -49.540  11.097  1.00  0.00     0.171 C 
BRANCH  14  15
HETATM   15  C   UNL     1     -41.259 -48.173  10.899  1.00  0.00    -0.040 A 
HETATM   16  C   UNL     1     -42.618 -48.101  10.537  1.00  0.00     0.009 A 
HETATM   17  C   UNL     1     -43.248 -46.870  10.328  1.00  0.00     0.001 A 
HETATM   18  C   UNL     1     -42.536 -45.687  10.499  1.00  0.00     0.000 A 
HETATM   19  C   UNL     1     -41.211 -45.738  10.925  1.00  0.00     0.001 A 
HETATM   20  C   UNL     1     -40.582 -46.971  11.139  1.00  0.00     0.009 A 
ENDBRANCH  14  15
ENDBRANCH  10  14
ENDBRANCH   3  10
BRANCH   2  21
HETATM   21  N   UNL     1     -43.228 -49.552  13.698  1.00  0.00    -0.286 NA
HETATM   22  H   UNL     1     -44.093 -49.567  14.236  1.00  0.00     0.125 HD
HETATM   23  H   UNL     1     -42.459 -49.265  14.303  1.00  0.00     0.125 HD
ENDBRANCH   2  21
BRANCH   1  24
HETATM   24  C   UNL     1     -45.397 -51.390  13.458  1.00  0.00     0.161 C 
BRANCH  24  25
HETATM   25  C   UNL     1     -45.717 -51.732  14.921  1.00  0.00     0.187 C 
BRANCH  25  26
HETATM   26  O   UNL     1     -46.596 -52.861  14.968  1.00  0.00    -0.394 OA
HETATM   27  C   UNL     1     -45.996 -53.952  15.661  1.00  0.00     0.201 C 
ENDBRANCH  25  26
ENDBRANCH  24  25
ENDBRANCH   1  24
TORSDOF 7
ENDMDL
MODEL 4
REMARK VINA RESULT:      -5.7      3.120      5.207
REMARK  7 active torsions:
REMARK  status: ('A' for Active; 'I' for Inactive)
REMARK    1  A    between atoms: O_2  and  C_3 
REMARK    2  A    between atoms: C_3  and  C_4 
REMARK    3  A    between atoms: C_4  and  N_5 
REMARK    4  A    between atoms: C_6  and  N_7 
REMARK    5  A    between atoms: C_8  and  N_9 
REMARK    6  A    between atoms: N_9  and  C_10 
REMARK       I    between atoms: N_9  and  C_17 
REMARK    7  A    between atoms: C_10  and  C_11 
ROOT
HETATM    1  N   UNL     1     -41.098 -50.114  12.353  1.00  0.00    -0.286 N 
HETATM    2  C   UNL     1     -41.693 -51.377  12.278  1.00  0.00     0.117 C 
HETATM    3  C   UNL     1     -42.604 -51.751  13.210  1.00  0.00     0.145 C 
HETATM    4  C   UNL     1     -42.668 -50.932  14.454  1.00  0.00     0.279 C 
HETATM    5  O   UNL     1     -42.976 -51.419  15.539  1.00  0.00    -0.265 OA
HETATM    6  N   UNL     1     -42.274 -49.638  14.319  1.00  0.00    -0.273 N 
HETATM    7  C   UNL     1     -41.403 -49.205  13.365  1.00  0.00     0.330 C 
HETATM    8  O   UNL     1     -40.910 -48.083  13.468  1.00  0.00    -0.246 OA
HETATM    9  H   UNL     1     -42.328 -49.060  15.145  1.00  0.00     0.173 HD
ENDROOT
BRANCH   3  10
HETATM   10  N   UNL     1     -43.412 -52.877  13.104  1.00  0.00    -0.306 N 
HETATM   11  C   UNL     1     -44.778 -52.849  12.872  1.00  0.00     0.220 C 
HETATM   12  O   UNL     1     -45.435 -53.877  12.680  1.00  0.00    -0.273 OA
HETATM   13  C   UNL     1     -45.512 -51.533  12.979  1.00  0.00     0.117 C 
BRANCH  10  14
HETATM   14  C   UNL     1     -42.747 -54.195  13.156  1.00  0.00     0.171 C 
BRANCH  14  15
HETATM   15  C   UNL     1     -42.095 -54.585  14.473  1.00  0.00    -0.040 A 
HETATM   16  C   UNL     1     -42.869 -55.248  15.444  1.00  0.00     0.009 A 
HETATM   17  C   UNL     1     -42.323 -55.617  16.678  1.00  0.00     0.001 A 
HETATM   18  C   UNL     1     -40.987 -55.349  16.954  1.00  0.00     0.000 A 
HETATM   19  C   UNL     1     -40.188 -54.757  15.978  1.00  0.00     0.001 A 
HETATM   20  C   UNL     1     -40.734 -54.393  14.741  1.00  0.00     0.009 A 
ENDBRANCH  14  15
ENDBRANCH  10  14
ENDBRANCH   3  10
BRANCH   2  21
HETATM   21  N   UNL     1     -41.344 -52.257  11.260  1.00  0.00    -0.286 NA
HETATM   22  H   UNL     1     -40.791 -53.030  11.627  1.00  0.00     0.125 HD
HETATM   23  H   UNL     1     -42.160 -52.625  10.772  1.00  0.00     0.125 HD
ENDBRANCH   2  21
BRANCH   1  24
HETATM   24  C   UNL     1     -40.189 -49.647  11.286  1.00  0.00     0.161 C 
BRANCH  24  25
HETATM   25  C   UNL     1     -38.694 -49.787  11.610  1.00  0.00     0.187 C 
BRANCH  25  26
HETATM   26  O   UNL     1     -38.426 -51.114  12.076  1.00  0.00    -0.394 OA
HETATM   27  C   UNL     1     -37.732 -51.093  13.320  1.00  0.00     0.201 C 
ENDBRANCH  25  26
ENDBRANCH  24  25
ENDBRANCH   1  24
TORSDOF 7
ENDMDL
MODEL 5
REMARK VINA RESULT:      -5.6      1.692      2.952
REMARK  7 active torsions:
REMARK  status: ('A' for Active; 'I' for Inactive)
REMARK    1  A    between atoms: O_2  and  C_3 
REMARK    2  A    between atoms: C_3  and  C_4 
REMARK    3  A    between atoms: C_4  and  N_5 
REMARK    4  A    between atoms: C_6  and  N_7 
REMARK    5  A    between atoms: C_8  and  N_9 
REMARK    6  A    between atoms: N_9  and  C_10 
REMARK       I    between atoms: N_9  and  C_17 
REMARK    7  A    between atoms: C_10  and  C_11 
ROOT
HETATM    1  N   UNL     1     -40.565 -47.153  11.801  1.00  0.00    -0.286 N 
HETATM    2  C   UNL     1     -39.757 -47.980  12.589  1.00  0.00     0.117 C 
HETATM    3  C   UNL     1     -39.671 -49.304  12.310  1.00  0.00     0.145 C 
HETATM    4  C   UNL     1     -40.705 -49.867  11.396  1.00  0.00     0.279 C 
HETATM    5  O   UNL     1     -41.100 -51.026  11.494  1.00  0.00    -0.265 OA
HETATM    6  N   UNL     1     -41.242 -48.985  10.511  1.00  0.00    -0.273 N 
HETATM    7  C   UNL     1     -41.303 -47.640  10.723  1.00  0.00     0.330 C 
HETATM    8  O   UNL     1     -42.020 -46.951   9.999  1.00  0.00    -0.246 OA
HETATM    9  H   UNL     1     -41.930 -49.350   9.869  1.00  0.00     0.173 HD
ENDROOT
BRANCH   3  10
HETATM   10  N   UNL     1     -38.738 -50.162  12.879  1.00  0.00    -0.306 N 
HETATM   11  C   UNL     1     -37.530 -50.512  12.297  1.00  0.00     0.220 C 
HETATM   12  O   UNL     1     -36.686 -51.193  12.887  1.00  0.00    -0.273 OA
HETATM   13  C   UNL     1     -37.285 -50.155  10.849  1.00  0.00     0.117 C 
BRANCH  10  14
HETATM   14  C   UNL     1     -39.020 -50.664  14.239  1.00  0.00     0.171 C 
BRANCH  14  15
HETATM   15  C   UNL     1     -39.863 -51.924  14.346  1.00  0.00    -0.040 A 
HETATM   16  C   UNL     1     -41.173 -51.823  14.853  1.00  0.00     0.009 A 
HETATM   17  C   UNL     1     -41.988 -52.952  14.987  1.00  0.00     0.001 A 
HETATM   18  C   UNL     1     -41.515 -54.200  14.594  1.00  0.00     0.000 A 
HETATM   19  C   UNL     1     -40.248 -54.308  14.026  1.00  0.00     0.001 A 
HETATM   20  C   UNL     1     -39.435 -53.176  13.887  1.00  0.00     0.009 A 
ENDBRANCH  14  15
ENDBRANCH  10  14
ENDBRANCH   3  10
BRANCH   2  21
HETATM   21  N   UNL     1     -39.054 -47.451  13.665  1.00  0.00    -0.286 NA
HETATM   22  H   UNL     1     -39.676 -46.924  14.276  1.00  0.00     0.125 HD
HETATM   23  H   UNL     1     -38.578 -48.173  14.206  1.00  0.00     0.125 HD
ENDBRANCH   2  21
BRANCH   1  24
HETATM   24  C   UNL     1     -40.583 -45.692  12.019  1.00  0.00     0.161 C 
BRANCH  24  25
HETATM   25  C   UNL     1     -39.702 -44.888  11.052  1.00  0.00     0.187 C 
BRANCH  25  26
HETATM   26  O   UNL     1     -40.458 -43.802  10.505  1.00  0.00    -0.394 OA
HETATM   27  C   UNL     1     -41.644 -43.569  11.259  1.00  0.00     0.201 C 
ENDBRANCH  25  26
ENDBRANCH  24  25
ENDBRANCH   1  24
TORSDOF 7
ENDMDL
MODEL 6
REMARK VINA RESULT:      -5.5      2.804      5.618
REMARK  7 active torsions:
REMARK  status: ('A' for Active; 'I' for Inactive)
REMARK    1  A    between atoms: O_2  and  C_3 
REMARK    2  A    between atoms: C_3  and  C_4 
REMARK    3  A    between atoms: C_4  and  N_5 
REMARK    4  A    between atoms: C_6  and  N_7 
REMARK    5  A    between atoms: C_8  and  N_9 
REMARK    6  A    between atoms: N_9  and  C_10 
REMARK       I    between atoms: N_9  and  C_17 
REMARK    7  A    between atoms: C_10  and  C_11 
ROOT
HETATM    1  N   UNL     1     -41.571 -52.862  13.725  1.00  0.00    -0.286 N 
HETATM    2  C   UNL     1     -41.008 -52.139  12.667  1.00  0.00     0.117 C 
HETATM    3  C   UNL     1     -40.366 -50.971  12.912  1.00  0.00     0.145 C 
HETATM    4  C   UNL     1     -40.591 -50.348  14.248  1.00  0.00     0.279 C 
HETATM    5  O   UNL     1     -40.573 -49.130  14.409  1.00  0.00    -0.265 OA
HETATM    6  N   UNL     1     -40.905 -51.213  15.248  1.00  0.00    -0.273 N 
HETATM    7  C   UNL     1     -41.501 -52.421  15.047  1.00  0.00     0.330 C 
HETATM    8  O   UNL     1     -41.975 -53.024  16.009  1.00  0.00    -0.246 OA
HETATM    9  H   UNL     1     -41.041 -50.814  16.165  1.00  0.00     0.173 HD
ENDROOT
BRANCH   3  10
HETATM   10  N   UNL     1     -39.587 -50.299  11.979  1.00  0.00    -0.306 N 
HETATM   11  C   UNL     1     -38.201 -50.315  11.948  1.00  0.00     0.220 C 
HETATM   12  O   UNL     1     -37.555 -49.790  11.037  1.00  0.00    -0.273 OA
HETATM   13  C   UNL     1     -37.450 -50.887  13.127  1.00  0.00     0.117 C 
BRANCH  10  14
HETATM   14  C   UNL     1     -40.292 -49.588  10.893  1.00  0.00     0.171 C 
BRANCH  14  15
HETATM   15  C   UNL     1     -40.929 -48.253  11.244  1.00  0.00    -0.040 A 
HETATM   16  C   UNL     1     -42.327 -48.186  11.394  1.00  0.00     0.009 A 
HETATM   17  C   UNL     1     -42.966 -46.980  11.702  1.00  0.00     0.001 A 
HETATM   18  C   UNL     1     -42.215 -45.824  11.889  1.00  0.00     0.000 A 
HETATM   19  C   UNL     1     -40.826 -45.887  11.814  1.00  0.00     0.001 A 
HETATM   20  C   UNL     1     -40.186 -47.096  11.510  1.00  0.00     0.009 A 
ENDBRANCH  14  15
ENDBRANCH  10  14
ENDBRANCH   3  10
BRANCH   2  21
HETATM   21  N   UNL     1     -41.118 -52.610  11.364  1.00  0.00    -0.286 NA
HETATM   22  H   UNL     1     -40.325 -52.301  10.803  1.00  0.00     0.125 HD
HETATM   23  H   UNL     1     -41.184 -53.627  11.325  1.00  0.00     0.125 HD
ENDBRANCH   2  21
BRANCH   1  24
HETATM   24  C   UNL     1     -42.175 -54.189  13.492  1.00  0.00     0.161 C 
BRANCH  24  25
HETATM   25  C   UNL     1     -43.690 -54.168  13.242  1.00  0.00     0.187 C 
BRANCH  25  26
HETATM   26  O   UNL     1     -44.352 -54.945  14.246  1.00  0.00    -0.394 OA
HETATM   27  C   UNL     1     -45.766 -54.922  14.066  1.00  0.00     0.201 C 
ENDBRANCH  25  26
ENDBRANCH  24  25
ENDBRANCH   1  24
TORSDOF 7
ENDMDL
MODEL 7
REMARK VINA RESULT:      -5.5      2.009      3.742
REMARK  7 active torsions:
REMARK  status: ('A' for Active; 'I' for Inactive)
REMARK    1  A    between atoms: O_2  and  C_3 
REMARK    2  A    between atoms: C_3  and  C_4 
REMARK    3  A    between atoms: C_4  and  N_5 
REMARK    4  A    between atoms: C_6  and  N_7 
REMARK    5  A    between atoms: C_8  and  N_9 
REMARK    6  A    between atoms: N_9  and  C_10 
REMARK       I    between atoms: N_9  and  C_17 
REMARK    7  A    between atoms: C_10  and  C_11 
ROOT
HETATM    1  N   UNL     1     -39.644 -45.826  12.195  1.00  0.00    -0.286 N 
HETATM    2  C   UNL     1     -39.490 -47.027  12.897  1.00  0.00     0.117 C 
HETATM    3  C   UNL     1     -39.915 -48.190  12.348  1.00  0.00     0.145 C 
HETATM    4  C   UNL     1     -40.832 -48.085  11.177  1.00  0.00     0.279 C 
HETATM    5  O   UNL     1     -41.697 -48.928  10.949  1.00  0.00    -0.265 OA
HETATM    6  N   UNL     1     -40.704 -46.951  10.437  1.00  0.00    -0.273 N 
HETATM    7  C   UNL     1     -40.231 -45.773  10.931  1.00  0.00     0.330 C 
HETATM    8  O   UNL     1     -40.382 -44.744  10.275  1.00  0.00    -0.246 OA
HETATM    9  H   UNL     1     -41.302 -46.869   9.629  1.00  0.00     0.173 HD
ENDROOT
BRANCH   3  10
HETATM   10  N   UNL     1     -39.610 -49.449  12.852  1.00  0.00    -0.306 N 
HETATM   11  C   UNL     1     -38.555 -50.237  12.423  1.00  0.00     0.220 C 
HETATM   12  O   UNL     1     -38.260 -51.302  12.974  1.00  0.00    -0.273 OA
HETATM   13  C   UNL     1     -37.815 -49.848  11.165  1.00  0.00     0.117 C 
BRANCH  10  14
HETATM   14  C   UNL     1     -40.421 -49.938  13.986  1.00  0.00     0.171 C 
BRANCH  14  15
HETATM   15  C   UNL     1     -41.710 -50.668  13.646  1.00  0.00    -0.040 A 
HETATM   16  C   UNL     1     -42.937 -50.092  14.026  1.00  0.00     0.009 A 
HETATM   17  C   UNL     1     -44.153 -50.728  13.752  1.00  0.00     0.001 A 
HETATM   18  C   UNL     1     -44.163 -51.941  13.071  1.00  0.00     0.000 A 
HETATM   19  C   UNL     1     -42.964 -52.491  12.626  1.00  0.00     0.001 A 
HETATM   20  C   UNL     1     -41.748 -51.851  12.897  1.00  0.00     0.009 A 
ENDBRANCH  14  15
ENDBRANCH  10  14
ENDBRANCH   3  10
BRANCH   2  21
HETATM   21  N   UNL     1     -38.914 -47.028  14.162  1.00  0.00    -0.286 NA
HETATM   22  H   UNL     1     -38.133 -47.682  14.201  1.00  0.00     0.125 HD
HETATM   23  H   UNL     1     -38.593 -46.101  14.440  1.00  0.00     0.125 HD
ENDBRANCH   2  21
BRANCH   1  24
HETATM   24  C   UNL     1     -39.086 -44.567  12.728  1.00  0.00     0.161 C 
BRANCH  24  25
HETATM   25  C   UNL     1     -40.026 -43.797  13.668  1.00  0.00     0.187 C 
BRANCH  25  26
HETATM   26  O   UNL     1     -39.698 -44.100  15.028  1.00  0.00    -0.394 OA
HETATM   27  C   UNL     1     -40.859 -44.462  15.770  1.00  0.00     0.201 C 
ENDBRANCH  25  26
ENDBRANCH  24  25
ENDBRANCH   1  24
TORSDOF 7
ENDMDL
MODEL 8
REMARK VINA RESULT:      -5.4      4.827      7.659
REMARK  7 active torsions:
REMARK  status: ('A' for Active; 'I' for Inactive)
REMARK    1  A    between atoms: O_2  and  C_3 
REMARK    2  A    between atoms: C_3  and  C_4 
REMARK    3  A    between atoms: C_4  and  N_5 
REMARK    4  A    between atoms: C_6  and  N_7 
REMARK    5  A    between atoms: C_8  and  N_9 
REMARK    6  A    between atoms: N_9  and  C_10 
REMARK       I    between atoms: N_9  and  C_17 
REMARK    7  A    between atoms: C_10  and  C_11 
ROOT
HETATM    1  N   UNL     1     -41.231 -54.017  14.878  1.00  0.00    -0.286 N 
HETATM    2  C   UNL     1     -42.445 -53.757  14.233  1.00  0.00     0.117 C 
HETATM    3  C   UNL     1     -43.576 -53.594  14.962  1.00  0.00     0.145 C 
HETATM    4  C   UNL     1     -43.529 -54.039  16.383  1.00  0.00     0.279 C 
HETATM    5  O   UNL     1     -44.522 -54.475  16.962  1.00  0.00    -0.265 OA
HETATM    6  N   UNL     1     -42.299 -54.015  16.961  1.00  0.00    -0.273 N 
HETATM    7  C   UNL     1     -41.133 -54.122  16.265  1.00  0.00     0.330 C 
HETATM    8  O   UNL     1     -40.088 -54.343  16.876  1.00  0.00    -0.246 OA
HETATM    9  H   UNL     1     -42.248 -54.294  17.929  1.00  0.00     0.173 HD
ENDROOT
BRANCH   3  10
HETATM   10  N   UNL     1     -44.775 -53.115  14.446  1.00  0.00    -0.306 N 
HETATM   11  C   UNL     1     -45.798 -53.910  13.958  1.00  0.00     0.220 C 
HETATM   12  O   UNL     1     -46.887 -53.444  13.609  1.00  0.00    -0.273 OA
HETATM   13  C   UNL     1     -45.537 -55.380  13.728  1.00  0.00     0.117 C 
BRANCH  10  14
HETATM   14  C   UNL     1     -45.002 -51.656  14.506  1.00  0.00     0.171 C 
BRANCH  14  15
HETATM   15  C   UNL     1     -45.678 -51.116  15.755  1.00  0.00    -0.040 A 
HETATM   16  C   UNL     1     -44.943 -50.277  16.616  1.00  0.00     0.009 A 
HETATM   17  C   UNL     1     -45.512 -49.764  17.786  1.00  0.00     0.001 A 
HETATM   18  C   UNL     1     -46.832 -50.062  18.106  1.00  0.00     0.000 A 
HETATM   19  C   UNL     1     -47.594 -50.832  17.232  1.00  0.00     0.001 A 
HETATM   20  C   UNL     1     -47.027 -51.342  16.057  1.00  0.00     0.009 A 
ENDBRANCH  14  15
ENDBRANCH  10  14
ENDBRANCH   3  10
BRANCH   2  21
HETATM   21  N   UNL     1     -42.498 -53.679  12.846  1.00  0.00    -0.286 NA
HETATM   22  H   UNL     1     -42.452 -54.610  12.432  1.00  0.00     0.125 HD
HETATM   23  H   UNL     1     -43.338 -53.204  12.518  1.00  0.00     0.125 HD
ENDBRANCH   2  21
BRANCH   1  24
HETATM   24  C   UNL     1     -39.972 -54.086  14.109  1.00  0.00     0.161 C 
BRANCH  24  25
HETATM   25  C   UNL     1     -39.274 -52.734  13.898  1.00  0.00     0.187 C 
BRANCH  25  26
HETATM   26  O   UNL     1     -39.636 -52.203  12.619  1.00  0.00    -0.394 OA
HETATM   27  C   UNL     1     -40.156 -50.882  12.738  1.00  0.00     0.201 C 
ENDBRANCH  25  26
ENDBRANCH  24  25
ENDBRANCH   1  24
TORSDOF 7
ENDMDL
MODEL 9
REMARK VINA RESULT:      -5.3      3.379      4.835
REMARK  7 active torsions:
REMARK  status: ('A' for Active; 'I' for Inactive)
REMARK    1  A    between atoms: O_2  and  C_3 
REMARK    2  A    between atoms: C_3  and  C_4 
REMARK    3  A    between atoms: C_4  and  N_5 
REMARK    4  A    between atoms: C_6  and  N_7 
REMARK    5  A    between atoms: C_8  and  N_9 
REMARK    6  A    between atoms: N_9  and  C_10 
REMARK       I    between atoms: N_9  and  C_17 
REMARK    7  A    between atoms: C_10  and  C_11 
ROOT
HETATM    1  N   UNL     1     -42.546 -48.898  13.684  1.00  0.00    -0.286 N 
HETATM    2  C   UNL     1     -42.766 -50.155  13.111  1.00  0.00     0.117 C 
HETATM    3  C   UNL     1     -43.448 -51.102  13.800  1.00  0.00     0.145 C 
HETATM    4  C   UNL     1     -43.627 -50.871  15.261  1.00  0.00     0.279 C 
HETATM    5  O   UNL     1     -43.687 -51.798  16.065  1.00  0.00    -0.265 OA
HETATM    6  N   UNL     1     -43.627 -49.568  15.649  1.00  0.00    -0.273 N 
HETATM    7  C   UNL     1     -43.002 -48.572  14.961  1.00  0.00     0.330 C 
HETATM    8  O   UNL     1     -42.838 -47.480  15.503  1.00  0.00    -0.246 OA
HETATM    9  H   UNL     1     -43.767 -49.388  16.632  1.00  0.00     0.173 HD
ENDROOT
BRANCH   3  10
HETATM   10  N   UNL     1     -43.912 -52.289  13.245  1.00  0.00    -0.306 N 
HETATM   11  C   UNL     1     -45.232 -52.537  12.904  1.00  0.00     0.220 C 
HETATM   12  O   UNL     1     -45.580 -53.565  12.315  1.00  0.00    -0.273 OA
HETATM   13  C   UNL     1     -46.302 -51.579  13.373  1.00  0.00     0.117 C 
BRANCH  10  14
HETATM   14  C   UNL     1     -42.909 -53.322  12.917  1.00  0.00     0.171 C 
BRANCH  14  15
HETATM   15  C   UNL     1     -42.268 -54.054  14.085  1.00  0.00    -0.040 A 
HETATM   16  C   UNL     1     -43.051 -54.952  14.836  1.00  0.00     0.009 A 
HETATM   17  C   UNL     1     -42.515 -55.641  15.929  1.00  0.00     0.001 A 
HETATM   18  C   UNL     1     -41.180 -55.461  16.277  1.00  0.00     0.000 A 
HETATM   19  C   UNL     1     -40.374 -54.630  15.503  1.00  0.00     0.001 A 
HETATM   20  C   UNL     1     -40.909 -53.945  14.406  1.00  0.00     0.009 A 
ENDBRANCH  14  15
ENDBRANCH  10  14
ENDBRANCH   3  10
BRANCH   2  21
HETATM   21  N   UNL     1     -42.276 -50.440  11.841  1.00  0.00    -0.286 NA
HETATM   22  H   UNL     1     -42.963 -50.964  11.301  1.00  0.00     0.125 HD
HETATM   23  H   UNL     1     -42.015 -49.597  11.330  1.00  0.00     0.125 HD
ENDBRANCH   2  21
BRANCH   1  24
HETATM   24  C   UNL     1     -41.904 -47.819  12.906  1.00  0.00     0.161 C 
BRANCH  24  25
HETATM   25  C   UNL     1     -42.860 -47.024  12.004  1.00  0.00     0.187 C 
BRANCH  25  26
HETATM   26  O   UNL     1     -42.849 -47.581  10.685  1.00  0.00    -0.394 OA
HETATM   27  C   UNL     1     -44.115 -47.426  10.050  1.00  0.00     0.201 C 
ENDBRANCH  25  26
ENDBRANCH  24  25
ENDBRANCH   1  24
TORSDOF 7
ENDMDL
