MODEL 1
REMARK VINA RESULT:      -5.7      0.000      0.000
REMARK  5 active torsions:
REMARK  status: ('A' for Active; 'I' for Inactive)
REMARK    1  A    between atoms: C_8  and  C_9 
REMARK    2  A    between atoms: C_9  and  N_10 
REMARK    3  A    between atoms: N_10  and  C_11 
REMARK    4  A    between atoms: C_11  and  C_12 
REMARK    5  A    between atoms: C_12  and  C_13 
ROOT
HETATM    1  N   UNL     1     -43.811 -53.496  16.839  1.00  0.00     0.084 N 
HETATM    2  H   UNL     1     -44.543 -53.656  16.155  1.00  0.00     0.315 HD
ENDROOT
BRANCH   1   3
HETATM    3  C   UNL     1     -43.913 -52.131  17.386  1.00  0.00     0.279 C 
BRANCH   3   4
HETATM    4  C   UNL     1     -44.817 -51.086  16.649  1.00  0.00     0.045 C 
HETATM    5  C   UNL     1     -46.362 -51.296  16.905  1.00  0.00    -0.009 C 
HETATM    6  C   UNL     1     -46.742 -52.329  17.981  1.00  0.00     0.011 C 
HETATM    7  C   UNL     1     -47.294 -51.489  15.692  1.00  0.00     0.009 C 
HETATM    8  C   UNL     1     -46.711 -51.456  14.293  1.00  0.00     0.028 C 
HETATM    9  C   UNL     1     -45.288 -51.057  14.174  1.00  0.00    -0.024 C 
HETATM   10  C   UNL     1     -44.430 -50.889  15.184  1.00  0.00    -0.081 C 
HETATM   11  C   UNL     1     -43.035 -50.436  14.841  1.00  0.00     0.043 C 
ENDBRANCH   3   4
ENDBRANCH   1   3
BRANCH   1  12
HETATM   12  C   UNL     1     -42.508 -53.841  16.267  1.00  0.00     0.274 C 
BRANCH  12  13
HETATM   13  C   UNL     1     -42.616 -54.887  15.152  1.00  0.00     0.073 C 
BRANCH  13  14
HETATM   14  C   UNL     1     -43.178 -54.316  13.901  1.00  0.00    -0.001 A 
HETATM   15  C   UNL     1     -42.528 -53.534  12.912  1.00  0.00     0.037 A 
HETATM   16  C   UNL     1     -41.114 -53.096  12.855  1.00  0.00     0.071 C 
HETATM   17  N   UNL     1     -43.372 -53.190  11.931  1.00  0.00    -0.265 N 
HETATM   18  O   UNL     1     -44.589 -53.756  12.263  1.00  0.00    -0.242 OA
ATOM     19  HN  UNL     1     -43.160 -52.626  11.107  1.00  0.00     0.194 HD
HETATM   20  C   UNL     1     -44.469 -54.434  13.433  1.00  0.00     0.081 A 
HETATM   21  C   UNL     1     -45.673 -55.127  13.930  1.00  0.00     0.079 C 
ENDBRANCH  13  14
ENDBRANCH  12  13
ENDBRANCH   1  12
TORSDOF 5
ENDMDL
MODEL 2
REMARK VINA RESULT:      -5.3      4.698      6.690
REMARK  5 active torsions:
REMARK  status: ('A' for Active; 'I' for Inactive)
REMARK    1  A    between atoms: C_8  and  C_9 
REMARK    2  A    between atoms: C_9  and  N_10 
REMARK    3  A    between atoms: N_10  and  C_11 
REMARK    4  A    between atoms: C_11  and  C_12 
REMARK    5  A    between atoms: C_12  and  C_13 
ROOT
HETATM    1  N   UNL     1     -42.077 -50.370  11.770  1.00  0.00     0.084 N 
HETATM    2  H   UNL     1     -42.246 -50.818  10.875  1.00  0.00     0.315 HD
ENDROOT
BRANCH   1   3
HETATM    3  C   UNL     1     -42.698 -51.149  12.857  1.00  0.00     0.279 C 
BRANCH   3   4
HETATM    4  C   UNL     1     -43.168 -52.614  12.564  1.00  0.00     0.045 C 
HETATM    5  C   UNL     1     -44.720 -52.830  12.767  1.00  0.00    -0.009 C 
HETATM    6  C   UNL     1     -45.562 -51.563  13.003  1.00  0.00     0.011 C 
HETATM    7  C   UNL     1     -45.194 -53.921  13.748  1.00  0.00     0.009 C 
HETATM    8  C   UNL     1     -44.166 -54.764  14.476  1.00  0.00     0.028 C 
HETATM    9  C   UNL     1     -42.753 -54.601  14.057  1.00  0.00    -0.024 C 
HETATM   10  C   UNL     1     -42.281 -53.669  13.225  1.00  0.00    -0.081 C 
HETATM   11  C   UNL     1     -40.811 -53.711  12.898  1.00  0.00     0.043 C 
ENDBRANCH   3   4
ENDBRANCH   1   3
BRANCH   1  12
HETATM   12  C   UNL     1     -42.477 -48.962  11.708  1.00  0.00     0.274 C 
BRANCH  12  13
HETATM   13  C   UNL     1     -41.731 -48.190  10.614  1.00  0.00     0.073 C 
BRANCH  13  14
HETATM   14  C   UNL     1     -42.477 -46.983  10.173  1.00  0.00    -0.001 A 
HETATM   15  C   UNL     1     -42.587 -45.723  10.817  1.00  0.00     0.037 A 
HETATM   16  C   UNL     1     -41.973 -45.272  12.087  1.00  0.00     0.071 C 
HETATM   17  N   UNL     1     -43.362 -44.885  10.116  1.00  0.00    -0.265 N 
HETATM   18  O   UNL     1     -43.760 -45.587   8.994  1.00  0.00    -0.242 OA
ATOM     19  HN  UNL     1     -43.607 -43.925  10.361  1.00  0.00     0.194 HD
HETATM   20  C   UNL     1     -43.224 -46.834   9.025  1.00  0.00     0.081 A 
HETATM   21  C   UNL     1     -43.527 -47.721   7.885  1.00  0.00     0.079 C 
ENDBRANCH  13  14
ENDBRANCH  12  13
ENDBRANCH   1  12
TORSDOF 5
ENDMDL
MODEL 3
REMARK VINA RESULT:      -5.3      1.776      3.364
REMARK  5 active torsions:
REMARK  status: ('A' for Active; 'I' for Inactive)
REMARK    1  A    between atoms: C_8  and  C_9 
REMARK    2  A    between atoms: C_9  and  N_10 
REMARK    3  A    between atoms: N_10  and  C_11 
REMARK    4  A    between atoms: C_11  and  C_12 
REMARK    5  A    between atoms: C_12  and  C_13 
ROOT
HETATM    1  N   UNL     1     -43.762 -52.318  16.197  1.00  0.00     0.084 N 
HETATM    2  H   UNL     1     -43.967 -51.679  16.958  1.00  0.00     0.315 HD
ENDROOT
BRANCH   1   3
HETATM    3  C   UNL     1     -44.737 -53.423  16.180  1.00  0.00     0.279 C 
BRANCH   3   4
HETATM    4  C   UNL     1     -45.928 -53.366  15.165  1.00  0.00     0.045 C 
HETATM    5  C   UNL     1     -45.556 -53.900  13.725  1.00  0.00    -0.009 C 
HETATM    6  C   UNL     1     -44.183 -54.582  13.583  1.00  0.00     0.011 C 
HETATM    7  C   UNL     1     -45.766 -52.971  12.513  1.00  0.00     0.009 C 
HETATM    8  C   UNL     1     -46.337 -51.583  12.730  1.00  0.00     0.028 C 
HETATM    9  C   UNL     1     -46.829 -51.271  14.094  1.00  0.00    -0.024 C 
HETATM   10  C   UNL     1     -46.664 -52.027  15.183  1.00  0.00    -0.081 C 
HETATM   11  C   UNL     1     -47.286 -51.540  16.466  1.00  0.00     0.043 C 
ENDBRANCH   3   4
ENDBRANCH   1   3
BRANCH   1  12
HETATM   12  C   UNL     1     -42.357 -52.730  16.254  1.00  0.00     0.274 C 
BRANCH  12  13
HETATM   13  C   UNL     1     -41.443 -51.805  15.443  1.00  0.00     0.073 C 
BRANCH  13  14
HETATM   14  C   UNL     1     -41.387 -52.191  14.009  1.00  0.00    -0.001 A 
HETATM   15  C   UNL     1     -42.061 -51.606  12.905  1.00  0.00     0.037 A 
HETATM   16  C   UNL     1     -42.981 -50.446  12.887  1.00  0.00     0.071 C 
HETATM   17  N   UNL     1     -41.768 -52.243  11.764  1.00  0.00    -0.265 N 
HETATM   18  O   UNL     1     -40.886 -53.250  12.108  1.00  0.00    -0.242 OA
ATOM     19  HN  UNL     1     -42.123 -52.028  10.832  1.00  0.00     0.194 HD
HETATM   20  C   UNL     1     -40.653 -53.212  13.445  1.00  0.00     0.081 A 
HETATM   21  C   UNL     1     -39.709 -54.208  13.988  1.00  0.00     0.079 C 
ENDBRANCH  13  14
ENDBRANCH  12  13
ENDBRANCH   1  12
TORSDOF 5
ENDMDL
MODEL 4
REMARK VINA RESULT:      -5.1      2.556      4.209
REMARK  5 active torsions:
REMARK  status: ('A' for Active; 'I' for Inactive)
REMARK    1  A    between atoms: C_8  and  C_9 
REMARK    2  A    between atoms: C_9  and  N_10 
REMARK    3  A    between atoms: N_10  and  C_11 
REMARK    4  A    between atoms: C_11  and  C_12 
REMARK    5  A    between atoms: C_12  and  C_13 
ROOT
HETATM    1  N   UNL     1     -43.606 -50.962  15.840  1.00  0.00     0.084 N 
HETATM    2  H   UNL     1     -43.281 -50.565  16.716  1.00  0.00     0.315 HD
ENDROOT
BRANCH   1   3
HETATM    3  C   UNL     1     -44.017 -52.363  16.036  1.00  0.00     0.279 C 
BRANCH   3   4
HETATM    4  C   UNL     1     -45.280 -52.895  15.276  1.00  0.00     0.045 C 
HETATM    5  C   UNL     1     -44.932 -53.772  14.010  1.00  0.00    -0.009 C 
HETATM    6  C   UNL     1     -43.451 -54.154  13.828  1.00  0.00     0.011 C 
HETATM    7  C   UNL     1     -45.499 -53.353  12.639  1.00  0.00     0.009 C 
HETATM    8  C   UNL     1     -46.384 -52.126  12.544  1.00  0.00     0.028 C 
HETATM    9  C   UNL     1     -46.797 -51.503  13.824  1.00  0.00    -0.024 C 
HETATM   10  C   UNL     1     -46.332 -51.812  15.037  1.00  0.00    -0.081 C 
HETATM   11  C   UNL     1     -46.924 -51.081  16.215  1.00  0.00     0.043 C 
ENDBRANCH   3   4
ENDBRANCH   1   3
BRANCH   1  12
HETATM   12  C   UNL     1     -42.603 -50.749  14.793  1.00  0.00     0.274 C 
BRANCH  12  13
HETATM   13  C   UNL     1     -43.237 -50.474  13.425  1.00  0.00     0.073 C 
BRANCH  13  14
HETATM   14  C   UNL     1     -42.221 -50.123  12.398  1.00  0.00    -0.001 A 
HETATM   15  C   UNL     1     -41.205 -50.941  11.839  1.00  0.00     0.037 A 
HETATM   16  C   UNL     1     -40.901 -52.364  12.116  1.00  0.00     0.071 C 
HETATM   17  N   UNL     1     -40.471 -50.263  10.947  1.00  0.00    -0.265 N 
HETATM   18  O   UNL     1     -41.008 -48.990  10.904  1.00  0.00    -0.242 OA
ATOM     19  HN  UNL     1     -39.678 -50.614  10.410  1.00  0.00     0.194 HD
HETATM   20  C   UNL     1     -42.057 -48.912  11.763  1.00  0.00     0.081 A 
HETATM   21  C   UNL     1     -42.771 -47.621  11.830  1.00  0.00     0.079 C 
ENDBRANCH  13  14
ENDBRANCH  12  13
ENDBRANCH   1  12
TORSDOF 5
ENDMDL
MODEL 5
REMARK VINA RESULT:      -5.1      3.155      4.921
REMARK  5 active torsions:
REMARK  status: ('A' for Active; 'I' for Inactive)
REMARK    1  A    between atoms: C_8  and  C_9 
REMARK    2  A    between atoms: C_9  and  N_10 
REMARK    3  A    between atoms: N_10  and  C_11 
REMARK    4  A    between atoms: C_11  and  C_12 
REMARK    5  A    between atoms: C_12  and  C_13 
ROOT
HETATM    1  N   UNL     1     -42.681 -52.720  11.716  1.00  0.00     0.084 N 
HETATM    2  H   UNL     1     -43.078 -52.353  10.857  1.00  0.00     0.315 HD
ENDROOT
BRANCH   1   3
HETATM    3  C   UNL     1     -43.528 -52.357  12.866  1.00  0.00     0.279 C 
BRANCH   3   4
HETATM    4  C   UNL     1     -44.532 -53.419  13.431  1.00  0.00     0.045 C 
HETATM    5  C   UNL     1     -46.030 -52.917  13.460  1.00  0.00    -0.009 C 
HETATM    6  C   UNL     1     -46.317 -51.582  12.750  1.00  0.00     0.011 C 
HETATM    7  C   UNL     1     -46.790 -52.930  14.801  1.00  0.00     0.009 C 
HETATM    8  C   UNL     1     -46.091 -53.436  16.047  1.00  0.00     0.028 C 
HETATM    9  C   UNL     1     -44.759 -54.061  15.857  1.00  0.00    -0.024 C 
HETATM   10  C   UNL     1     -44.047 -54.069  14.727  1.00  0.00    -0.081 C 
HETATM   11  C   UNL     1     -42.731 -54.803  14.740  1.00  0.00     0.043 C 
ENDBRANCH   3   4
ENDBRANCH   1   3
BRANCH   1  12
HETATM   12  C   UNL     1     -41.276 -52.320  11.828  1.00  0.00     0.274 C 
BRANCH  12  13
HETATM   13  C   UNL     1     -41.067 -51.197  12.850  1.00  0.00     0.073 C 
BRANCH  13  14
HETATM   14  C   UNL     1     -40.758 -49.898  12.198  1.00  0.00    -0.001 A 
HETATM   15  C   UNL     1     -39.509 -49.418  11.723  1.00  0.00     0.037 A 
HETATM   16  C   UNL     1     -38.190 -50.092  11.733  1.00  0.00     0.071 C 
HETATM   17  N   UNL     1     -39.626 -48.188  11.207  1.00  0.00    -0.265 N 
HETATM   18  O   UNL     1     -40.961 -47.851  11.329  1.00  0.00    -0.242 OA
ATOM     19  HN  UNL     1     -38.882 -47.617  10.806  1.00  0.00     0.194 HD
HETATM   20  C   UNL     1     -41.635 -48.875  11.911  1.00  0.00     0.081 A 
HETATM   21  C   UNL     1     -43.088 -48.698  12.100  1.00  0.00     0.079 C 
ENDBRANCH  13  14
ENDBRANCH  12  13
ENDBRANCH   1  12
TORSDOF 5
ENDMDL
MODEL 6
REMARK VINA RESULT:      -5.1      2.012      3.363
REMARK  5 active torsions:
REMARK  status: ('A' for Active; 'I' for Inactive)
REMARK    1  A    between atoms: C_8  and  C_9 
REMARK    2  A    between atoms: C_9  and  N_10 
REMARK    3  A    between atoms: N_10  and  C_11 
REMARK    4  A    between atoms: C_11  and  C_12 
REMARK    5  A    between atoms: C_12  and  C_13 
ROOT
HETATM    1  N   UNL     1     -44.099 -52.831  16.598  1.00  0.00     0.084 N 
HETATM    2  H   UNL     1     -44.203 -52.313  17.465  1.00  0.00     0.315 HD
ENDROOT
BRANCH   1   3
HETATM    3  C   UNL     1     -45.218 -53.774  16.428  1.00  0.00     0.279 C 
BRANCH   3   4
HETATM    4  C   UNL     1     -46.269 -53.506  15.297  1.00  0.00     0.045 C 
HETATM    5  C   UNL     1     -45.809 -54.016  13.875  1.00  0.00    -0.009 C 
HETATM    6  C   UNL     1     -44.530 -54.872  13.836  1.00  0.00     0.011 C 
HETATM    7  C   UNL     1     -45.757 -53.009  12.708  1.00  0.00     0.009 C 
HETATM    8  C   UNL     1     -46.163 -51.569  12.950  1.00  0.00     0.028 C 
HETATM    9  C   UNL     1     -46.761 -51.259  14.271  1.00  0.00    -0.024 C 
HETATM   10  C   UNL     1     -46.821 -52.081  15.322  1.00  0.00    -0.081 C 
HETATM   11  C   UNL     1     -47.516 -51.577  16.560  1.00  0.00     0.043 C 
ENDBRANCH   3   4
ENDBRANCH   1   3
BRANCH   1  12
HETATM   12  C   UNL     1     -42.764 -53.431  16.532  1.00  0.00     0.274 C 
BRANCH  12  13
HETATM   13  C   UNL     1     -41.739 -52.506  15.867  1.00  0.00     0.073 C 
BRANCH  13  14
HETATM   14  C   UNL     1     -41.120 -53.127  14.667  1.00  0.00    -0.001 A 
HETATM   15  C   UNL     1     -40.147 -54.158  14.603  1.00  0.00     0.037 A 
HETATM   16  C   UNL     1     -39.506 -54.900  15.713  1.00  0.00     0.071 C 
HETATM   17  N   UNL     1     -39.823 -54.443  13.336  1.00  0.00    -0.265 N 
HETATM   18  O   UNL     1     -40.593 -53.605  12.551  1.00  0.00    -0.242 OA
ATOM     19  HN  UNL     1     -39.147 -55.136  13.015  1.00  0.00     0.194 HD
HETATM   20  C   UNL     1     -41.372 -52.828  13.346  1.00  0.00     0.081 A 
HETATM   21  C   UNL     1     -42.283 -51.882  12.672  1.00  0.00     0.079 C 
ENDBRANCH  13  14
ENDBRANCH  12  13
ENDBRANCH   1  12
TORSDOF 5
ENDMDL
MODEL 7
REMARK VINA RESULT:      -4.9      4.687      6.704
REMARK  5 active torsions:
REMARK  status: ('A' for Active; 'I' for Inactive)
REMARK    1  A    between atoms: C_8  and  C_9 
REMARK    2  A    between atoms: C_9  and  N_10 
REMARK    3  A    between atoms: N_10  and  C_11 
REMARK    4  A    between atoms: C_11  and  C_12 
REMARK    5  A    between atoms: C_12  and  C_13 
ROOT
HETATM    1  N   UNL     1     -42.431 -49.760  12.735  1.00  0.00     0.084 N 
HETATM    2  H   UNL     1     -41.868 -50.254  12.050  1.00  0.00     0.315 HD
ENDROOT
BRANCH   1   3
HETATM    3  C   UNL     1     -43.332 -50.698  13.428  1.00  0.00     0.279 C 
BRANCH   3   4
HETATM    4  C   UNL     1     -43.559 -52.122  12.815  1.00  0.00     0.045 C 
HETATM    5  C   UNL     1     -45.076 -52.564  12.792  1.00  0.00    -0.009 C 
HETATM    6  C   UNL     1     -46.109 -51.483  13.161  1.00  0.00     0.011 C 
HETATM    7  C   UNL     1     -45.475 -53.879  13.491  1.00  0.00     0.009 C 
HETATM    8  C   UNL     1     -44.407 -54.717  14.165  1.00  0.00     0.028 C 
HETATM    9  C   UNL     1     -43.000 -54.300  13.950  1.00  0.00    -0.024 C 
HETATM   10  C   UNL     1     -42.593 -53.170  13.367  1.00  0.00    -0.081 C 
HETATM   11  C   UNL     1     -41.109 -52.964  13.211  1.00  0.00     0.043 C 
ENDBRANCH   3   4
ENDBRANCH   1   3
BRANCH   1  12
HETATM   12  C   UNL     1     -43.092 -48.614  12.106  1.00  0.00     0.274 C 
BRANCH  12  13
HETATM   13  C   UNL     1     -42.490 -48.269  10.739  1.00  0.00     0.073 C 
BRANCH  13  14
HETATM   14  C   UNL     1     -43.007 -46.981  10.208  1.00  0.00    -0.001 A 
HETATM   15  C   UNL     1     -44.220 -46.728   9.517  1.00  0.00     0.037 A 
HETATM   16  C   UNL     1     -45.300 -47.677   9.158  1.00  0.00     0.071 C 
HETATM   17  N   UNL     1     -44.330 -45.436   9.184  1.00  0.00    -0.265 N 
HETATM   18  O   UNL     1     -43.189 -44.822   9.666  1.00  0.00    -0.242 OA
ATOM     19  HN  UNL     1     -45.098 -44.995   8.678  1.00  0.00     0.194 HD
HETATM   20  C   UNL     1     -42.406 -45.743  10.285  1.00  0.00     0.081 A 
HETATM   21  C   UNL     1     -41.149 -45.257  10.885  1.00  0.00     0.079 C 
ENDBRANCH  13  14
ENDBRANCH  12  13
ENDBRANCH   1  12
TORSDOF 5
ENDMDL
MODEL 8
REMARK VINA RESULT:      -4.7      3.786      5.191
REMARK  5 active torsions:
REMARK  status: ('A' for Active; 'I' for Inactive)
REMARK    1  A    between atoms: C_8  and  C_9 
REMARK    2  A    between atoms: C_9  and  N_10 
REMARK    3  A    between atoms: N_10  and  C_11 
REMARK    4  A    between atoms: C_11  and  C_12 
REMARK    5  A    between atoms: C_12  and  C_13 
ROOT
HETATM    1  N   UNL     1     -43.620 -49.709  14.203  1.00  0.00     0.084 N 
HETATM    2  H   UNL     1     -43.801 -49.051  14.954  1.00  0.00     0.315 HD
ENDROOT
BRANCH   1   3
HETATM    3  C   UNL     1     -43.945 -51.079  14.635  1.00  0.00     0.279 C 
BRANCH   3   4
HETATM    4  C   UNL     1     -44.948 -51.925  13.778  1.00  0.00     0.045 C 
HETATM    5  C   UNL     1     -46.373 -52.078  14.443  1.00  0.00    -0.009 C 
HETATM    6  C   UNL     1     -46.639 -51.222  15.695  1.00  0.00     0.011 C 
HETATM    7  C   UNL     1     -46.924 -53.496  14.696  1.00  0.00     0.009 C 
HETATM    8  C   UNL     1     -46.097 -54.699  14.287  1.00  0.00     0.028 C 
HETATM    9  C   UNL     1     -44.872 -54.427  13.497  1.00  0.00    -0.024 C 
HETATM   10  C   UNL     1     -44.339 -53.226  13.258  1.00  0.00    -0.081 C 
HETATM   11  C   UNL     1     -43.108 -53.173  12.390  1.00  0.00     0.043 C 
ENDBRANCH   3   4
ENDBRANCH   1   3
BRANCH   1  12
HETATM   12  C   UNL     1     -42.259 -49.524  13.694  1.00  0.00     0.274 C 
BRANCH  12  13
HETATM   13  C   UNL     1     -42.166 -49.743  12.180  1.00  0.00     0.073 C 
BRANCH  13  14
HETATM   14  C   UNL     1     -41.710 -48.523  11.465  1.00  0.00    -0.001 A 
HETATM   15  C   UNL     1     -40.396 -48.001  11.348  1.00  0.00     0.037 A 
HETATM   16  C   UNL     1     -39.129 -48.545  11.891  1.00  0.00     0.071 C 
HETATM   17  N   UNL     1     -40.383 -46.869  10.633  1.00  0.00    -0.265 N 
HETATM   18  O   UNL     1     -41.695 -46.642  10.262  1.00  0.00    -0.242 OA
ATOM     19  HN  UNL     1     -39.572 -46.293  10.408  1.00  0.00     0.194 HD
HETATM   20  C   UNL     1     -42.483 -47.633  10.751  1.00  0.00     0.081 A 
HETATM   21  C   UNL     1     -43.922 -47.564  10.429  1.00  0.00     0.079 C 
ENDBRANCH  13  14
ENDBRANCH  12  13
ENDBRANCH   1  12
TORSDOF 5
ENDMDL
MODEL 9
REMARK VINA RESULT:      -4.7      2.490      3.392
REMARK  5 active torsions:
REMARK  status: ('A' for Active; 'I' for Inactive)
REMARK    1  A    between atoms: C_8  and  C_9 
REMARK    2  A    between atoms: C_9  and  N_10 
REMARK    3  A    between atoms: N_10  and  C_11 
REMARK    4  A    between atoms: C_11  and  C_12 
REMARK    5  A    between atoms: C_12  and  C_13 
ROOT
HETATM    1  N   UNL     1     -42.731 -51.883  15.984  1.00  0.00     0.084 N 
HETATM    2  H   UNL     1     -42.163 -51.115  16.327  1.00  0.00     0.315 HD
ENDROOT
BRANCH   1   3
HETATM    3  C   UNL     1     -44.159 -51.608  16.222  1.00  0.00     0.279 C 
BRANCH   3   4
HETATM    4  C   UNL     1     -45.203 -52.032  15.134  1.00  0.00     0.045 C 
HETATM    5  C   UNL     1     -45.965 -53.373  15.479  1.00  0.00    -0.009 C 
HETATM    6  C   UNL     1     -45.741 -53.942  16.892  1.00  0.00     0.011 C 
HETATM    7  C   UNL     1     -45.910 -54.537  14.470  1.00  0.00     0.009 C 
HETATM    8  C   UNL     1     -45.145 -54.361  13.173  1.00  0.00     0.028 C 
HETATM    9  C   UNL     1     -44.641 -52.998  12.876  1.00  0.00    -0.024 C 
HETATM   10  C   UNL     1     -44.647 -51.957  13.712  1.00  0.00    -0.081 C 
HETATM   11  C   UNL     1     -44.124 -50.644  13.190  1.00  0.00     0.043 C 
ENDBRANCH   3   4
ENDBRANCH   1   3
BRANCH   1  12
HETATM   12  C   UNL     1     -42.242 -53.150  16.532  1.00  0.00     0.274 C 
BRANCH  12  13
HETATM   13  C   UNL     1     -42.173 -54.257  15.474  1.00  0.00     0.073 C 
BRANCH  13  14
HETATM   14  C   UNL     1     -40.814 -54.386  14.886  1.00  0.00    -0.001 A 
HETATM   15  C   UNL     1     -39.698 -55.109  15.382  1.00  0.00     0.037 A 
HETATM   16  C   UNL     1     -39.598 -55.940  16.604  1.00  0.00     0.071 C 
HETATM   17  N   UNL     1     -38.636 -54.974  14.578  1.00  0.00    -0.265 N 
HETATM   18  O   UNL     1     -39.050 -54.167  13.536  1.00  0.00    -0.242 OA
ATOM     19  HN  UNL     1     -37.710 -55.384  14.709  1.00  0.00     0.194 HD
HETATM   20  C   UNL     1     -40.351 -53.825  13.716  1.00  0.00     0.081 A 
HETATM   21  C   UNL     1     -40.971 -52.978  12.678  1.00  0.00     0.079 C 
ENDBRANCH  13  14
ENDBRANCH  12  13
ENDBRANCH   1  12
TORSDOF 5
ENDMDL
