MODEL 1
REMARK VINA RESULT:      -6.8      0.000      0.000
REMARK  5 active torsions:
REMARK  status: ('A' for Active; 'I' for Inactive)
REMARK    1  A    between atoms: C_2  and  N_3 
REMARK    2  A    between atoms: C_5  and  N_6 
REMARK       I    between atoms: N_6  and  C_7 
REMARK       I    between atoms: C_7  and  N_9 
REMARK    3  A    between atoms: N_9  and  C_10 
REMARK    4  A    between atoms: C_10  and  C_11 
REMARK    5  A    between atoms: C_11  and  C_17 
REMARK       I    between atoms: C_17  and  N_19 
ROOT
HETATM    1  N   UNL     1     -41.199 -53.535  13.311  1.00  0.00    -0.312 N 
HETATM    2  C   UNL     1     -40.540 -52.426  13.795  1.00  0.00     0.298 C 
HETATM    3  O   UNL     1     -41.008 -51.626  14.600  1.00  0.00    -0.254 OA
HETATM    4  N   UNL     1     -39.308 -52.242  13.185  1.00  0.00    -0.243 NA
HETATM    5  H   UNL     1     -40.882 -53.809  12.392  1.00  0.00     0.170 HD
HETATM    6  H   UNL     1     -38.754 -53.091  13.104  1.00  0.00     0.132 HD
ENDROOT
BRANCH   4   7
HETATM    7  C   UNL     1     -38.563 -51.079  13.624  1.00  0.00     0.116 C 
BRANCH   7   8
HETATM    8  C   UNL     1     -38.222 -49.990  12.575  1.00  0.00     0.056 C 
HETATM    9  C   UNL     1     -37.543 -48.832  13.352  1.00  0.00     0.046 C 
HETATM   10  C   UNL     1     -38.546 -48.092  14.240  1.00  0.00     0.168 C 
HETATM   11  O   UNL     1     -39.616 -47.585  13.446  1.00  0.00    -0.391 OA
HETATM   12  C   UNL     1     -40.357 -48.610  12.787  1.00  0.00     0.168 C 
HETATM   13  C   UNL     1     -39.459 -49.412  11.854  1.00  0.00     0.046 C 
BRANCH   8  14
HETATM   14  C   UNL     1     -37.296 -50.607  11.517  1.00  0.00     0.225 C 
HETATM   15  O   UNL     1     -36.716 -51.680  11.674  1.00  0.00    -0.273 OA
HETATM   16  N   UNL     1     -37.204 -49.976  10.314  1.00  0.00    -0.369 N 
HETATM   17  H   UNL     1     -37.719 -49.145  10.063  1.00  0.00     0.159 HD
HETATM   18  H   UNL     1     -36.646 -50.423   9.596  1.00  0.00     0.159 HD
ENDBRANCH   8  14
ENDBRANCH   7   8
ENDBRANCH   4   7
BRANCH   1  19
HETATM   19  C   UNL     1     -42.518 -53.795  13.636  1.00  0.00     0.051 A 
HETATM   20  C   UNL     1     -43.571 -53.173  13.071  1.00  0.00     0.123 A 
HETATM   21  N   UNL     1     -44.881 -53.524  13.380  1.00  0.00    -0.323 N 
HETATM   22  C   UNL     1     -45.173 -54.589  14.230  1.00  0.00     0.247 A 
HETATM   23  C   UNL     1     -44.002 -55.265  14.856  1.00  0.00     0.077 A 
HETATM   24  O   UNL     1     -46.305 -54.988  14.491  1.00  0.00    -0.268 OA
HETATM   25  C   UNL     1     -42.759 -54.849  14.592  1.00  0.00     0.036 A 
BRANCH  21  26
HETATM   26  C   UNL     1     -45.981 -52.806  12.745  1.00  0.00     0.127 C 
HETATM   27  C   UNL     1     -46.405 -51.576  13.534  1.00  0.00     0.027 C 
ENDBRANCH  21  26
ENDBRANCH   1  19
TORSDOF 5
ENDMDL
MODEL 2
REMARK VINA RESULT:      -6.6      2.791      3.729
REMARK  5 active torsions:
REMARK  status: ('A' for Active; 'I' for Inactive)
REMARK    1  A    between atoms: C_2  and  N_3 
REMARK    2  A    between atoms: C_5  and  N_6 
REMARK       I    between atoms: N_6  and  C_7 
REMARK       I    between atoms: C_7  and  N_9 
REMARK    3  A    between atoms: N_9  and  C_10 
REMARK    4  A    between atoms: C_10  and  C_11 
REMARK    5  A    between atoms: C_11  and  C_17 
REMARK       I    between atoms: C_17  and  N_19 
ROOT
HETATM    1  N   UNL     1     -42.055 -51.646  11.796  1.00  0.00    -0.312 N 
HETATM    2  C   UNL     1     -41.638 -50.385  12.165  1.00  0.00     0.298 C 
HETATM    3  O   UNL     1     -41.742 -49.913  13.293  1.00  0.00    -0.254 OA
HETATM    4  N   UNL     1     -41.180 -49.648  11.084  1.00  0.00    -0.243 NA
HETATM    5  H   UNL     1     -42.299 -51.707  10.818  1.00  0.00     0.170 HD
HETATM    6  H   UNL     1     -40.555 -50.162  10.466  1.00  0.00     0.132 HD
ENDROOT
BRANCH   4   7
HETATM    7  C   UNL     1     -40.745 -48.300  11.387  1.00  0.00     0.116 C 
BRANCH   7   8
HETATM    8  C   UNL     1     -41.736 -47.137  11.128  1.00  0.00     0.056 C 
HETATM    9  C   UNL     1     -40.918 -46.010  10.442  1.00  0.00     0.046 C 
HETATM   10  C   UNL     1     -39.938 -45.358  11.420  1.00  0.00     0.168 C 
HETATM   11  O   UNL     1     -40.647 -44.834  12.541  1.00  0.00    -0.391 OA
HETATM   12  C   UNL     1     -41.336 -45.836  13.286  1.00  0.00     0.168 C 
HETATM   13  C   UNL     1     -42.359 -46.551  12.413  1.00  0.00     0.046 C 
BRANCH   8  14
HETATM   14  C   UNL     1     -42.874 -47.657  10.237  1.00  0.00     0.225 C 
HETATM   15  O   UNL     1     -44.034 -47.774  10.627  1.00  0.00    -0.273 OA
HETATM   16  N   UNL     1     -42.590 -47.898   8.928  1.00  0.00    -0.369 N 
HETATM   17  H   UNL     1     -41.691 -47.737   8.498  1.00  0.00     0.159 HD
HETATM   18  H   UNL     1     -43.359 -48.175   8.328  1.00  0.00     0.159 HD
ENDBRANCH   8  14
ENDBRANCH   7   8
ENDBRANCH   4   7
BRANCH   1  19
HETATM   19  C   UNL     1     -42.727 -52.475  12.675  1.00  0.00     0.051 A 
HETATM   20  C   UNL     1     -44.042 -52.375  12.951  1.00  0.00     0.123 A 
HETATM   21  N   UNL     1     -44.685 -53.281  13.787  1.00  0.00    -0.323 N 
HETATM   22  C   UNL     1     -44.022 -54.385  14.321  1.00  0.00     0.247 A 
HETATM   23  C   UNL     1     -42.567 -54.481  14.017  1.00  0.00     0.077 A 
HETATM   24  O   UNL     1     -44.549 -55.253  15.012  1.00  0.00    -0.268 OA
HETATM   25  C   UNL     1     -41.967 -53.548  13.271  1.00  0.00     0.036 A 
BRANCH  21  26
HETATM   26  C   UNL     1     -46.109 -53.115  14.059  1.00  0.00     0.127 C 
HETATM   27  C   UNL     1     -46.539 -51.656  14.038  1.00  0.00     0.027 C 
ENDBRANCH  21  26
ENDBRANCH   1  19
TORSDOF 5
ENDMDL
MODEL 3
REMARK VINA RESULT:      -6.5      3.187      7.787
REMARK  5 active torsions:
REMARK  status: ('A' for Active; 'I' for Inactive)
REMARK    1  A    between atoms: C_2  and  N_3 
REMARK    2  A    between atoms: C_5  and  N_6 
REMARK       I    between atoms: N_6  and  C_7 
REMARK       I    between atoms: C_7  and  N_9 
REMARK    3  A    between atoms: N_9  and  C_10 
REMARK    4  A    between atoms: C_10  and  C_11 
REMARK    5  A    between atoms: C_11  and  C_17 
REMARK       I    between atoms: C_17  and  N_19 
ROOT
HETATM    1  N   UNL     1     -42.148 -50.243  11.852  1.00  0.00    -0.312 N 
HETATM    2  C   UNL     1     -42.990 -50.359  12.937  1.00  0.00     0.298 C 
HETATM    3  O   UNL     1     -43.463 -49.416  13.563  1.00  0.00    -0.254 OA
HETATM    4  N   UNL     1     -43.164 -51.679  13.325  1.00  0.00    -0.243 NA
HETATM    5  H   UNL     1     -41.535 -51.038  11.745  1.00  0.00     0.170 HD
HETATM    6  H   UNL     1     -43.340 -52.319  12.554  1.00  0.00     0.132 HD
ENDROOT
BRANCH   4   7
HETATM    7  C   UNL     1     -44.019 -51.883  14.478  1.00  0.00     0.116 C 
BRANCH   7   8
HETATM    8  C   UNL     1     -45.398 -52.553  14.255  1.00  0.00     0.056 C 
HETATM    9  C   UNL     1     -46.466 -51.473  14.576  1.00  0.00     0.046 C 
HETATM   10  C   UNL     1     -46.517 -51.168  16.075  1.00  0.00     0.168 C 
HETATM   11  O   UNL     1     -46.795 -52.361  16.804  1.00  0.00    -0.391 OA
HETATM   12  C   UNL     1     -45.793 -53.363  16.642  1.00  0.00     0.168 C 
HETATM   13  C   UNL     1     -45.659 -53.762  15.177  1.00  0.00     0.046 C 
BRANCH   8  14
HETATM   14  C   UNL     1     -45.475 -53.035  12.799  1.00  0.00     0.225 C 
HETATM   15  O   UNL     1     -45.077 -54.140  12.434  1.00  0.00    -0.273 OA
HETATM   16  N   UNL     1     -46.111 -52.232  11.901  1.00  0.00    -0.369 N 
HETATM   17  H   UNL     1     -46.553 -51.354  12.132  1.00  0.00     0.159 HD
HETATM   18  H   UNL     1     -46.220 -52.585  10.957  1.00  0.00     0.159 HD
ENDBRANCH   8  14
ENDBRANCH   7   8
ENDBRANCH   4   7
BRANCH   1  19
HETATM   19  C   UNL     1     -41.683 -49.014  11.423  1.00  0.00     0.051 A 
HETATM   20  C   UNL     1     -42.409 -48.146  10.691  1.00  0.00     0.123 A 
HETATM   21  N   UNL     1     -41.920 -46.890  10.347  1.00  0.00    -0.323 N 
HETATM   22  C   UNL     1     -40.686 -46.433  10.806  1.00  0.00     0.247 A 
HETATM   23  C   UNL     1     -39.888 -47.403  11.608  1.00  0.00     0.077 A 
HETATM   24  O   UNL     1     -40.229 -45.313  10.591  1.00  0.00    -0.268 OA
HETATM   25  C   UNL     1     -40.360 -48.629  11.854  1.00  0.00     0.036 A 
BRANCH  21  26
HETATM   26  C   UNL     1     -42.747 -45.998   9.542  1.00  0.00     0.127 C 
HETATM   27  C   UNL     1     -43.862 -46.736   8.816  1.00  0.00     0.027 C 
ENDBRANCH  21  26
ENDBRANCH   1  19
TORSDOF 5
ENDMDL
MODEL 4
REMARK VINA RESULT:      -6.3      3.414      6.960
REMARK  5 active torsions:
REMARK  status: ('A' for Active; 'I' for Inactive)
REMARK    1  A    between atoms: C_2  and  N_3 
REMARK    2  A    between atoms: C_5  and  N_6 
REMARK       I    between atoms: N_6  and  C_7 
REMARK       I    between atoms: C_7  and  N_9 
REMARK    3  A    between atoms: N_9  and  C_10 
REMARK    4  A    between atoms: C_10  and  C_11 
REMARK    5  A    between atoms: C_11  and  C_17 
REMARK       I    between atoms: C_17  and  N_19 
ROOT
HETATM    1  N   UNL     1     -41.518 -49.700  11.079  1.00  0.00    -0.312 N 
HETATM    2  C   UNL     1     -42.128 -50.228  12.196  1.00  0.00     0.298 C 
HETATM    3  O   UNL     1     -42.838 -49.597  12.972  1.00  0.00    -0.254 OA
HETATM    4  N   UNL     1     -41.760 -51.545  12.421  1.00  0.00    -0.243 NA
HETATM    5  H   UNL     1     -40.672 -50.190  10.826  1.00  0.00     0.170 HD
HETATM    6  H   UNL     1     -41.775 -52.129  11.587  1.00  0.00     0.132 HD
ENDROOT
BRANCH   4   7
HETATM    7  C   UNL     1     -42.341 -52.164  13.595  1.00  0.00     0.116 C 
BRANCH   7   8
HETATM    8  C   UNL     1     -41.637 -53.411  14.188  1.00  0.00     0.056 C 
HETATM    9  C   UNL     1     -42.723 -54.515  14.300  1.00  0.00     0.046 C 
HETATM   10  C   UNL     1     -43.737 -54.190  15.399  1.00  0.00     0.168 C 
HETATM   11  O   UNL     1     -43.067 -54.036  16.648  1.00  0.00    -0.391 OA
HETATM   12  C   UNL     1     -42.128 -52.962  16.651  1.00  0.00     0.168 C 
HETATM   13  C   UNL     1     -41.050 -53.183  15.597  1.00  0.00     0.046 C 
BRANCH   8  14
HETATM   14  C   UNL     1     -40.490 -53.814  13.250  1.00  0.00     0.225 C 
HETATM   15  O   UNL     1     -39.308 -53.570  13.489  1.00  0.00    -0.273 OA
HETATM   16  N   UNL     1     -40.801 -54.566  12.159  1.00  0.00    -0.369 N 
HETATM   17  H   UNL     1     -41.729 -54.896  11.937  1.00  0.00     0.159 HD
HETATM   18  H   UNL     1     -40.033 -54.888  11.581  1.00  0.00     0.159 HD
ENDBRANCH   8  14
ENDBRANCH   7   8
ENDBRANCH   4   7
BRANCH   1  19
HETATM   19  C   UNL     1     -41.589 -48.352  10.781  1.00  0.00     0.051 A 
HETATM   20  C   UNL     1     -42.580 -47.789  10.062  1.00  0.00     0.123 A 
HETATM   21  N   UNL     1     -42.644 -46.416   9.854  1.00  0.00    -0.323 N 
HETATM   22  C   UNL     1     -41.732 -45.541  10.441  1.00  0.00     0.247 A 
HETATM   23  C   UNL     1     -40.635 -46.174  11.227  1.00  0.00     0.077 A 
HETATM   24  O   UNL     1     -41.773 -44.317  10.347  1.00  0.00    -0.268 OA
HETATM   25  C   UNL     1     -40.564 -47.504  11.342  1.00  0.00     0.036 A 
BRANCH  21  26
HETATM   26  C   UNL     1     -43.735 -45.866   9.056  1.00  0.00     0.127 C 
HETATM   27  C   UNL     1     -44.938 -46.795   8.995  1.00  0.00     0.027 C 
ENDBRANCH  21  26
ENDBRANCH   1  19
TORSDOF 5
ENDMDL
MODEL 5
REMARK VINA RESULT:      -6.3      3.496      7.054
REMARK  5 active torsions:
REMARK  status: ('A' for Active; 'I' for Inactive)
REMARK    1  A    between atoms: C_2  and  N_3 
REMARK    2  A    between atoms: C_5  and  N_6 
REMARK       I    between atoms: N_6  and  C_7 
REMARK       I    between atoms: C_7  and  N_9 
REMARK    3  A    between atoms: N_9  and  C_10 
REMARK    4  A    between atoms: C_10  and  C_11 
REMARK    5  A    between atoms: C_11  and  C_17 
REMARK       I    between atoms: C_17  and  N_19 
ROOT
HETATM    1  N   UNL     1     -41.455 -49.533  11.195  1.00  0.00    -0.312 N 
HETATM    2  C   UNL     1     -41.972 -50.103  12.338  1.00  0.00     0.298 C 
HETATM    3  O   UNL     1     -42.782 -49.565  13.087  1.00  0.00    -0.254 OA
HETATM    4  N   UNL     1     -41.388 -51.328  12.622  1.00  0.00    -0.243 NA
HETATM    5  H   UNL     1     -40.538 -49.885  10.961  1.00  0.00     0.170 HD
HETATM    6  H   UNL     1     -41.302 -51.944  11.816  1.00  0.00     0.132 HD
ENDROOT
BRANCH   4   7
HETATM    7  C   UNL     1     -41.862 -51.981  13.826  1.00  0.00     0.116 C 
BRANCH   7   8
HETATM    8  C   UNL     1     -42.125 -53.508  13.774  1.00  0.00     0.056 C 
HETATM    9  C   UNL     1     -42.147 -53.998  15.246  1.00  0.00     0.046 C 
HETATM   10  C   UNL     1     -40.750 -53.954  15.869  1.00  0.00     0.168 C 
HETATM   11  O   UNL     1     -39.850 -54.751  15.103  1.00  0.00    -0.391 OA
HETATM   12  C   UNL     1     -39.696 -54.289  13.762  1.00  0.00     0.168 C 
HETATM   13  C   UNL     1     -41.032 -54.303  13.028  1.00  0.00     0.046 C 
BRANCH   8  14
HETATM   14  C   UNL     1     -43.463 -53.746  13.059  1.00  0.00     0.225 C 
HETATM   15  O   UNL     1     -44.413 -54.323  13.585  1.00  0.00    -0.273 OA
HETATM   16  N   UNL     1     -43.625 -53.197  11.824  1.00  0.00    -0.369 N 
HETATM   17  H   UNL     1     -42.936 -52.626  11.357  1.00  0.00     0.159 HD
HETATM   18  H   UNL     1     -44.533 -53.298  11.385  1.00  0.00     0.159 HD
ENDBRANCH   8  14
ENDBRANCH   7   8
ENDBRANCH   4   7
BRANCH   1  19
HETATM   19  C   UNL     1     -41.751 -48.231  10.835  1.00  0.00     0.051 A 
HETATM   20  C   UNL     1     -42.763 -47.886  10.015  1.00  0.00     0.123 A 
HETATM   21  N   UNL     1     -43.064 -46.556   9.744  1.00  0.00    -0.323 N 
HETATM   22  C   UNL     1     -42.386 -45.509  10.365  1.00  0.00     0.247 A 
HETATM   23  C   UNL     1     -41.264 -45.901  11.263  1.00  0.00     0.077 A 
HETATM   24  O   UNL     1     -42.648 -44.318  10.216  1.00  0.00    -0.268 OA
HETATM   25  C   UNL     1     -40.956 -47.189  11.440  1.00  0.00     0.036 A 
BRANCH  21  26
HETATM   26  C   UNL     1     -44.164 -46.245   8.837  1.00  0.00     0.127 C 
HETATM   27  C   UNL     1     -45.395 -47.099   9.101  1.00  0.00     0.027 C 
ENDBRANCH  21  26
ENDBRANCH   1  19
TORSDOF 5
ENDMDL
MODEL 6
REMARK VINA RESULT:      -6.2      3.196      7.414
REMARK  5 active torsions:
REMARK  status: ('A' for Active; 'I' for Inactive)
REMARK    1  A    between atoms: C_2  and  N_3 
REMARK    2  A    between atoms: C_5  and  N_6 
REMARK       I    between atoms: N_6  and  C_7 
REMARK       I    between atoms: C_7  and  N_9 
REMARK    3  A    between atoms: N_9  and  C_10 
REMARK    4  A    between atoms: C_10  and  C_11 
REMARK    5  A    between atoms: C_11  and  C_17 
REMARK       I    between atoms: C_17  and  N_19 
ROOT
HETATM    1  N   UNL     1     -43.209 -48.892  11.950  1.00  0.00    -0.312 N 
HETATM    2  C   UNL     1     -42.809 -49.756  12.945  1.00  0.00     0.298 C 
HETATM    3  O   UNL     1     -41.940 -49.515  13.777  1.00  0.00    -0.254 OA
HETATM    4  N   UNL     1     -43.423 -50.995  12.841  1.00  0.00    -0.243 NA
HETATM    5  H   UNL     1     -43.574 -49.370  11.139  1.00  0.00     0.170 HD
HETATM    6  H   UNL     1     -44.425 -50.949  12.667  1.00  0.00     0.132 HD
ENDROOT
BRANCH   4   7
HETATM    7  C   UNL     1     -43.034 -51.970  13.840  1.00  0.00     0.116 C 
BRANCH   7   8
HETATM    8  C   UNL     1     -42.548 -53.360  13.354  1.00  0.00     0.056 C 
HETATM    9  C   UNL     1     -43.717 -53.969  12.535  1.00  0.00     0.046 C 
HETATM   10  C   UNL     1     -44.889 -54.359  13.439  1.00  0.00     0.168 C 
HETATM   11  O   UNL     1     -44.451 -55.286  14.429  1.00  0.00    -0.391 OA
HETATM   12  C   UNL     1     -43.450 -54.752  15.293  1.00  0.00     0.168 C 
HETATM   13  C   UNL     1     -42.216 -54.339  14.501  1.00  0.00     0.046 C 
BRANCH   8  14
HETATM   14  C   UNL     1     -41.282 -53.164  12.509  1.00  0.00     0.225 C 
HETATM   15  O   UNL     1     -40.165 -53.526  12.875  1.00  0.00    -0.273 OA
HETATM   16  N   UNL     1     -41.433 -52.659  11.253  1.00  0.00    -0.369 N 
HETATM   17  H   UNL     1     -42.321 -52.426  10.834  1.00  0.00     0.159 HD
HETATM   18  H   UNL     1     -40.604 -52.596  10.674  1.00  0.00     0.159 HD
ENDBRANCH   8  14
ENDBRANCH   7   8
ENDBRANCH   4   7
BRANCH   1  19
HETATM   19  C   UNL     1     -42.582 -47.677  11.747  1.00  0.00     0.051 A 
HETATM   20  C   UNL     1     -42.912 -46.540  12.392  1.00  0.00     0.123 A 
HETATM   21  N   UNL     1     -42.200 -45.360  12.206  1.00  0.00    -0.323 N 
HETATM   22  C   UNL     1     -41.061 -45.309  11.405  1.00  0.00     0.247 A 
HETATM   23  C   UNL     1     -40.709 -46.569  10.691  1.00  0.00     0.077 A 
HETATM   24  O   UNL     1     -40.355 -44.316  11.252  1.00  0.00    -0.268 OA
HETATM   25  C   UNL     1     -41.463 -47.663  10.836  1.00  0.00     0.036 A 
BRANCH  21  26
HETATM   26  C   UNL     1     -42.613 -44.158  12.922  1.00  0.00     0.127 C 
HETATM   27  C   UNL     1     -42.339 -44.248  14.416  1.00  0.00     0.027 C 
ENDBRANCH  21  26
ENDBRANCH   1  19
TORSDOF 5
ENDMDL
MODEL 7
REMARK VINA RESULT:      -6.1      3.444      8.037
REMARK  5 active torsions:
REMARK  status: ('A' for Active; 'I' for Inactive)
REMARK    1  A    between atoms: C_2  and  N_3 
REMARK    2  A    between atoms: C_5  and  N_6 
REMARK       I    between atoms: N_6  and  C_7 
REMARK       I    between atoms: C_7  and  N_9 
REMARK    3  A    between atoms: N_9  and  C_10 
REMARK    4  A    between atoms: C_10  and  C_11 
REMARK    5  A    between atoms: C_11  and  C_17 
REMARK       I    between atoms: C_17  and  N_19 
ROOT
HETATM    1  N   UNL     1     -42.464 -49.818  11.808  1.00  0.00    -0.312 N 
HETATM    2  C   UNL     1     -43.156 -50.129  12.958  1.00  0.00     0.298 C 
HETATM    3  O   UNL     1     -43.578 -49.308  13.768  1.00  0.00    -0.254 OA
HETATM    4  N   UNL     1     -43.234 -51.497  13.169  1.00  0.00    -0.243 NA
HETATM    5  H   UNL     1     -41.842 -50.557  11.513  1.00  0.00     0.170 HD
HETATM    6  H   UNL     1     -43.484 -52.032  12.340  1.00  0.00     0.132 HD
ENDROOT
BRANCH   4   7
HETATM    7  C   UNL     1     -43.927 -51.904  14.375  1.00  0.00     0.116 C 
BRANCH   7   8
HETATM    8  C   UNL     1     -45.315 -52.578  14.228  1.00  0.00     0.056 C 
HETATM    9  C   UNL     1     -46.369 -51.490  14.567  1.00  0.00     0.046 C 
HETATM   10  C   UNL     1     -46.357 -51.148  16.058  1.00  0.00     0.168 C 
HETATM   11  O   UNL     1     -46.603 -52.322  16.828  1.00  0.00    -0.391 OA
HETATM   12  C   UNL     1     -45.608 -53.328  16.649  1.00  0.00     0.168 C 
HETATM   13  C   UNL     1     -45.536 -53.764  15.191  1.00  0.00     0.046 C 
BRANCH   8  14
HETATM   14  C   UNL     1     -45.453 -53.097  12.789  1.00  0.00     0.225 C 
HETATM   15  O   UNL     1     -44.924 -54.134  12.394  1.00  0.00    -0.273 OA
HETATM   16  N   UNL     1     -46.289 -52.422  11.953  1.00  0.00    -0.369 N 
HETATM   17  H   UNL     1     -46.839 -51.619  12.219  1.00  0.00     0.159 HD
HETATM   18  H   UNL     1     -46.430 -52.807  11.026  1.00  0.00     0.159 HD
ENDBRANCH   8  14
ENDBRANCH   7   8
ENDBRANCH   4   7
BRANCH   1  19
HETATM   19  C   UNL     1     -42.100 -48.519  11.508  1.00  0.00     0.051 A 
HETATM   20  C   UNL     1     -41.074 -47.868  12.092  1.00  0.00     0.123 A 
HETATM   21  N   UNL     1     -40.703 -46.587  11.701  1.00  0.00    -0.323 N 
HETATM   22  C   UNL     1     -41.321 -45.938  10.633  1.00  0.00     0.247 A 
HETATM   23  C   UNL     1     -42.459 -46.662  10.000  1.00  0.00     0.077 A 
HETATM   24  O   UNL     1     -40.996 -44.835  10.200  1.00  0.00    -0.268 OA
HETATM   25  C   UNL     1     -42.835 -47.861  10.454  1.00  0.00     0.036 A 
BRANCH  21  26
HETATM   26  C   UNL     1     -39.591 -45.928  12.378  1.00  0.00     0.127 C 
HETATM   27  C   UNL     1     -39.994 -45.345  13.724  1.00  0.00     0.027 C 
ENDBRANCH  21  26
ENDBRANCH   1  19
TORSDOF 5
ENDMDL
MODEL 8
REMARK VINA RESULT:      -6.0      2.296      3.014
REMARK  5 active torsions:
REMARK  status: ('A' for Active; 'I' for Inactive)
REMARK    1  A    between atoms: C_2  and  N_3 
REMARK    2  A    between atoms: C_5  and  N_6 
REMARK       I    between atoms: N_6  and  C_7 
REMARK       I    between atoms: C_7  and  N_9 
REMARK    3  A    between atoms: N_9  and  C_10 
REMARK    4  A    between atoms: C_10  and  C_11 
REMARK    5  A    between atoms: C_11  and  C_17 
REMARK       I    between atoms: C_17  and  N_19 
ROOT
HETATM    1  N   UNL     1     -42.195 -51.556  12.030  1.00  0.00    -0.312 N 
HETATM    2  C   UNL     1     -42.258 -50.187  12.163  1.00  0.00     0.298 C 
HETATM    3  O   UNL     1     -42.878 -49.594  13.041  1.00  0.00    -0.254 OA
HETATM    4  N   UNL     1     -41.627 -49.529  11.118  1.00  0.00    -0.243 NA
HETATM    5  H   UNL     1     -42.041 -51.851  11.076  1.00  0.00     0.170 HD
HETATM    6  H   UNL     1     -40.716 -49.912  10.877  1.00  0.00     0.132 HD
ENDROOT
BRANCH   4   7
HETATM    7  C   UNL     1     -41.672 -48.082  11.174  1.00  0.00     0.116 C 
BRANCH   7   8
HETATM    8  C   UNL     1     -40.468 -47.338  11.806  1.00  0.00     0.056 C 
HETATM    9  C   UNL     1     -41.014 -46.613  13.065  1.00  0.00     0.046 C 
HETATM   10  C   UNL     1     -41.926 -45.444  12.685  1.00  0.00     0.168 C 
HETATM   11  O   UNL     1     -41.215 -44.522  11.861  1.00  0.00    -0.391 OA
HETATM   12  C   UNL     1     -40.777 -45.094  10.631  1.00  0.00     0.168 C 
HETATM   13  C   UNL     1     -39.842 -46.270  10.883  1.00  0.00     0.046 C 
BRANCH   8  14
HETATM   14  C   UNL     1     -39.385 -48.369  12.150  1.00  0.00     0.225 C 
HETATM   15  O   UNL     1     -39.224 -48.824  13.282  1.00  0.00    -0.273 OA
HETATM   16  N   UNL     1     -38.644 -48.873  11.125  1.00  0.00    -0.369 N 
HETATM   17  H   UNL     1     -38.773 -48.630  10.153  1.00  0.00     0.159 HD
HETATM   18  H   UNL     1     -37.978 -49.603  11.347  1.00  0.00     0.159 HD
ENDBRANCH   8  14
ENDBRANCH   7   8
ENDBRANCH   4   7
BRANCH   1  19
HETATM   19  C   UNL     1     -42.922 -52.400  12.849  1.00  0.00     0.051 A 
HETATM   20  C   UNL     1     -44.245 -52.276  13.077  1.00  0.00     0.123 A 
HETATM   21  N   UNL     1     -44.943 -53.196  13.852  1.00  0.00    -0.323 N 
HETATM   22  C   UNL     1     -44.329 -54.336  14.369  1.00  0.00     0.247 A 
HETATM   23  C   UNL     1     -42.865 -54.459  14.118  1.00  0.00     0.077 A 
HETATM   24  O   UNL     1     -44.905 -55.215  15.004  1.00  0.00    -0.268 OA
HETATM   25  C   UNL     1     -42.214 -53.514  13.433  1.00  0.00     0.036 A 
BRANCH  21  26
HETATM   26  C   UNL     1     -46.372 -53.003  14.073  1.00  0.00     0.127 C 
HETATM   27  C   UNL     1     -46.724 -51.553  14.370  1.00  0.00     0.027 C 
ENDBRANCH  21  26
ENDBRANCH   1  19
TORSDOF 5
ENDMDL
MODEL 9
REMARK VINA RESULT:      -6.0      2.233      3.364
REMARK  5 active torsions:
REMARK  status: ('A' for Active; 'I' for Inactive)
REMARK    1  A    between atoms: C_2  and  N_3 
REMARK    2  A    between atoms: C_5  and  N_6 
REMARK       I    between atoms: N_6  and  C_7 
REMARK       I    between atoms: C_7  and  N_9 
REMARK    3  A    between atoms: N_9  and  C_10 
REMARK    4  A    between atoms: C_10  and  C_11 
REMARK    5  A    between atoms: C_11  and  C_17 
REMARK       I    between atoms: C_17  and  N_19 
ROOT
HETATM    1  N   UNL     1     -43.805 -50.639  12.835  1.00  0.00    -0.312 N 
HETATM    2  C   UNL     1     -42.460 -50.882  12.666  1.00  0.00     0.298 C 
HETATM    3  O   UNL     1     -41.804 -51.687  13.321  1.00  0.00    -0.254 OA
HETATM    4  N   UNL     1     -41.885 -50.029  11.737  1.00  0.00    -0.243 NA
HETATM    5  H   UNL     1     -44.072 -49.705  12.559  1.00  0.00     0.170 HD
HETATM    6  H   UNL     1     -42.428 -49.918  10.883  1.00  0.00     0.132 HD
ENDROOT
BRANCH   4   7
HETATM    7  C   UNL     1     -40.463 -50.207  11.522  1.00  0.00     0.116 C 
BRANCH   7   8
HETATM    8  C   UNL     1     -39.496 -49.153  12.118  1.00  0.00     0.056 C 
HETATM    9  C   UNL     1     -38.101 -49.440  11.502  1.00  0.00     0.046 C 
HETATM   10  C   UNL     1     -37.506 -50.739  12.050  1.00  0.00     0.168 C 
HETATM   11  O   UNL     1     -37.406 -50.666  13.471  1.00  0.00    -0.391 OA
HETATM   12  C   UNL     1     -38.670 -50.512  14.113  1.00  0.00     0.168 C 
HETATM   13  C   UNL     1     -39.358 -49.233  13.654  1.00  0.00     0.046 C 
BRANCH   8  14
HETATM   14  C   UNL     1     -40.018 -47.755  11.756  1.00  0.00     0.225 C 
HETATM   15  O   UNL     1     -39.867 -46.772  12.479  1.00  0.00    -0.273 OA
HETATM   16  N   UNL     1     -40.580 -47.590  10.527  1.00  0.00    -0.369 N 
HETATM   17  H   UNL     1     -40.657 -48.317   9.831  1.00  0.00     0.159 HD
HETATM   18  H   UNL     1     -40.860 -46.652  10.265  1.00  0.00     0.159 HD
ENDBRANCH   8  14
ENDBRANCH   7   8
ENDBRANCH   4   7
BRANCH   1  19
HETATM   19  C   UNL     1     -44.531 -51.237  13.848  1.00  0.00     0.051 A 
HETATM   20  C   UNL     1     -45.103 -52.453  13.749  1.00  0.00     0.123 A 
HETATM   21  N   UNL     1     -45.759 -53.042  14.825  1.00  0.00    -0.323 N 
HETATM   22  C   UNL     1     -45.793 -52.442  16.082  1.00  0.00     0.247 A 
HETATM   23  C   UNL     1     -45.165 -51.094  16.177  1.00  0.00     0.077 A 
HETATM   24  O   UNL     1     -46.300 -52.940  17.083  1.00  0.00    -0.268 OA
HETATM   25  C   UNL     1     -44.610 -50.527  15.102  1.00  0.00     0.036 A 
BRANCH  21  26
HETATM   26  C   UNL     1     -46.370 -54.356  14.654  1.00  0.00     0.127 C 
HETATM   27  C   UNL     1     -45.531 -55.279  13.783  1.00  0.00     0.027 C 
ENDBRANCH  21  26
ENDBRANCH   1  19
TORSDOF 5
ENDMDL
