MODEL 1
REMARK VINA RESULT:      -4.3      0.000      0.000
REMARK  4 active torsions:
REMARK  status: ('A' for Active; 'I' for Inactive)
REMARK    1  A    between atoms: N_1  and  C_2 
REMARK    2  A    between atoms: C_2  and  C_3 
REMARK    3  A    between atoms: C_3  and  O_4 
REMARK    4  A    between atoms: C_3  and  C_5 
ROOT
HETATM    1  C   UNL     1     -44.000 -47.353   9.091  1.00  0.00    -0.025 A 
HETATM    2  C   UNL     1     -43.808 -47.963   7.844  1.00  0.00     0.027 A 
HETATM    3  C   UNL     1     -44.884 -48.570   7.216  1.00  0.00     0.088 A 
HETATM    4  N   UNL     1     -46.129 -48.613   7.734  1.00  0.00    -0.375 N 
ATOM      5  HN  UNL     1     -46.903 -49.052   7.236  1.00  0.00     0.164 HD
HETATM    6  C   UNL     1     -46.295 -48.044   8.945  1.00  0.00     0.088 A 
HETATM    7  C   UNL     1     -45.281 -47.419   9.653  1.00  0.00     0.027 A 
ENDROOT
BRANCH   1   8
HETATM    8  C   UNL     1     -42.826 -46.736   9.807  1.00  0.00     0.179 C 
BRANCH   8   9
HETATM    9  C   UNL     1     -41.762 -47.739  10.325  1.00  0.00     0.303 C 
BRANCH   9  10
HETATM   10  N   UNL     1     -40.465 -47.083  10.551  1.00  0.00     0.081 N 
HETATM   11  H   UNL     1     -39.758 -47.802  10.715  1.00  0.00     0.312 HD
HETATM   12  H   UNL     1     -40.505 -46.541  11.416  1.00  0.00     0.312 HD
ENDBRANCH   9  10
ENDBRANCH   8   9
BRANCH   8  13
HETATM   13  O   UNL     1     -42.227 -45.815   8.891  1.00  0.00    -0.389 OA
HETATM   14  H   UNL     1     -41.498 -46.302   8.465  1.00  0.00     0.210 HD
ENDBRANCH   8  13
ENDBRANCH   1   8
TORSDOF 4
ENDMDL
MODEL 2
REMARK VINA RESULT:      -4.3      7.666      8.246
REMARK  4 active torsions:
REMARK  status: ('A' for Active; 'I' for Inactive)
REMARK    1  A    between atoms: N_1  and  C_2 
REMARK    2  A    between atoms: C_2  and  C_3 
REMARK    3  A    between atoms: C_3  and  O_4 
REMARK    4  A    between atoms: C_3  and  C_5 
ROOT
HETATM    1  C   UNL     1     -42.190 -53.745  13.298  1.00  0.00    -0.025 A 
HETATM    2  C   UNL     1     -42.433 -54.545  14.422  1.00  0.00     0.027 A 
HETATM    3  C   UNL     1     -43.729 -54.951  14.695  1.00  0.00     0.088 A 
HETATM    4  N   UNL     1     -44.795 -54.624  13.935  1.00  0.00    -0.375 N 
ATOM      5  HN  UNL     1     -45.734 -54.956  14.155  1.00  0.00     0.164 HD
HETATM    6  C   UNL     1     -44.551 -53.833  12.870  1.00  0.00     0.088 A 
HETATM    7  C   UNL     1     -43.292 -53.372  12.519  1.00  0.00     0.027 A 
ENDROOT
BRANCH   1   8
HETATM    8  C   UNL     1     -40.792 -53.254  13.021  1.00  0.00     0.179 C 
BRANCH   8   9
HETATM    9  C   UNL     1     -39.713 -53.722  14.033  1.00  0.00     0.303 C 
BRANCH   9  10
HETATM   10  N   UNL     1     -38.961 -54.880  13.524  1.00  0.00     0.081 N 
HETATM   11  H   UNL     1     -39.342 -55.729  13.946  1.00  0.00     0.312 HD
HETATM   12  H   UNL     1     -37.994 -54.826  13.849  1.00  0.00     0.312 HD
ENDBRANCH   9  10
ENDBRANCH   8   9
BRANCH   8  13
HETATM   13  O   UNL     1     -40.456 -53.698  11.704  1.00  0.00    -0.389 OA
HETATM   14  H   UNL     1     -41.269 -53.599  11.176  1.00  0.00     0.210 HD
ENDBRANCH   8  13
ENDBRANCH   1   8
TORSDOF 4
ENDMDL
MODEL 3
REMARK VINA RESULT:      -4.2      6.910      7.516
REMARK  4 active torsions:
REMARK  status: ('A' for Active; 'I' for Inactive)
REMARK    1  A    between atoms: N_1  and  C_2 
REMARK    2  A    between atoms: C_2  and  C_3 
REMARK    3  A    between atoms: C_3  and  O_4 
REMARK    4  A    between atoms: C_3  and  C_5 
ROOT
HETATM    1  C   UNL     1     -42.555 -53.415  12.769  1.00  0.00    -0.025 A 
HETATM    2  C   UNL     1     -43.932 -53.524  12.534  1.00  0.00     0.027 A 
HETATM    3  C   UNL     1     -44.711 -54.253  13.417  1.00  0.00     0.088 A 
HETATM    4  N   UNL     1     -44.225 -54.876  14.511  1.00  0.00    -0.375 N 
ATOM      5  HN  UNL     1     -44.831 -55.389  15.151  1.00  0.00     0.164 HD
HETATM    6  C   UNL     1     -42.895 -54.783  14.712  1.00  0.00     0.088 A 
HETATM    7  C   UNL     1     -42.033 -54.082  13.883  1.00  0.00     0.027 A 
ENDROOT
BRANCH   1   8
HETATM    8  C   UNL     1     -41.689 -52.667  11.786  1.00  0.00     0.179 C 
BRANCH   8   9
HETATM    9  C   UNL     1     -41.285 -51.233  12.216  1.00  0.00     0.303 C 
BRANCH   9  10
HETATM   10  N   UNL     1     -40.664 -50.491  11.107  1.00  0.00     0.081 N 
HETATM   11  H   UNL     1     -41.294 -49.738  10.824  1.00  0.00     0.312 HD
HETATM   12  H   UNL     1     -40.587 -51.101  10.292  1.00  0.00     0.312 HD
ENDBRANCH   9  10
ENDBRANCH   8   9
BRANCH   8  13
HETATM   13  O   UNL     1     -40.521 -53.466  11.580  1.00  0.00    -0.389 OA
HETATM   14  H   UNL     1     -40.016 -53.019  10.876  1.00  0.00     0.210 HD
ENDBRANCH   8  13
ENDBRANCH   1   8
TORSDOF 4
ENDMDL
MODEL 4
REMARK VINA RESULT:      -4.2      7.215      7.545
REMARK  4 active torsions:
REMARK  status: ('A' for Active; 'I' for Inactive)
REMARK    1  A    between atoms: N_1  and  C_2 
REMARK    2  A    between atoms: C_2  and  C_3 
REMARK    3  A    between atoms: C_3  and  O_4 
REMARK    4  A    between atoms: C_3  and  C_5 
ROOT
HETATM    1  C   UNL     1     -44.109 -53.220  13.260  1.00  0.00    -0.025 A 
HETATM    2  C   UNL     1     -44.436 -54.510  13.697  1.00  0.00     0.027 A 
HETATM    3  C   UNL     1     -45.744 -54.789  14.061  1.00  0.00     0.088 A 
HETATM    4  N   UNL     1     -46.744 -53.884  14.020  1.00  0.00    -0.375 N 
ATOM      5  HN  UNL     1     -47.700 -54.128  14.278  1.00  0.00     0.164 HD
HETATM    6  C   UNL     1     -46.410 -52.640  13.621  1.00  0.00     0.088 A 
HETATM    7  C   UNL     1     -45.131 -52.263  13.243  1.00  0.00     0.027 A 
ENDROOT
BRANCH   1   8
HETATM    8  C   UNL     1     -42.680 -52.892  12.911  1.00  0.00     0.179 C 
BRANCH   8   9
HETATM    9  C   UNL     1     -41.631 -53.946  13.354  1.00  0.00     0.303 C 
BRANCH   9  10
HETATM   10  N   UNL     1     -40.822 -54.414  12.217  1.00  0.00     0.081 N 
HETATM   11  H   UNL     1     -41.222 -54.040  11.354  1.00  0.00     0.312 HD
HETATM   12  H   UNL     1     -40.905 -55.429  12.136  1.00  0.00     0.312 HD
ENDBRANCH   9  10
ENDBRANCH   8   9
BRANCH   8  13
HETATM   13  O   UNL     1     -42.634 -52.720  11.492  1.00  0.00    -0.389 OA
HETATM   14  H   UNL     1     -41.975 -53.362  11.169  1.00  0.00     0.210 HD
ENDBRANCH   8  13
ENDBRANCH   1   8
TORSDOF 4
ENDMDL
MODEL 5
REMARK VINA RESULT:      -4.0      7.712      8.211
REMARK  4 active torsions:
REMARK  status: ('A' for Active; 'I' for Inactive)
REMARK    1  A    between atoms: N_1  and  C_2 
REMARK    2  A    between atoms: C_2  and  C_3 
REMARK    3  A    between atoms: C_3  and  O_4 
REMARK    4  A    between atoms: C_3  and  C_5 
ROOT
HETATM    1  C   UNL     1     -45.874 -52.449  14.218  1.00  0.00    -0.025 A 
HETATM    2  C   UNL     1     -46.780 -51.446  14.589  1.00  0.00     0.027 A 
HETATM    3  C   UNL     1     -47.236 -51.397  15.896  1.00  0.00     0.088 A 
HETATM    4  N   UNL     1     -46.859 -52.266  16.857  1.00  0.00    -0.375 N 
ATOM      5  HN  UNL     1     -47.200 -52.190  17.815  1.00  0.00     0.164 HD
HETATM    6  C   UNL     1     -46.006 -53.241  16.481  1.00  0.00     0.088 A 
HETATM    7  C   UNL     1     -45.499 -53.376  15.198  1.00  0.00     0.027 A 
ENDROOT
BRANCH   1   8
HETATM    8  C   UNL     1     -45.411 -52.542  12.787  1.00  0.00     0.179 C 
BRANCH   8   9
HETATM    9  C   UNL     1     -44.285 -53.576  12.521  1.00  0.00     0.303 C 
BRANCH   9  10
HETATM   10  N   UNL     1     -43.111 -52.946  11.895  1.00  0.00     0.081 N 
HETATM   11  H   UNL     1     -43.431 -52.203  11.272  1.00  0.00     0.312 HD
HETATM   12  H   UNL     1     -42.643 -53.624  11.292  1.00  0.00     0.312 HD
ENDBRANCH   9  10
ENDBRANCH   8   9
BRANCH   8  13
HETATM   13  O   UNL     1     -46.565 -52.861  12.004  1.00  0.00    -0.389 OA
HETATM   14  H   UNL     1     -46.984 -52.007  11.792  1.00  0.00     0.210 HD
ENDBRANCH   8  13
ENDBRANCH   1   8
TORSDOF 4
ENDMDL
MODEL 6
REMARK VINA RESULT:      -4.0      1.700      4.469
REMARK  4 active torsions:
REMARK  status: ('A' for Active; 'I' for Inactive)
REMARK    1  A    between atoms: N_1  and  C_2 
REMARK    2  A    between atoms: C_2  and  C_3 
REMARK    3  A    between atoms: C_3  and  O_4 
REMARK    4  A    between atoms: C_3  and  C_5 
ROOT
HETATM    1  C   UNL     1     -42.600 -46.520   9.727  1.00  0.00    -0.025 A 
HETATM    2  C   UNL     1     -41.725 -45.599  10.318  1.00  0.00     0.027 A 
HETATM    3  C   UNL     1     -40.699 -46.064  11.124  1.00  0.00     0.088 A 
HETATM    4  N   UNL     1     -40.478 -47.370  11.382  1.00  0.00    -0.375 N 
ATOM      5  HN  UNL     1     -39.701 -47.678  11.966  1.00  0.00     0.164 HD
HETATM    6  C   UNL     1     -41.342 -48.244  10.827  1.00  0.00     0.088 A 
HETATM    7  C   UNL     1     -42.402 -47.876  10.013  1.00  0.00     0.027 A 
ENDROOT
BRANCH   1   8
HETATM    8  C   UNL     1     -43.752 -46.023   8.891  1.00  0.00     0.179 C 
BRANCH   8   9
HETATM    9  C   UNL     1     -45.052 -46.864   8.985  1.00  0.00     0.303 C 
BRANCH   9  10
HETATM   10  N   UNL     1     -46.247 -46.040   8.745  1.00  0.00     0.081 N 
HETATM   11  H   UNL     1     -46.043 -45.377   7.995  1.00  0.00     0.312 HD
HETATM   12  H   UNL     1     -46.436 -45.468   9.570  1.00  0.00     0.312 HD
ENDBRANCH   9  10
ENDBRANCH   8   9
BRANCH   8  13
HETATM   13  O   UNL     1     -44.006 -44.678   9.304  1.00  0.00    -0.389 OA
HETATM   14  H   UNL     1     -44.951 -44.649   9.542  1.00  0.00     0.210 HD
ENDBRANCH   8  13
ENDBRANCH   1   8
TORSDOF 4
ENDMDL
MODEL 7
REMARK VINA RESULT:      -3.9      6.269      8.174
REMARK  4 active torsions:
REMARK  status: ('A' for Active; 'I' for Inactive)
REMARK    1  A    between atoms: N_1  and  C_2 
REMARK    2  A    between atoms: C_2  and  C_3 
REMARK    3  A    between atoms: C_3  and  O_4 
REMARK    4  A    between atoms: C_3  and  C_5 
ROOT
HETATM    1  C   UNL     1     -40.442 -52.492  13.188  1.00  0.00    -0.025 A 
HETATM    2  C   UNL     1     -39.748 -51.779  14.175  1.00  0.00     0.027 A 
HETATM    3  C   UNL     1     -39.047 -52.476  15.145  1.00  0.00     0.088 A 
HETATM    4  N   UNL     1     -38.983 -53.823  15.205  1.00  0.00    -0.375 N 
ATOM      5  HN  UNL     1     -38.442 -54.304  15.922  1.00  0.00     0.164 HD
HETATM    6  C   UNL     1     -39.675 -54.497  14.264  1.00  0.00     0.088 A 
HETATM    7  C   UNL     1     -40.410 -53.891  13.258  1.00  0.00     0.027 A 
ENDROOT
BRANCH   1   8
HETATM    8  C   UNL     1     -41.251 -51.745  12.159  1.00  0.00     0.179 C 
BRANCH   8   9
HETATM    9  C   UNL     1     -40.771 -50.301  11.860  1.00  0.00     0.303 C 
BRANCH   9  10
HETATM   10  N   UNL     1     -40.479 -50.114  10.430  1.00  0.00     0.081 N 
HETATM   11  H   UNL     1     -39.467 -50.160  10.293  1.00  0.00     0.312 HD
HETATM   12  H   UNL     1     -40.748 -49.169  10.149  1.00  0.00     0.312 HD
ENDBRANCH   9  10
ENDBRANCH   8   9
BRANCH   8  13
HETATM   13  O   UNL     1     -41.219 -52.530  10.965  1.00  0.00    -0.389 OA
HETATM   14  H   UNL     1     -40.422 -53.087  11.035  1.00  0.00     0.210 HD
ENDBRANCH   8  13
ENDBRANCH   1   8
TORSDOF 4
ENDMDL
MODEL 8
REMARK VINA RESULT:      -3.9      6.484      7.089
REMARK  4 active torsions:
REMARK  status: ('A' for Active; 'I' for Inactive)
REMARK    1  A    between atoms: N_1  and  C_2 
REMARK    2  A    between atoms: C_2  and  C_3 
REMARK    3  A    between atoms: C_3  and  O_4 
REMARK    4  A    between atoms: C_3  and  C_5 
ROOT
HETATM    1  C   UNL     1     -42.211 -52.608  12.883  1.00  0.00    -0.025 A 
HETATM    2  C   UNL     1     -42.467 -51.258  13.159  1.00  0.00     0.027 A 
HETATM    3  C   UNL     1     -43.777 -50.808  13.170  1.00  0.00     0.088 A 
HETATM    4  N   UNL     1     -44.845 -51.597  12.930  1.00  0.00    -0.375 N 
ATOM      5  HN  UNL     1     -45.799 -51.236  12.965  1.00  0.00     0.164 HD
HETATM    6  C   UNL     1     -44.583 -52.888  12.642  1.00  0.00     0.088 A 
HETATM    7  C   UNL     1     -43.309 -53.430  12.601  1.00  0.00     0.027 A 
ENDROOT
BRANCH   1   8
HETATM    8  C   UNL     1     -40.787 -53.097  12.817  1.00  0.00     0.179 C 
BRANCH   8   9
HETATM    9  C   UNL     1     -40.428 -54.229  13.815  1.00  0.00     0.303 C 
BRANCH   9  10
HETATM   10  N   UNL     1     -39.060 -54.727  13.598  1.00  0.00     0.081 N 
HETATM   11  H   UNL     1     -39.041 -55.266  12.731  1.00  0.00     0.312 HD
HETATM   12  H   UNL     1     -38.820 -55.391  14.336  1.00  0.00     0.312 HD
ENDBRANCH   9  10
ENDBRANCH   8   9
BRANCH   8  13
HETATM   13  O   UNL     1     -40.568 -53.538  11.474  1.00  0.00    -0.389 OA
HETATM   14  H   UNL     1     -41.389 -53.989  11.206  1.00  0.00     0.210 HD
ENDBRANCH   8  13
ENDBRANCH   1   8
TORSDOF 4
ENDMDL
MODEL 9
REMARK VINA RESULT:      -3.9      7.877      8.984
REMARK  4 active torsions:
REMARK  status: ('A' for Active; 'I' for Inactive)
REMARK    1  A    between atoms: N_1  and  C_2 
REMARK    2  A    between atoms: C_2  and  C_3 
REMARK    3  A    between atoms: C_3  and  O_4 
REMARK    4  A    between atoms: C_3  and  C_5 
ROOT
HETATM    1  C   UNL     1     -43.017 -54.038  13.720  1.00  0.00    -0.025 A 
HETATM    2  C   UNL     1     -43.309 -52.998  12.828  1.00  0.00     0.027 A 
HETATM    3  C   UNL     1     -42.274 -52.396  12.131  1.00  0.00     0.088 A 
HETATM    4  N   UNL     1     -40.978 -52.751  12.254  1.00  0.00    -0.375 N 
ATOM      5  HN  UNL     1     -40.243 -52.298  11.712  1.00  0.00     0.164 HD
HETATM    6  C   UNL     1     -40.708 -53.737  13.134  1.00  0.00     0.088 A 
HETATM    7  C   UNL     1     -41.672 -54.395  13.881  1.00  0.00     0.027 A 
ENDROOT
BRANCH   1   8
HETATM    8  C   UNL     1     -44.129 -54.666  14.522  1.00  0.00     0.179 C 
BRANCH   8   9
HETATM    9  C   UNL     1     -45.384 -55.074  13.708  1.00  0.00     0.303 C 
BRANCH   9  10
HETATM   10  N   UNL     1     -46.624 -54.805  14.454  1.00  0.00     0.081 N 
HETATM   11  H   UNL     1     -47.384 -54.663  13.787  1.00  0.00     0.312 HD
HETATM   12  H   UNL     1     -46.533 -53.920  14.955  1.00  0.00     0.312 HD
ENDBRANCH   9  10
ENDBRANCH   8   9
BRANCH   8  13
HETATM   13  O   UNL     1     -43.570 -55.811  15.170  1.00  0.00    -0.389 OA
HETATM   14  H   UNL     1     -44.114 -55.957  15.965  1.00  0.00     0.210 HD
ENDBRANCH   8  13
ENDBRANCH   1   8
TORSDOF 4
ENDMDL
