MODEL 1
REMARK VINA RESULT:      -5.8      0.000      0.000
REMARK  5 active torsions:
REMARK  status: ('A' for Active; 'I' for Inactive)
REMARK    1  A    between atoms: C_2  and  C_3 
REMARK    2  A    between atoms: C_2  and  N_16 
REMARK       I    between atoms: C_3  and  N_5 
REMARK    3  A    between atoms: N_5  and  C_6 
REMARK    4  A    between atoms: N_9  and  C_10 
REMARK    5  A    between atoms: C_10  and  C_11 
REMARK       I    between atoms: C_11  and  N_13 
ROOT
HETATM    1  C   UNL     1     -43.483 -50.682  13.547  1.00  0.00     0.087 C 
HETATM    2  C   UNL     1     -42.532 -51.721  14.148  1.00  0.00     0.055 C 
HETATM    3  C   UNL     1     -42.561 -53.047  13.386  1.00  0.00     0.275 C 
HETATM    4  N   UNL     1     -43.907 -53.619  13.207  1.00  0.00     0.097 N 
HETATM    5  C   UNL     1     -44.786 -52.629  12.559  1.00  0.00     0.275 C 
HETATM    6  C   UNL     1     -44.868 -51.285  13.286  1.00  0.00     0.055 C 
ENDROOT
BRANCH   1   7
HETATM    7  N   UNL     1     -42.919 -50.078  12.345  1.00  0.00    -0.355 N 
HETATM    8  C   UNL     1     -42.786 -48.705  12.216  1.00  0.00     0.242 C 
HETATM    9  O   UNL     1     -43.068 -47.928  13.125  1.00  0.00    -0.271 OA
HETATM   10  H   UNL     1     -42.894 -50.621  11.480  1.00  0.00     0.162 HD
BRANCH   8  11
HETATM   11  C   UNL     1     -42.201 -48.240  10.883  1.00  0.00     0.195 C 
HETATM   12  C   UNL     1     -40.922 -47.425  11.082  1.00  0.00     0.044 C 
BRANCH  11  13
HETATM   13  N   UNL     1     -43.219 -47.545  10.105  1.00  0.00    -0.290 N 
HETATM   14  C   UNL     1     -43.081 -46.433   9.323  1.00  0.00     0.112 A 
HETATM   15  C   UNL     1     -44.329 -46.159   8.815  1.00  0.00     0.037 A 
HETATM   16  C   UNL     1     -45.162 -47.151   9.360  1.00  0.00     0.108 A 
HETATM   17  N   UNL     1     -44.500 -47.984  10.168  1.00  0.00    -0.309 N 
ATOM     18  HN  UNL     1     -44.871 -48.767  10.705  1.00  0.00     0.186 HD
ENDBRANCH  11  13
ENDBRANCH   8  11
ENDBRANCH   1   7
BRANCH   4  19
HETATM   19  C   UNL     1     -44.501 -54.108  14.476  1.00  0.00     0.374 C 
BRANCH  19  20
HETATM   20  C   UNL     1     -45.781 -54.903  14.226  1.00  0.00     0.243 C 
HETATM   21  O   UNL     1     -45.797 -56.040  13.762  1.00  0.00    -0.272 OA
HETATM   22  N   UNL     1     -46.937 -54.266  14.583  1.00  0.00    -0.369 N 
HETATM   23  H   UNL     1     -46.921 -53.256  14.644  1.00  0.00     0.159 HD
HETATM   24  H   UNL     1     -47.803 -54.718  14.320  1.00  0.00     0.159 HD
ENDBRANCH  19  20
ENDBRANCH   4  19
TORSDOF 5
ENDMDL
MODEL 2
REMARK VINA RESULT:      -5.5      2.283      7.702
REMARK  5 active torsions:
REMARK  status: ('A' for Active; 'I' for Inactive)
REMARK    1  A    between atoms: C_2  and  C_3 
REMARK    2  A    between atoms: C_2  and  N_16 
REMARK       I    between atoms: C_3  and  N_5 
REMARK    3  A    between atoms: N_5  and  C_6 
REMARK    4  A    between atoms: N_9  and  C_10 
REMARK    5  A    between atoms: C_10  and  C_11 
REMARK       I    between atoms: C_11  and  N_13 
ROOT
HETATM    1  C   UNL     1     -42.574 -48.958  12.995  1.00  0.00     0.087 C 
HETATM    2  C   UNL     1     -43.086 -47.631  12.429  1.00  0.00     0.055 C 
HETATM    3  C   UNL     1     -42.698 -47.436  10.962  1.00  0.00     0.275 C 
HETATM    4  N   UNL     1     -41.259 -47.598  10.684  1.00  0.00     0.097 N 
HETATM    5  C   UNL     1     -40.804 -48.913  11.171  1.00  0.00     0.275 C 
HETATM    6  C   UNL     1     -41.097 -49.175  12.650  1.00  0.00     0.055 C 
ENDROOT
BRANCH   1   7
HETATM    7  N   UNL     1     -43.404 -50.077  12.560  1.00  0.00    -0.355 N 
HETATM    8  C   UNL     1     -44.169 -50.806  13.456  1.00  0.00     0.242 C 
HETATM    9  O   UNL     1     -44.248 -50.511  14.646  1.00  0.00    -0.271 OA
HETATM   10  H   UNL     1     -43.206 -50.522  11.663  1.00  0.00     0.162 HD
BRANCH   8  11
HETATM   11  C   UNL     1     -44.957 -51.959  12.836  1.00  0.00     0.195 C 
HETATM   12  C   UNL     1     -46.461 -51.684  12.846  1.00  0.00     0.044 C 
BRANCH  11  13
HETATM   13  N   UNL     1     -44.590 -53.216  13.477  1.00  0.00    -0.290 N 
HETATM   14  C   UNL     1     -45.368 -54.319  13.695  1.00  0.00     0.112 A 
HETATM   15  C   UNL     1     -44.571 -55.232  14.344  1.00  0.00     0.037 A 
HETATM   16  C   UNL     1     -43.333 -54.584  14.491  1.00  0.00     0.108 A 
HETATM   17  N   UNL     1     -43.342 -53.347  13.988  1.00  0.00    -0.309 N 
ATOM     18  HN  UNL     1     -42.587 -52.661  13.990  1.00  0.00     0.186 HD
ENDBRANCH  11  13
ENDBRANCH   8  11
ENDBRANCH   1   7
BRANCH   4  19
HETATM   19  C   UNL     1     -40.433 -46.505  11.253  1.00  0.00     0.374 C 
BRANCH  19  20
HETATM   20  C   UNL     1     -40.405 -45.286  10.333  1.00  0.00     0.243 C 
HETATM   21  O   UNL     1     -41.270 -44.416  10.329  1.00  0.00    -0.272 OA
HETATM   22  N   UNL     1     -39.315 -45.208   9.511  1.00  0.00    -0.369 N 
HETATM   23  H   UNL     1     -38.816 -46.064   9.304  1.00  0.00     0.159 HD
HETATM   24  H   UNL     1     -39.329 -44.478   8.810  1.00  0.00     0.159 HD
ENDBRANCH  19  20
ENDBRANCH   4  19
TORSDOF 5
ENDMDL
MODEL 3
REMARK VINA RESULT:      -5.5      2.604      7.884
REMARK  5 active torsions:
REMARK  status: ('A' for Active; 'I' for Inactive)
REMARK    1  A    between atoms: C_2  and  C_3 
REMARK    2  A    between atoms: C_2  and  N_16 
REMARK       I    between atoms: C_3  and  N_5 
REMARK    3  A    between atoms: N_5  and  C_6 
REMARK    4  A    between atoms: N_9  and  C_10 
REMARK    5  A    between atoms: C_10  and  C_11 
REMARK       I    between atoms: C_11  and  N_13 
ROOT
HETATM    1  C   UNL     1     -42.802 -48.868  12.411  1.00  0.00     0.087 C 
HETATM    2  C   UNL     1     -43.174 -48.079  11.153  1.00  0.00     0.055 C 
HETATM    3  C   UNL     1     -41.968 -47.829  10.245  1.00  0.00     0.275 C 
HETATM    4  N   UNL     1     -40.811 -47.215  10.921  1.00  0.00     0.097 N 
HETATM    5  C   UNL     1     -40.424 -48.031  12.086  1.00  0.00     0.275 C 
HETATM    6  C   UNL     1     -41.556 -48.284  13.084  1.00  0.00     0.055 C 
ENDROOT
BRANCH   1   7
HETATM    7  N   UNL     1     -42.647 -50.290  12.120  1.00  0.00    -0.355 N 
HETATM    8  C   UNL     1     -43.205 -51.263  12.931  1.00  0.00     0.242 C 
HETATM    9  O   UNL     1     -43.917 -50.988  13.894  1.00  0.00    -0.271 OA
HETATM   10  H   UNL     1     -41.890 -50.590  11.503  1.00  0.00     0.162 HD
BRANCH   8  11
HETATM   11  C   UNL     1     -42.924 -52.700  12.495  1.00  0.00     0.195 C 
HETATM   12  C   UNL     1     -44.187 -53.561  12.538  1.00  0.00     0.044 C 
BRANCH  11  13
HETATM   13  N   UNL     1     -41.818 -53.250  13.272  1.00  0.00    -0.290 N 
HETATM   14  C   UNL     1     -40.770 -54.012  12.838  1.00  0.00     0.112 A 
HETATM   15  C   UNL     1     -40.009 -54.291  13.948  1.00  0.00     0.037 A 
HETATM   16  C   UNL     1     -40.686 -53.669  15.011  1.00  0.00     0.108 A 
HETATM   17  N   UNL     1     -41.802 -53.054  14.612  1.00  0.00    -0.309 N 
ATOM     18  HN  UNL     1     -42.484 -52.555  15.184  1.00  0.00     0.186 HD
ENDBRANCH  11  13
ENDBRANCH   8  11
ENDBRANCH   1   7
BRANCH   4  19
HETATM   19  C   UNL     1     -41.054 -45.805  11.316  1.00  0.00     0.374 C 
BRANCH  19  20
HETATM   20  C   UNL     1     -40.249 -44.834  10.455  1.00  0.00     0.243 C 
HETATM   21  O   UNL     1     -40.428 -43.620  10.450  1.00  0.00    -0.272 OA
HETATM   22  N   UNL     1     -39.274 -45.412   9.690  1.00  0.00    -0.369 N 
HETATM   23  H   UNL     1     -39.367 -46.395   9.468  1.00  0.00     0.159 HD
HETATM   24  H   UNL     1     -38.807 -44.811   9.023  1.00  0.00     0.159 HD
ENDBRANCH  19  20
ENDBRANCH   4  19
TORSDOF 5
ENDMDL
MODEL 4
REMARK VINA RESULT:      -5.5      4.362      7.078
REMARK  5 active torsions:
REMARK  status: ('A' for Active; 'I' for Inactive)
REMARK    1  A    between atoms: C_2  and  C_3 
REMARK    2  A    between atoms: C_2  and  N_16 
REMARK       I    between atoms: C_3  and  N_5 
REMARK    3  A    between atoms: N_5  and  C_6 
REMARK    4  A    between atoms: N_9  and  C_10 
REMARK    5  A    between atoms: C_10  and  C_11 
REMARK       I    between atoms: C_11  and  N_13 
ROOT
HETATM    1  C   UNL     1     -41.800 -53.419  14.301  1.00  0.00     0.087 C 
HETATM    2  C   UNL     1     -41.210 -52.403  15.282  1.00  0.00     0.055 C 
HETATM    3  C   UNL     1     -40.874 -51.071  14.610  1.00  0.00     0.275 C 
HETATM    4  N   UNL     1     -40.023 -51.190  13.412  1.00  0.00     0.097 N 
HETATM    5  C   UNL     1     -40.647 -52.115  12.448  1.00  0.00     0.275 C 
HETATM    6  C   UNL     1     -40.966 -53.499  13.018  1.00  0.00     0.055 C 
ENDROOT
BRANCH   1   7
HETATM    7  N   UNL     1     -43.203 -53.133  14.019  1.00  0.00    -0.355 N 
HETATM    8  C   UNL     1     -44.198 -54.067  14.260  1.00  0.00     0.242 C 
HETATM    9  O   UNL     1     -43.967 -55.153  14.787  1.00  0.00    -0.271 OA
HETATM   10  H   UNL     1     -43.436 -52.377  13.374  1.00  0.00     0.162 HD
BRANCH   8  11
HETATM   11  C   UNL     1     -45.608 -53.613  13.884  1.00  0.00     0.195 C 
HETATM   12  C   UNL     1     -45.627 -52.885  12.540  1.00  0.00     0.044 C 
BRANCH  11  13
HETATM   13  N   UNL     1     -46.191 -52.840  14.974  1.00  0.00    -0.290 N 
HETATM   14  C   UNL     1     -46.876 -51.660  14.909  1.00  0.00     0.112 A 
HETATM   15  C   UNL     1     -47.205 -51.330  16.202  1.00  0.00     0.037 A 
HETATM   16  C   UNL     1     -46.661 -52.364  16.983  1.00  0.00     0.108 A 
HETATM   17  N   UNL     1     -46.019 -53.274  16.247  1.00  0.00    -0.309 N 
ATOM     18  HN  UNL     1     -45.518 -54.103  16.567  1.00  0.00     0.186 HD
ENDBRANCH  11  13
ENDBRANCH   8  11
ENDBRANCH   1   7
BRANCH   4  19
HETATM   19  C   UNL     1     -38.634 -51.606  13.728  1.00  0.00     0.374 C 
BRANCH  19  20
HETATM   20  C   UNL     1     -37.637 -51.050  12.714  1.00  0.00     0.243 C 
HETATM   21  O   UNL     1     -36.766 -51.726  12.175  1.00  0.00    -0.272 OA
HETATM   22  N   UNL     1     -37.793 -49.724  12.417  1.00  0.00    -0.369 N 
HETATM   23  H   UNL     1     -38.274 -49.142  13.091  1.00  0.00     0.159 HD
HETATM   24  H   UNL     1     -37.076 -49.303  11.842  1.00  0.00     0.159 HD
ENDBRANCH  19  20
ENDBRANCH   4  19
TORSDOF 5
ENDMDL
MODEL 5
REMARK VINA RESULT:      -5.4      3.561      7.150
REMARK  5 active torsions:
REMARK  status: ('A' for Active; 'I' for Inactive)
REMARK    1  A    between atoms: C_2  and  C_3 
REMARK    2  A    between atoms: C_2  and  N_16 
REMARK       I    between atoms: C_3  and  N_5 
REMARK    3  A    between atoms: N_5  and  C_6 
REMARK    4  A    between atoms: N_9  and  C_10 
REMARK    5  A    between atoms: C_10  and  C_11 
REMARK       I    between atoms: C_11  and  N_13 
ROOT
HETATM    1  C   UNL     1     -42.561 -51.772  12.388  1.00  0.00     0.087 C 
HETATM    2  C   UNL     1     -41.286 -52.458  11.892  1.00  0.00     0.055 C 
HETATM    3  C   UNL     1     -40.113 -52.274  12.855  1.00  0.00     0.275 C 
HETATM    4  N   UNL     1     -39.838 -50.873  13.222  1.00  0.00     0.097 N 
HETATM    5  C   UNL     1     -41.060 -50.253  13.768  1.00  0.00     0.275 C 
HETATM    6  C   UNL     1     -42.277 -50.336  12.843  1.00  0.00     0.055 C 
ENDROOT
BRANCH   1   7
HETATM    7  N   UNL     1     -43.213 -52.554  13.434  1.00  0.00    -0.355 N 
HETATM    8  C   UNL     1     -44.420 -53.197  13.214  1.00  0.00     0.242 C 
HETATM    9  O   UNL     1     -44.971 -53.206  12.116  1.00  0.00    -0.271 OA
HETATM   10  H   UNL     1     -42.954 -52.394  14.409  1.00  0.00     0.162 HD
BRANCH   8  11
HETATM   11  C   UNL     1     -44.975 -53.950  14.423  1.00  0.00     0.195 C 
HETATM   12  C   UNL     1     -45.693 -55.234  14.008  1.00  0.00     0.044 C 
BRANCH  11  13
HETATM   13  N   UNL     1     -45.798 -53.058  15.231  1.00  0.00    -0.290 N 
HETATM   14  C   UNL     1     -45.930 -53.021  16.591  1.00  0.00     0.112 A 
HETATM   15  C   UNL     1     -46.830 -52.019  16.865  1.00  0.00     0.037 A 
HETATM   16  C   UNL     1     -47.201 -51.518  15.606  1.00  0.00     0.108 A 
HETATM   17  N   UNL     1     -46.598 -52.162  14.604  1.00  0.00    -0.309 N 
ATOM     18  HN  UNL     1     -46.712 -52.013  13.601  1.00  0.00     0.186 HD
ENDBRANCH  11  13
ENDBRANCH   8  11
ENDBRANCH   1   7
BRANCH   4  19
HETATM   19  C   UNL     1     -39.294 -50.076  12.095  1.00  0.00     0.374 C 
BRANCH  19  20
HETATM   20  C   UNL     1     -37.825 -50.402  11.835  1.00  0.00     0.243 C 
HETATM   21  O   UNL     1     -37.087 -50.925  12.664  1.00  0.00    -0.272 OA
HETATM   22  N   UNL     1     -37.377 -50.092  10.581  1.00  0.00    -0.369 N 
HETATM   23  H   UNL     1     -37.885 -49.390  10.057  1.00  0.00     0.159 HD
HETATM   24  H   UNL     1     -36.383 -50.186  10.420  1.00  0.00     0.159 HD
ENDBRANCH  19  20
ENDBRANCH   4  19
TORSDOF 5
ENDMDL
MODEL 6
REMARK VINA RESULT:      -5.3      2.787      3.613
REMARK  5 active torsions:
REMARK  status: ('A' for Active; 'I' for Inactive)
REMARK    1  A    between atoms: C_2  and  C_3 
REMARK    2  A    between atoms: C_2  and  N_16 
REMARK       I    between atoms: C_3  and  N_5 
REMARK    3  A    between atoms: N_5  and  C_6 
REMARK    4  A    between atoms: N_9  and  C_10 
REMARK    5  A    between atoms: C_10  and  C_11 
REMARK       I    between atoms: C_11  and  N_13 
ROOT
HETATM    1  C   UNL     1     -41.122 -52.389  13.621  1.00  0.00     0.087 C 
HETATM    2  C   UNL     1     -41.910 -53.502  12.925  1.00  0.00     0.055 C 
HETATM    3  C   UNL     1     -43.320 -53.059  12.533  1.00  0.00     0.275 C 
HETATM    4  N   UNL     1     -44.107 -52.479  13.637  1.00  0.00     0.097 N 
HETATM    5  C   UNL     1     -43.362 -51.361  14.244  1.00  0.00     0.275 C 
HETATM    6  C   UNL     1     -41.955 -51.726  14.723  1.00  0.00     0.055 C 
ENDROOT
BRANCH   1   7
HETATM    7  N   UNL     1     -40.618 -51.414  12.660  1.00  0.00    -0.355 N 
HETATM    8  C   UNL     1     -39.267 -51.124  12.559  1.00  0.00     0.242 C 
HETATM    9  O   UNL     1     -38.416 -51.717  13.217  1.00  0.00    -0.271 OA
HETATM   10  H   UNL     1     -41.262 -50.725  12.267  1.00  0.00     0.162 HD
BRANCH   8  11
HETATM   11  C   UNL     1     -38.915 -50.060  11.519  1.00  0.00     0.195 C 
HETATM   12  C   UNL     1     -37.413 -50.019  11.240  1.00  0.00     0.044 C 
BRANCH  11  13
HETATM   13  N   UNL     1     -39.470 -48.771  11.916  1.00  0.00    -0.290 N 
HETATM   14  C   UNL     1     -39.260 -48.074  13.072  1.00  0.00     0.112 A 
HETATM   15  C   UNL     1     -40.015 -46.929  12.977  1.00  0.00     0.037 A 
HETATM   16  C   UNL     1     -40.662 -47.031  11.733  1.00  0.00     0.108 A 
HETATM   17  N   UNL     1     -40.356 -48.162  11.092  1.00  0.00    -0.309 N 
ATOM     18  HN  UNL     1     -40.707 -48.489  10.192  1.00  0.00     0.186 HD
ENDBRANCH  11  13
ENDBRANCH   8  11
ENDBRANCH   1   7
BRANCH   4  19
HETATM   19  C   UNL     1     -44.493 -53.480  14.661  1.00  0.00     0.374 C 
BRANCH  19  20
HETATM   20  C   UNL     1     -45.636 -54.369  14.174  1.00  0.00     0.243 C 
HETATM   21  O   UNL     1     -45.518 -55.571  13.956  1.00  0.00    -0.272 OA
HETATM   22  N   UNL     1     -46.836 -53.733  14.017  1.00  0.00    -0.369 N 
HETATM   23  H   UNL     1     -46.826 -52.729  13.884  1.00  0.00     0.159 HD
HETATM   24  H   UNL     1     -47.578 -54.267  13.584  1.00  0.00     0.159 HD
ENDBRANCH  19  20
ENDBRANCH   4  19
TORSDOF 5
ENDMDL
MODEL 7
REMARK VINA RESULT:      -5.2      3.062      7.962
REMARK  5 active torsions:
REMARK  status: ('A' for Active; 'I' for Inactive)
REMARK    1  A    between atoms: C_2  and  C_3 
REMARK    2  A    between atoms: C_2  and  N_16 
REMARK       I    between atoms: C_3  and  N_5 
REMARK    3  A    between atoms: N_5  and  C_6 
REMARK    4  A    between atoms: N_9  and  C_10 
REMARK    5  A    between atoms: C_10  and  C_11 
REMARK       I    between atoms: C_11  and  N_13 
ROOT
HETATM    1  C   UNL     1     -40.441 -50.116  12.773  1.00  0.00     0.087 C 
HETATM    2  C   UNL     1     -40.777 -48.996  13.760  1.00  0.00     0.055 C 
HETATM    3  C   UNL     1     -41.928 -48.115  13.272  1.00  0.00     0.275 C 
HETATM    4  N   UNL     1     -41.748 -47.573  11.913  1.00  0.00     0.097 N 
HETATM    5  C   UNL     1     -41.500 -48.676  10.966  1.00  0.00     0.275 C 
HETATM    6  C   UNL     1     -40.323 -49.579  11.343  1.00  0.00     0.055 C 
ENDROOT
BRANCH   1   7
HETATM    7  N   UNL     1     -41.402 -51.211  12.865  1.00  0.00    -0.355 N 
HETATM    8  C   UNL     1     -41.010 -52.534  12.753  1.00  0.00     0.242 C 
HETATM    9  O   UNL     1     -39.831 -52.864  12.642  1.00  0.00    -0.271 OA
HETATM   10  H   UNL     1     -42.393 -51.016  12.712  1.00  0.00     0.162 HD
BRANCH   8  11
HETATM   11  C   UNL     1     -42.147 -53.551  12.846  1.00  0.00     0.195 C 
HETATM   12  C   UNL     1     -43.504 -52.907  12.565  1.00  0.00     0.044 C 
BRANCH  11  13
HETATM   13  N   UNL     1     -42.087 -54.251  14.124  1.00  0.00    -0.290 N 
HETATM   14  C   UNL     1     -43.088 -54.911  14.780  1.00  0.00     0.112 A 
HETATM   15  C   UNL     1     -42.538 -55.386  15.947  1.00  0.00     0.037 A 
HETATM   16  C   UNL     1     -41.203 -54.950  15.916  1.00  0.00     0.108 A 
HETATM   17  N   UNL     1     -40.926 -54.235  14.822  1.00  0.00    -0.309 N 
ATOM     18  HN  UNL     1     -40.046 -53.784  14.572  1.00  0.00     0.186 HD
ENDBRANCH  11  13
ENDBRANCH   8  11
ENDBRANCH   1   7
BRANCH   4  19
HETATM   19  C   UNL     1     -40.673 -46.553  11.835  1.00  0.00     0.374 C 
BRANCH  19  20
HETATM   20  C   UNL     1     -40.754 -45.750  10.538  1.00  0.00     0.243 C 
HETATM   21  O   UNL     1     -41.796 -45.277  10.094  1.00  0.00    -0.272 OA
HETATM   22  N   UNL     1     -39.560 -45.565   9.897  1.00  0.00    -0.369 N 
HETATM   23  H   UNL     1     -38.812 -46.217  10.094  1.00  0.00     0.159 HD
HETATM   24  H   UNL     1     -39.601 -45.142   8.979  1.00  0.00     0.159 HD
ENDBRANCH  19  20
ENDBRANCH   4  19
TORSDOF 5
ENDMDL
MODEL 8
REMARK VINA RESULT:      -5.1      3.455      4.642
REMARK  5 active torsions:
REMARK  status: ('A' for Active; 'I' for Inactive)
REMARK    1  A    between atoms: C_2  and  C_3 
REMARK    2  A    between atoms: C_2  and  N_16 
REMARK       I    between atoms: C_3  and  N_5 
REMARK    3  A    between atoms: N_5  and  C_6 
REMARK    4  A    between atoms: N_9  and  C_10 
REMARK    5  A    between atoms: C_10  and  C_11 
REMARK       I    between atoms: C_11  and  N_13 
ROOT
HETATM    1  C   UNL     1     -44.519 -50.848  13.447  1.00  0.00     0.087 C 
HETATM    2  C   UNL     1     -44.413 -50.702  14.968  1.00  0.00     0.055 C 
HETATM    3  C   UNL     1     -44.751 -52.000  15.702  1.00  0.00     0.275 C 
HETATM    4  N   UNL     1     -46.047 -52.594  15.328  1.00  0.00     0.097 N 
HETATM    5  C   UNL     1     -46.098 -52.796  13.868  1.00  0.00     0.275 C 
HETATM    6  C   UNL     1     -45.831 -51.532  13.047  1.00  0.00     0.055 C 
ENDROOT
BRANCH   1   7
HETATM    7  N   UNL     1     -43.356 -51.538  12.897  1.00  0.00    -0.355 N 
HETATM    8  C   UNL     1     -42.212 -50.851  12.527  1.00  0.00     0.242 C 
HETATM    9  O   UNL     1     -42.084 -49.642  12.704  1.00  0.00    -0.271 OA
HETATM   10  H   UNL     1     -43.474 -52.472  12.503  1.00  0.00     0.162 HD
BRANCH   8  11
HETATM   11  C   UNL     1     -41.100 -51.723  11.946  1.00  0.00     0.195 C 
HETATM   12  C   UNL     1     -41.087 -53.115  12.577  1.00  0.00     0.044 C 
BRANCH  11  13
HETATM   13  N   UNL     1     -39.821 -51.029  12.038  1.00  0.00    -0.290 N 
HETATM   14  C   UNL     1     -38.852 -51.155  12.993  1.00  0.00     0.112 A 
HETATM   15  C   UNL     1     -37.850 -50.280  12.645  1.00  0.00     0.037 A 
HETATM   16  C   UNL     1     -38.311 -49.657  11.473  1.00  0.00     0.108 A 
HETATM   17  N   UNL     1     -39.522 -50.088  11.110  1.00  0.00    -0.309 N 
ATOM     18  HN  UNL     1     -40.088 -49.780  10.320  1.00  0.00     0.186 HD
ENDBRANCH  11  13
ENDBRANCH   8  11
ENDBRANCH   1   7
BRANCH   4  19
HETATM   19  C   UNL     1     -47.206 -51.795  15.796  1.00  0.00     0.374 C 
BRANCH  19  20
HETATM   20  C   UNL     1     -47.183 -51.608  17.312  1.00  0.00     0.243 C 
HETATM   21  O   UNL     1     -47.123 -52.538  18.111  1.00  0.00    -0.272 OA
HETATM   22  N   UNL     1     -47.208 -50.308  17.735  1.00  0.00    -0.369 N 
HETATM   23  H   UNL     1     -47.579 -49.612  17.101  1.00  0.00     0.159 HD
HETATM   24  H   UNL     1     -47.314 -50.158  18.729  1.00  0.00     0.159 HD
ENDBRANCH  19  20
ENDBRANCH   4  19
TORSDOF 5
ENDMDL
MODEL 9
REMARK VINA RESULT:      -5.1      4.230      6.144
REMARK  5 active torsions:
REMARK  status: ('A' for Active; 'I' for Inactive)
REMARK    1  A    between atoms: C_2  and  C_3 
REMARK    2  A    between atoms: C_2  and  N_16 
REMARK       I    between atoms: C_3  and  N_5 
REMARK    3  A    between atoms: N_5  and  C_6 
REMARK    4  A    between atoms: N_9  and  C_10 
REMARK    5  A    between atoms: C_10  and  C_11 
REMARK       I    between atoms: C_11  and  N_13 
ROOT
HETATM    1  C   UNL     1     -40.852 -46.760  10.980  1.00  0.00     0.087 C 
HETATM    2  C   UNL     1     -41.829 -47.806  10.438  1.00  0.00     0.055 C 
HETATM    3  C   UNL     1     -42.479 -48.628  11.553  1.00  0.00     0.275 C 
HETATM    4  N   UNL     1     -41.525 -49.246  12.491  1.00  0.00     0.097 N 
HETATM    5  C   UNL     1     -40.643 -48.209  13.058  1.00  0.00     0.275 C 
HETATM    6  C   UNL     1     -39.900 -47.372  12.013  1.00  0.00     0.055 C 
ENDROOT
BRANCH   1   7
HETATM    7  N   UNL     1     -41.558 -45.599  11.512  1.00  0.00    -0.355 N 
HETATM    8  C   UNL     1     -41.229 -44.309  11.129  1.00  0.00     0.242 C 
HETATM    9  O   UNL     1     -40.379 -44.074  10.272  1.00  0.00    -0.271 OA
HETATM   10  H   UNL     1     -42.087 -45.694  12.381  1.00  0.00     0.162 HD
BRANCH   8  11
HETATM   11  C   UNL     1     -42.050 -43.210  11.802  1.00  0.00     0.195 C 
HETATM   12  C   UNL     1     -43.194 -42.732  10.907  1.00  0.00     0.044 C 
BRANCH  11  13
HETATM   13  N   UNL     1     -41.173 -42.135  12.251  1.00  0.00    -0.290 N 
HETATM   14  C   UNL     1     -40.483 -42.036  13.426  1.00  0.00     0.112 A 
HETATM   15  C   UNL     1     -39.816 -40.834  13.383  1.00  0.00     0.037 A 
HETATM   16  C   UNL     1     -40.179 -40.269  12.149  1.00  0.00     0.108 A 
HETATM   17  N   UNL     1     -41.025 -41.043  11.464  1.00  0.00    -0.309 N 
ATOM     18  HN  UNL     1     -41.459 -40.854  10.560  1.00  0.00     0.186 HD
ENDBRANCH  11  13
ENDBRANCH   8  11
ENDBRANCH   1   7
BRANCH   4  19
HETATM   19  C   UNL     1     -40.734 -50.340  11.876  1.00  0.00     0.374 C 
BRANCH  19  20
HETATM   20  C   UNL     1     -41.392 -51.700  12.096  1.00  0.00     0.243 C 
HETATM   21  O   UNL     1     -42.088 -51.970  13.070  1.00  0.00    -0.272 OA
HETATM   22  N   UNL     1     -41.175 -52.615  11.103  1.00  0.00    -0.369 N 
HETATM   23  H   UNL     1     -40.365 -52.487  10.510  1.00  0.00     0.159 HD
HETATM   24  H   UNL     1     -41.498 -53.558  11.278  1.00  0.00     0.159 HD
ENDBRANCH  19  20
ENDBRANCH   4  19
TORSDOF 5
ENDMDL
