MODEL 1
REMARK VINA RESULT:      -6.2      0.000      0.000
REMARK  4 active torsions:
REMARK  status: ('A' for Active; 'I' for Inactive)
REMARK       I    between atoms: C_2  and  N_3 
REMARK       I    between atoms: C_2  and  N_13 
REMARK    1  A    between atoms: N_3  and  C_4 
REMARK    2  A    between atoms: C_4  and  C_5 
REMARK    3  A    between atoms: C_5  and  C_6 
REMARK    4  A    between atoms: N_16  and  C_19 
ROOT
HETATM    1  O   UNL     1     -40.843 -52.640  11.489  1.00  0.00    -0.247 OA
HETATM    2  C   UNL     1     -41.378 -51.918  12.325  1.00  0.00     0.318 C 
HETATM    3  N   UNL     1     -42.286 -52.386  13.243  1.00  0.00    -0.343 N 
HETATM    4  N   UNL     1     -41.092 -50.573  12.473  1.00  0.00    -0.331 N 
HETATM    5  C   UNL     1     -40.016 -49.994  11.668  1.00  0.00     0.158 C 
HETATM    6  C   UNL     1     -39.378 -48.761  12.343  1.00  0.00     0.293 C 
HETATM    7  N   UNL     1     -40.319 -47.753  12.888  1.00  0.00     0.096 N 
HETATM    8  C   UNL     1     -41.327 -48.451  13.717  1.00  0.00     0.293 C 
HETATM    9  C   UNL     1     -42.050 -49.596  12.994  1.00  0.00     0.158 C 
HETATM   10  H   UNL     1     -42.164 -51.938  14.138  1.00  0.00     0.164 HD
ENDROOT
BRANCH   3  11
HETATM   11  C   UNL     1     -42.604 -53.803  13.315  1.00  0.00     0.130 C 
BRANCH  11  12
HETATM   12  C   UNL     1     -44.022 -54.055  12.818  1.00  0.00     0.076 C 
BRANCH  12  13
HETATM   13  C   UNL     1     -45.039 -53.205  13.525  1.00  0.00     0.010 A 
HETATM   14  C   UNL     1     -45.813 -52.288  12.821  1.00  0.00     0.025 A 
HETATM   15  C   UNL     1     -46.711 -51.488  13.523  1.00  0.00     0.003 A 
HETATM   16  C   UNL     1     -46.819 -51.631  14.899  1.00  0.00     0.017 A 
HETATM   17  C   UNL     1     -46.025 -52.578  15.521  1.00  0.00     0.088 A 
HETATM   18  N   UNL     1     -45.143 -53.365  14.868  1.00  0.00    -0.369 N 
ATOM     19  HN  UNL     1     -44.577 -54.053  15.365  1.00  0.00     0.165 HD
ENDBRANCH  12  13
ENDBRANCH  11  12
ENDBRANCH   3  11
BRANCH   7  20
HETATM   20  C   UNL     1     -40.920 -46.872  11.873  1.00  0.00     0.227 C 
HETATM   21  C   UNL     1     -39.904 -46.288  10.851  1.00  0.00     0.041 C 
HETATM   22  C   UNL     1     -40.037 -44.765  11.034  1.00  0.00    -0.012 C 
HETATM   23  C   UNL     1     -39.453 -44.380  12.407  1.00  0.00     0.005 C 
HETATM   24  C   UNL     1     -41.539 -44.619  11.256  1.00  0.00     0.011 C 
HETATM   25  C   UNL     1     -40.540 -44.841  13.385  1.00  0.00     0.007 C 
HETATM   26  C   UNL     1     -41.542 -45.562  12.461  1.00  0.00     0.019 C 
ENDBRANCH   7  20
TORSDOF 4
ENDMDL
MODEL 2
REMARK VINA RESULT:      -6.2      1.793      2.360
REMARK  4 active torsions:
REMARK  status: ('A' for Active; 'I' for Inactive)
REMARK       I    between atoms: C_2  and  N_3 
REMARK       I    between atoms: C_2  and  N_13 
REMARK    1  A    between atoms: N_3  and  C_4 
REMARK    2  A    between atoms: C_4  and  C_5 
REMARK    3  A    between atoms: C_5  and  C_6 
REMARK    4  A    between atoms: N_16  and  C_19 
ROOT
HETATM    1  O   UNL     1     -38.463 -51.500  12.664  1.00  0.00    -0.247 OA
HETATM    2  C   UNL     1     -39.460 -51.059  13.227  1.00  0.00     0.318 C 
HETATM    3  N   UNL     1     -40.325 -51.853  13.940  1.00  0.00    -0.343 N 
HETATM    4  N   UNL     1     -39.798 -49.719  13.253  1.00  0.00    -0.331 N 
HETATM    5  C   UNL     1     -38.866 -48.751  12.674  1.00  0.00     0.158 C 
HETATM    6  C   UNL     1     -39.006 -47.351  13.311  1.00  0.00     0.293 C 
HETATM    7  N   UNL     1     -40.388 -46.832  13.452  1.00  0.00     0.096 N 
HETATM    8  C   UNL     1     -41.220 -47.877  14.087  1.00  0.00     0.293 C 
HETATM    9  C   UNL     1     -41.176 -49.235  13.372  1.00  0.00     0.158 C 
HETATM   10  H   UNL     1     -40.659 -51.379  14.765  1.00  0.00     0.164 HD
ENDROOT
BRANCH   3  11
HETATM   11  C   UNL     1     -40.049 -53.269  14.127  1.00  0.00     0.130 C 
BRANCH  11  12
HETATM   12  C   UNL     1     -40.773 -54.094  13.070  1.00  0.00     0.076 C 
BRANCH  12  13
HETATM   13  C   UNL     1     -42.260 -54.120  13.280  1.00  0.00     0.010 A 
HETATM   14  C   UNL     1     -42.809 -54.733  14.402  1.00  0.00     0.025 A 
HETATM   15  C   UNL     1     -44.194 -54.775  14.534  1.00  0.00     0.003 A 
HETATM   16  C   UNL     1     -44.990 -54.199  13.554  1.00  0.00     0.017 A 
HETATM   17  C   UNL     1     -44.364 -53.594  12.478  1.00  0.00     0.088 A 
HETATM   18  N   UNL     1     -43.024 -53.541  12.321  1.00  0.00    -0.369 N 
ATOM     19  HN  UNL     1     -42.603 -53.084  11.513  1.00  0.00     0.165 HD
ENDBRANCH  12  13
ENDBRANCH  11  12
ENDBRANCH   3  11
BRANCH   7  20
HETATM   20  C   UNL     1     -40.971 -46.311  12.205  1.00  0.00     0.227 C 
HETATM   21  C   UNL     1     -39.939 -45.674  11.232  1.00  0.00     0.041 C 
HETATM   22  C   UNL     1     -40.429 -44.223  11.078  1.00  0.00    -0.012 C 
HETATM   23  C   UNL     1     -40.201 -43.480  12.408  1.00  0.00     0.005 C 
HETATM   24  C   UNL     1     -41.942 -44.419  11.057  1.00  0.00     0.011 C 
HETATM   25  C   UNL     1     -41.321 -44.024  13.302  1.00  0.00     0.007 C 
HETATM   26  C   UNL     1     -41.958 -45.116  12.419  1.00  0.00     0.019 C 
ENDBRANCH   7  20
TORSDOF 4
ENDMDL
MODEL 3
REMARK VINA RESULT:      -6.1      1.179      1.592
REMARK  4 active torsions:
REMARK  status: ('A' for Active; 'I' for Inactive)
REMARK       I    between atoms: C_2  and  N_3 
REMARK       I    between atoms: C_2  and  N_13 
REMARK    1  A    between atoms: N_3  and  C_4 
REMARK    2  A    between atoms: C_4  and  C_5 
REMARK    3  A    between atoms: C_5  and  C_6 
REMARK    4  A    between atoms: N_16  and  C_19 
ROOT
HETATM    1  O   UNL     1     -40.788 -51.711  14.379  1.00  0.00    -0.247 OA
HETATM    2  C   UNL     1     -41.472 -51.270  13.460  1.00  0.00     0.318 C 
HETATM    3  N   UNL     1     -42.312 -52.058  12.712  1.00  0.00    -0.343 N 
HETATM    4  N   UNL     1     -41.516 -49.934  13.108  1.00  0.00    -0.331 N 
HETATM    5  C   UNL     1     -40.796 -48.968  13.938  1.00  0.00     0.158 C 
HETATM    6  C   UNL     1     -41.416 -47.555  13.864  1.00  0.00     0.293 C 
HETATM    7  N   UNL     1     -41.732 -47.051  12.506  1.00  0.00     0.096 N 
HETATM    8  C   UNL     1     -42.496 -48.092  11.784  1.00  0.00     0.293 C 
HETATM    9  C   UNL     1     -41.810 -49.465  11.752  1.00  0.00     0.158 C 
HETATM   10  H   UNL     1     -43.165 -51.570  12.486  1.00  0.00     0.164 HD
ENDROOT
BRANCH   3  11
HETATM   11  C   UNL     1     -42.489 -53.466  13.033  1.00  0.00     0.130 C 
BRANCH  11  12
HETATM   12  C   UNL     1     -43.925 -53.896  12.759  1.00  0.00     0.076 C 
BRANCH  12  13
HETATM   13  C   UNL     1     -44.927 -53.062  13.504  1.00  0.00     0.010 A 
HETATM   14  C   UNL     1     -45.861 -52.290  12.820  1.00  0.00     0.025 A 
HETATM   15  C   UNL     1     -46.742 -51.497  13.549  1.00  0.00     0.003 A 
HETATM   16  C   UNL     1     -46.674 -51.501  14.936  1.00  0.00     0.017 A 
HETATM   17  C   UNL     1     -45.728 -52.310  15.539  1.00  0.00     0.088 A 
HETATM   18  N   UNL     1     -44.859 -53.087  14.859  1.00  0.00    -0.369 N 
ATOM     19  HN  UNL     1     -44.177 -53.670  15.343  1.00  0.00     0.165 HD
ENDBRANCH  12  13
ENDBRANCH  11  12
ENDBRANCH   3  11
BRANCH   7  20
HETATM   20  C   UNL     1     -40.565 -46.565  11.751  1.00  0.00     0.227 C 
HETATM   21  C   UNL     1     -39.604 -45.660  12.571  1.00  0.00     0.041 C 
HETATM   22  C   UNL     1     -39.601 -44.332  11.793  1.00  0.00    -0.012 C 
HETATM   23  C   UNL     1     -40.978 -43.662  11.955  1.00  0.00     0.005 C 
HETATM   24  C   UNL     1     -39.636 -44.828  10.351  1.00  0.00     0.011 C 
HETATM   25  C   UNL     1     -41.874 -44.488  11.026  1.00  0.00     0.007 C 
HETATM   26  C   UNL     1     -40.931 -45.617  10.562  1.00  0.00     0.019 C 
ENDBRANCH   7  20
TORSDOF 4
ENDMDL
MODEL 4
REMARK VINA RESULT:      -6.0      2.087      3.486
REMARK  4 active torsions:
REMARK  status: ('A' for Active; 'I' for Inactive)
REMARK       I    between atoms: C_2  and  N_3 
REMARK       I    between atoms: C_2  and  N_13 
REMARK    1  A    between atoms: N_3  and  C_4 
REMARK    2  A    between atoms: C_4  and  C_5 
REMARK    3  A    between atoms: C_5  and  C_6 
REMARK    4  A    between atoms: N_16  and  C_19 
ROOT
HETATM    1  O   UNL     1     -43.285 -50.614  14.814  1.00  0.00    -0.247 OA
HETATM    2  C   UNL     1     -43.592 -50.166  13.713  1.00  0.00     0.318 C 
HETATM    3  N   UNL     1     -44.411 -50.837  12.837  1.00  0.00    -0.343 N 
HETATM    4  N   UNL     1     -43.197 -48.924  13.253  1.00  0.00    -0.331 N 
HETATM    5  C   UNL     1     -42.464 -48.042  14.161  1.00  0.00     0.158 C 
HETATM    6  C   UNL     1     -42.653 -46.550  13.808  1.00  0.00     0.293 C 
HETATM    7  N   UNL     1     -42.497 -46.191  12.378  1.00  0.00     0.096 N 
HETATM    8  C   UNL     1     -43.316 -47.119  11.569  1.00  0.00     0.293 C 
HETATM    9  C   UNL     1     -43.030 -48.604  11.833  1.00  0.00     0.158 C 
HETATM   10  H   UNL     1     -45.026 -50.201  12.354  1.00  0.00     0.164 HD
ENDROOT
BRANCH   3  11
HETATM   11  C   UNL     1     -45.024 -52.100  13.216  1.00  0.00     0.130 C 
BRANCH  11  12
HETATM   12  C   UNL     1     -44.375 -53.252  12.457  1.00  0.00     0.076 C 
BRANCH  12  13
HETATM   13  C   UNL     1     -43.039 -53.635  13.025  1.00  0.00     0.010 A 
HETATM   14  C   UNL     1     -42.945 -54.246  14.272  1.00  0.00     0.025 A 
HETATM   15  C   UNL     1     -41.684 -54.543  14.781  1.00  0.00     0.003 A 
HETATM   16  C   UNL     1     -40.556 -54.232  14.033  1.00  0.00     0.017 A 
HETATM   17  C   UNL     1     -40.738 -53.640  12.795  1.00  0.00     0.088 A 
HETATM   18  N   UNL     1     -41.948 -53.338  12.277  1.00  0.00    -0.369 N 
ATOM     19  HN  UNL     1     -42.037 -52.903  11.359  1.00  0.00     0.165 HD
ENDBRANCH  12  13
ENDBRANCH  11  12
ENDBRANCH   3  11
BRANCH   7  20
HETATM   20  C   UNL     1     -41.099 -46.110  11.922  1.00  0.00     0.227 C 
HETATM   21  C   UNL     1     -40.105 -45.584  12.996  1.00  0.00     0.041 C 
HETATM   22  C   UNL     1     -39.506 -44.322  12.350  1.00  0.00    -0.012 C 
HETATM   23  C   UNL     1     -40.596 -43.236  12.283  1.00  0.00     0.005 C 
HETATM   24  C   UNL     1     -39.378 -44.760  10.894  1.00  0.00     0.011 C 
HETATM   25  C   UNL     1     -41.480 -43.707  11.123  1.00  0.00     0.007 C 
HETATM   26  C   UNL     1     -40.870 -45.078  10.769  1.00  0.00     0.019 C 
ENDBRANCH   7  20
TORSDOF 4
ENDMDL
MODEL 5
REMARK VINA RESULT:      -5.9      1.998      3.023
REMARK  4 active torsions:
REMARK  status: ('A' for Active; 'I' for Inactive)
REMARK       I    between atoms: C_2  and  N_3 
REMARK       I    between atoms: C_2  and  N_13 
REMARK    1  A    between atoms: N_3  and  C_4 
REMARK    2  A    between atoms: C_4  and  C_5 
REMARK    3  A    between atoms: C_5  and  C_6 
REMARK    4  A    between atoms: N_16  and  C_19 
ROOT
HETATM    1  O   UNL     1     -41.740 -50.905  14.978  1.00  0.00    -0.247 OA
HETATM    2  C   UNL     1     -40.923 -50.600  14.115  1.00  0.00     0.318 C 
HETATM    3  N   UNL     1     -39.987 -51.481  13.629  1.00  0.00    -0.343 N 
HETATM    4  N   UNL     1     -40.882 -49.363  13.499  1.00  0.00    -0.331 N 
HETATM    5  C   UNL     1     -41.934 -48.393  13.807  1.00  0.00     0.158 C 
HETATM    6  C   UNL     1     -42.162 -47.391  12.654  1.00  0.00     0.293 C 
HETATM    7  N   UNL     1     -40.945 -46.779  12.069  1.00  0.00     0.096 N 
HETATM    8  C   UNL     1     -39.980 -47.857  11.759  1.00  0.00     0.293 C 
HETATM    9  C   UNL     1     -39.659 -48.773  12.948  1.00  0.00     0.158 C 
HETATM   10  H   UNL     1     -39.850 -51.357  12.638  1.00  0.00     0.164 HD
ENDROOT
BRANCH   3  11
HETATM   11  C   UNL     1     -39.974 -52.866  14.072  1.00  0.00     0.130 C 
BRANCH  11  12
HETATM   12  C   UNL     1     -40.624 -53.763  13.026  1.00  0.00     0.076 C 
BRANCH  12  13
HETATM   13  C   UNL     1     -42.083 -53.995  13.293  1.00  0.00     0.010 A 
HETATM   14  C   UNL     1     -42.499 -54.667  14.439  1.00  0.00     0.025 A 
HETATM   15  C   UNL     1     -43.858 -54.900  14.625  1.00  0.00     0.003 A 
HETATM   16  C   UNL     1     -44.764 -54.450  13.673  1.00  0.00     0.017 A 
HETATM   17  C   UNL     1     -44.270 -53.776  12.572  1.00  0.00     0.088 A 
HETATM   18  N   UNL     1     -42.957 -53.537  12.362  1.00  0.00    -0.369 N 
ATOM     19  HN  UNL     1     -42.635 -53.034  11.536  1.00  0.00     0.165 HD
ENDBRANCH  12  13
ENDBRANCH  11  12
ENDBRANCH   3  11
BRANCH   7  20
HETATM   20  C   UNL     1     -40.360 -45.698  12.879  1.00  0.00     0.227 C 
HETATM   21  C   UNL     1     -41.394 -44.669  13.416  1.00  0.00     0.041 C 
HETATM   22  C   UNL     1     -40.925 -43.332  12.816  1.00  0.00    -0.012 C 
HETATM   23  C   UNL     1     -41.175 -43.358  11.296  1.00  0.00     0.005 C 
HETATM   24  C   UNL     1     -39.409 -43.476  12.909  1.00  0.00     0.011 C 
HETATM   25  C   UNL     1     -40.054 -44.266  10.778  1.00  0.00     0.007 C 
HETATM   26  C   UNL     1     -39.393 -44.762  12.079  1.00  0.00     0.019 C 
ENDBRANCH   7  20
TORSDOF 4
ENDMDL
MODEL 6
REMARK VINA RESULT:      -5.6      2.618      3.409
REMARK  4 active torsions:
REMARK  status: ('A' for Active; 'I' for Inactive)
REMARK       I    between atoms: C_2  and  N_3 
REMARK       I    between atoms: C_2  and  N_13 
REMARK    1  A    between atoms: N_3  and  C_4 
REMARK    2  A    between atoms: C_4  and  C_5 
REMARK    3  A    between atoms: C_5  and  C_6 
REMARK    4  A    between atoms: N_16  and  C_19 
ROOT
HETATM    1  O   UNL     1     -39.645 -51.700  14.126  1.00  0.00    -0.247 OA
HETATM    2  C   UNL     1     -40.356 -51.365  13.184  1.00  0.00     0.318 C 
HETATM    3  N   UNL     1     -40.987 -52.271  12.367  1.00  0.00    -0.343 N 
HETATM    4  N   UNL     1     -40.644 -50.050  12.870  1.00  0.00    -0.331 N 
HETATM    5  C   UNL     1     -40.170 -48.996  13.767  1.00  0.00     0.158 C 
HETATM    6  C   UNL     1     -41.052 -47.730  13.700  1.00  0.00     0.293 C 
HETATM    7  N   UNL     1     -41.394 -47.242  12.343  1.00  0.00     0.096 N 
HETATM    8  C   UNL     1     -41.902 -48.382  11.548  1.00  0.00     0.293 C 
HETATM    9  C   UNL     1     -40.958 -49.593  11.513  1.00  0.00     0.158 C 
HETATM   10  H   UNL     1     -41.907 -51.950  12.108  1.00  0.00     0.164 HD
ENDROOT
BRANCH   3  11
HETATM   11  C   UNL     1     -40.899 -53.698  12.635  1.00  0.00     0.130 C 
BRANCH  11  12
HETATM   12  C   UNL     1     -42.109 -54.161  13.438  1.00  0.00     0.076 C 
BRANCH  12  13
HETATM   13  C   UNL     1     -41.734 -54.674  14.799  1.00  0.00     0.010 A 
HETATM   14  C   UNL     1     -42.671 -55.322  15.598  1.00  0.00     0.025 A 
HETATM   15  C   UNL     1     -42.295 -55.740  16.870  1.00  0.00     0.003 A 
HETATM   16  C   UNL     1     -40.997 -55.510  17.307  1.00  0.00     0.017 A 
HETATM   17  C   UNL     1     -40.122 -54.874  16.445  1.00  0.00     0.088 A 
HETATM   18  N   UNL     1     -40.460 -54.454  15.206  1.00  0.00    -0.369 N 
ATOM     19  HN  UNL     1     -39.783 -53.990  14.601  1.00  0.00     0.165 HD
ENDBRANCH  12  13
ENDBRANCH  11  12
ENDBRANCH   3  11
BRANCH   7  20
HETATM   20  C   UNL     1     -40.310 -46.509  11.669  1.00  0.00     0.227 C 
HETATM   21  C   UNL     1     -39.605 -45.448  12.560  1.00  0.00     0.041 C 
HETATM   22  C   UNL     1     -39.830 -44.127  11.802  1.00  0.00    -0.012 C 
HETATM   23  C   UNL     1     -41.323 -43.757  11.886  1.00  0.00     0.005 C 
HETATM   24  C   UNL     1     -39.678 -44.583  10.354  1.00  0.00     0.011 C 
HETATM   25  C   UNL     1     -41.973 -44.726  10.891  1.00  0.00     0.007 C 
HETATM   26  C   UNL     1     -40.793 -45.624  10.473  1.00  0.00     0.019 C 
ENDBRANCH   7  20
TORSDOF 4
ENDMDL
MODEL 7
REMARK VINA RESULT:      -5.6      3.131      4.540
REMARK  4 active torsions:
REMARK  status: ('A' for Active; 'I' for Inactive)
REMARK       I    between atoms: C_2  and  N_3 
REMARK       I    between atoms: C_2  and  N_13 
REMARK    1  A    between atoms: N_3  and  C_4 
REMARK    2  A    between atoms: C_4  and  C_5 
REMARK    3  A    between atoms: C_5  and  C_6 
REMARK    4  A    between atoms: N_16  and  C_19 
ROOT
HETATM    1  O   UNL     1     -45.147 -52.575  13.179  1.00  0.00    -0.247 OA
HETATM    2  C   UNL     1     -44.227 -52.847  13.944  1.00  0.00     0.318 C 
HETATM    3  N   UNL     1     -44.412 -53.529  15.122  1.00  0.00    -0.343 N 
HETATM    4  N   UNL     1     -42.901 -52.548  13.687  1.00  0.00    -0.331 N 
HETATM    5  C   UNL     1     -42.554 -51.974  12.386  1.00  0.00     0.158 C 
HETATM    6  C   UNL     1     -41.097 -52.287  11.979  1.00  0.00     0.293 C 
HETATM    7  N   UNL     1     -40.065 -52.066  13.020  1.00  0.00     0.096 N 
HETATM    8  C   UNL     1     -40.506 -52.728  14.267  1.00  0.00     0.293 C 
HETATM    9  C   UNL     1     -41.907 -52.313  14.737  1.00  0.00     0.158 C 
HETATM   10  H   UNL     1     -43.653 -54.170  15.296  1.00  0.00     0.164 HD
ENDROOT
BRANCH   3  11
HETATM   11  C   UNL     1     -45.726 -54.036  15.485  1.00  0.00     0.130 C 
BRANCH  11  12
HETATM   12  C   UNL     1     -45.938 -53.928  16.990  1.00  0.00     0.076 C 
BRANCH  12  13
HETATM   13  C   UNL     1     -46.450 -52.578  17.403  1.00  0.00     0.010 A 
HETATM   14  C   UNL     1     -45.955 -51.947  18.540  1.00  0.00     0.025 A 
HETATM   15  C   UNL     1     -46.489 -50.717  18.912  1.00  0.00     0.003 A 
HETATM   16  C   UNL     1     -47.492 -50.147  18.139  1.00  0.00     0.017 A 
HETATM   17  C   UNL     1     -47.916 -50.832  17.014  1.00  0.00     0.088 A 
HETATM   18  N   UNL     1     -47.419 -52.027  16.630  1.00  0.00    -0.369 N 
ATOM     19  HN  UNL     1     -47.759 -52.498  15.792  1.00  0.00     0.165 HD
ENDBRANCH  12  13
ENDBRANCH  11  12
ENDBRANCH   3  11
BRANCH   7  20
HETATM   20  C   UNL     1     -39.694 -50.655  13.217  1.00  0.00     0.227 C 
HETATM   21  C   UNL     1     -39.756 -49.791  11.927  1.00  0.00     0.041 C 
HETATM   22  C   UNL     1     -38.316 -49.271  11.766  1.00  0.00    -0.012 C 
HETATM   23  C   UNL     1     -37.404 -50.453  11.384  1.00  0.00     0.005 C 
HETATM   24  C   UNL     1     -37.929 -49.005  13.217  1.00  0.00     0.011 C 
HETATM   25  C   UNL     1     -37.247 -51.208  12.709  1.00  0.00     0.007 C 
HETATM   26  C   UNL     1     -38.204 -50.448  13.647  1.00  0.00     0.019 C 
ENDBRANCH   7  20
TORSDOF 4
ENDMDL
MODEL 8
REMARK VINA RESULT:      -5.5      3.283      8.171
REMARK  4 active torsions:
REMARK  status: ('A' for Active; 'I' for Inactive)
REMARK       I    between atoms: C_2  and  N_3 
REMARK       I    between atoms: C_2  and  N_13 
REMARK    1  A    between atoms: N_3  and  C_4 
REMARK    2  A    between atoms: C_4  and  C_5 
REMARK    3  A    between atoms: C_5  and  C_6 
REMARK    4  A    between atoms: N_16  and  C_19 
ROOT
HETATM    1  O   UNL     1     -38.729 -51.318  14.786  1.00  0.00    -0.247 OA
HETATM    2  C   UNL     1     -39.548 -50.653  14.158  1.00  0.00     0.318 C 
HETATM    3  N   UNL     1     -39.212 -49.511  13.472  1.00  0.00    -0.343 N 
HETATM    4  N   UNL     1     -40.880 -50.999  14.026  1.00  0.00    -0.331 N 
HETATM    5  C   UNL     1     -41.325 -52.283  14.568  1.00  0.00     0.158 C 
HETATM    6  C   UNL     1     -42.567 -52.831  13.830  1.00  0.00     0.293 C 
HETATM    7  N   UNL     1     -43.671 -51.868  13.604  1.00  0.00     0.096 N 
HETATM    8  C   UNL     1     -43.105 -50.635  13.014  1.00  0.00     0.293 C 
HETATM    9  C   UNL     1     -41.953 -50.023  13.824  1.00  0.00     0.158 C 
HETATM   10  H   UNL     1     -39.721 -49.444  12.604  1.00  0.00     0.164 HD
ENDROOT
BRANCH   3  11
HETATM   11  C   UNL     1     -37.827 -49.074  13.395  1.00  0.00     0.130 C 
BRANCH  11  12
HETATM   12  C   UNL     1     -37.572 -47.944  14.385  1.00  0.00     0.076 C 
BRANCH  12  13
HETATM   13  C   UNL     1     -36.879 -48.416  15.631  1.00  0.00     0.010 A 
HETATM   14  C   UNL     1     -36.777 -47.590  16.746  1.00  0.00     0.025 A 
HETATM   15  C   UNL     1     -36.088 -48.050  17.863  1.00  0.00     0.003 A 
HETATM   16  C   UNL     1     -35.528 -49.321  17.843  1.00  0.00     0.017 A 
HETATM   17  C   UNL     1     -35.689 -50.086  16.701  1.00  0.00     0.088 A 
HETATM   18  N   UNL     1     -36.350 -49.665  15.601  1.00  0.00    -0.369 N 
ATOM     19  HN  UNL     1     -36.447 -50.262  14.780  1.00  0.00     0.165 HD
ENDBRANCH  12  13
ENDBRANCH  11  12
ENDBRANCH   3  11
BRANCH   7  20
HETATM   20  C   UNL     1     -44.504 -51.609  14.790  1.00  0.00     0.227 C 
HETATM   21  C   UNL     1     -44.733 -52.853  15.695  1.00  0.00     0.041 C 
HETATM   22  C   UNL     1     -46.262 -53.024  15.699  1.00  0.00    -0.012 C 
HETATM   23  C   UNL     1     -46.711 -53.489  14.301  1.00  0.00     0.005 C 
HETATM   24  C   UNL     1     -46.727 -51.571  15.736  1.00  0.00     0.011 C 
HETATM   25  C   UNL     1     -46.610 -52.208  13.464  1.00  0.00     0.007 C 
HETATM   26  C   UNL     1     -45.978 -51.208  14.452  1.00  0.00     0.019 C 
ENDBRANCH   7  20
TORSDOF 4
ENDMDL
MODEL 9
REMARK VINA RESULT:      -5.5      5.475      8.706
REMARK  4 active torsions:
REMARK  status: ('A' for Active; 'I' for Inactive)
REMARK       I    between atoms: C_2  and  N_3 
REMARK       I    between atoms: C_2  and  N_13 
REMARK    1  A    between atoms: N_3  and  C_4 
REMARK    2  A    between atoms: C_4  and  C_5 
REMARK    3  A    between atoms: C_5  and  C_6 
REMARK    4  A    between atoms: N_16  and  C_19 
ROOT
HETATM    1  O   UNL     1     -40.491 -56.761  16.431  1.00  0.00    -0.247 OA
HETATM    2  C   UNL     1     -40.300 -55.589  16.120  1.00  0.00     0.318 C 
HETATM    3  N   UNL     1     -39.062 -54.996  16.174  1.00  0.00    -0.343 N 
HETATM    4  N   UNL     1     -41.288 -54.753  15.634  1.00  0.00    -0.331 N 
HETATM    5  C   UNL     1     -42.612 -55.316  15.369  1.00  0.00     0.158 C 
HETATM    6  C   UNL     1     -43.376 -54.529  14.282  1.00  0.00     0.293 C 
HETATM    7  N   UNL     1     -43.376 -53.053  14.421  1.00  0.00     0.096 N 
HETATM    8  C   UNL     1     -41.984 -52.602  14.638  1.00  0.00     0.293 C 
HETATM    9  C   UNL     1     -41.273 -53.298  15.806  1.00  0.00     0.158 C 
HETATM   10  H   UNL     1     -38.926 -54.365  15.399  1.00  0.00     0.164 HD
ENDROOT
BRANCH   3  11
HETATM   11  C   UNL     1     -37.885 -55.768  16.537  1.00  0.00     0.130 C 
BRANCH  11  12
HETATM   12  C   UNL     1     -37.737 -55.829  18.053  1.00  0.00     0.076 C 
BRANCH  12  13
HETATM   13  C   UNL     1     -37.656 -57.238  18.566  1.00  0.00     0.010 A 
HETATM   14  C   UNL     1     -36.616 -57.631  19.402  1.00  0.00     0.025 A 
HETATM   15  C   UNL     1     -36.553 -58.958  19.819  1.00  0.00     0.003 A 
HETATM   16  C   UNL     1     -37.531 -59.851  19.399  1.00  0.00     0.017 A 
HETATM   17  C   UNL     1     -38.540 -59.375  18.582  1.00  0.00     0.088 A 
HETATM   18  N   UNL     1     -38.625 -58.095  18.160  1.00  0.00    -0.369 N 
ATOM     19  HN  UNL     1     -39.388 -57.784  17.558  1.00  0.00     0.165 HD
ENDBRANCH  12  13
ENDBRANCH  11  12
ENDBRANCH   3  11
BRANCH   7  20
HETATM   20  C   UNL     1     -44.313 -52.539  15.434  1.00  0.00     0.227 C 
HETATM   21  C   UNL     1     -45.611 -53.380  15.591  1.00  0.00     0.041 C 
HETATM   22  C   UNL     1     -46.734 -52.380  15.264  1.00  0.00    -0.012 C 
HETATM   23  C   UNL     1     -46.680 -52.049  13.761  1.00  0.00     0.005 C 
HETATM   24  C   UNL     1     -46.199 -51.104  15.908  1.00  0.00     0.011 C 
HETATM   25  C   UNL     1     -45.476 -51.106  13.659  1.00  0.00     0.007 C 
HETATM   26  C   UNL     1     -44.905 -51.132  15.091  1.00  0.00     0.019 C 
ENDBRANCH   7  20
TORSDOF 4
ENDMDL
