MODEL 1
REMARK VINA RESULT:      -5.5      0.000      0.000
REMARK  4 active torsions:
REMARK  status: ('A' for Active; 'I' for Inactive)
REMARK    1  A    between atoms: C_7  and  C_8 
REMARK    2  A    between atoms: C_8  and  C_9 
REMARK       I    between atoms: C_9  and  N_11 
REMARK    3  A    between atoms: N_11  and  C_12 
REMARK    4  A    between atoms: C_12  and  C_13 
ROOT
HETATM    1  C   UNL     1     -40.863 -51.152  11.761  1.00  0.00     0.089 C 
HETATM    2  C   UNL     1     -41.734 -52.153  12.465  1.00  0.00     0.080 A 
HETATM    3  N   UNL     1     -41.330 -52.731  13.545  1.00  0.00    -0.349 N 
ATOM      4  HN  UNL     1     -40.428 -52.496  13.959  1.00  0.00     0.167 HD
HETATM    5  C   UNL     1     -42.149 -53.674  14.123  1.00  0.00     0.018 A 
HETATM    6  C   UNL     1     -41.534 -54.354  15.320  1.00  0.00     0.069 C 
HETATM    7  C   UNL     1     -43.382 -53.975  13.669  1.00  0.00     0.041 A 
HETATM    8  C   UNL     1     -43.855 -53.222  12.485  1.00  0.00     0.255 A 
HETATM    9  O   UNL     1     -45.006 -53.327  12.070  1.00  0.00    -0.268 OA
HETATM   10  N   UNL     1     -42.946 -52.399  11.895  1.00  0.00    -0.313 N 
HETATM   11  H   UNL     1     -43.251 -51.893  11.078  1.00  0.00     0.170 HD
ENDROOT
BRANCH   7  12
HETATM   12  C   UNL     1     -44.286 -55.066  14.158  1.00  0.00     0.149 C 
BRANCH  12  13
HETATM   13  C   UNL     1     -45.391 -54.587  15.087  1.00  0.00     0.222 C 
HETATM   14  O   UNL     1     -46.563 -54.905  14.893  1.00  0.00    -0.273 OA
HETATM   15  N   UNL     1     -45.006 -53.738  16.100  1.00  0.00    -0.360 N 
HETATM   16  H   UNL     1     -44.023 -53.513  16.224  1.00  0.00     0.162 HD
BRANCH  15  17
HETATM   17  C   UNL     1     -45.990 -53.089  16.942  1.00  0.00     0.127 C 
BRANCH  17  18
HETATM   18  C   UNL     1     -46.260 -51.689  16.477  1.00  0.00     0.003 A 
HETATM   19  C   UNL     1     -47.684 -51.187  16.411  1.00  0.00     0.007 A 
HETATM   20  C   UNL     1     -46.916 -51.425  15.143  1.00  0.00     0.007 A 
ENDBRANCH  17  18
ENDBRANCH  15  17
ENDBRANCH  12  13
ENDBRANCH   7  12
TORSDOF 4
ENDMDL
MODEL 2
REMARK VINA RESULT:      -5.4      1.821      5.358
REMARK  4 active torsions:
REMARK  status: ('A' for Active; 'I' for Inactive)
REMARK    1  A    between atoms: C_7  and  C_8 
REMARK    2  A    between atoms: C_8  and  C_9 
REMARK       I    between atoms: C_9  and  N_11 
REMARK    3  A    between atoms: N_11  and  C_12 
REMARK    4  A    between atoms: C_12  and  C_13 
ROOT
HETATM    1  C   UNL     1     -47.945 -51.185  17.043  1.00  0.00     0.089 C 
HETATM    2  C   UNL     1     -47.125 -51.887  15.999  1.00  0.00     0.080 A 
HETATM    3  N   UNL     1     -47.059 -51.428  14.796  1.00  0.00    -0.349 N 
ATOM      4  HN  UNL     1     -47.534 -50.563  14.538  1.00  0.00     0.167 HD
HETATM    5  C   UNL     1     -46.331 -52.137  13.868  1.00  0.00     0.018 A 
HETATM    6  C   UNL     1     -46.406 -51.563  12.476  1.00  0.00     0.069 C 
HETATM    7  C   UNL     1     -45.620 -53.245  14.161  1.00  0.00     0.041 A 
HETATM    8  C   UNL     1     -45.636 -53.690  15.573  1.00  0.00     0.255 A 
HETATM    9  O   UNL     1     -44.924 -54.607  15.970  1.00  0.00    -0.268 OA
HETATM   10  N   UNL     1     -46.476 -53.013  16.404  1.00  0.00    -0.313 N 
HETATM   11  H   UNL     1     -46.509 -53.318  17.365  1.00  0.00     0.170 HD
ENDROOT
BRANCH   7  12
HETATM   12  C   UNL     1     -44.904 -54.143  13.198  1.00  0.00     0.149 C 
BRANCH  12  13
HETATM   13  C   UNL     1     -43.432 -53.808  13.013  1.00  0.00     0.222 C 
HETATM   14  O   UNL     1     -42.570 -54.342  13.710  1.00  0.00    -0.273 OA
HETATM   15  N   UNL     1     -43.142 -52.838  12.080  1.00  0.00    -0.360 N 
HETATM   16  H   UNL     1     -43.890 -52.434  11.524  1.00  0.00     0.162 HD
BRANCH  15  17
HETATM   17  C   UNL     1     -41.797 -52.321  11.936  1.00  0.00     0.127 C 
BRANCH  17  18
HETATM   18  C   UNL     1     -41.750 -50.851  12.231  1.00  0.00     0.003 A 
HETATM   19  C   UNL     1     -41.264 -50.378  13.582  1.00  0.00     0.007 A 
HETATM   20  C   UNL     1     -42.710 -50.223  13.210  1.00  0.00     0.007 A 
ENDBRANCH  17  18
ENDBRANCH  15  17
ENDBRANCH  12  13
ENDBRANCH   7  12
TORSDOF 4
ENDMDL
MODEL 3
REMARK VINA RESULT:      -5.3      1.939      5.798
REMARK  4 active torsions:
REMARK  status: ('A' for Active; 'I' for Inactive)
REMARK    1  A    between atoms: C_7  and  C_8 
REMARK    2  A    between atoms: C_8  and  C_9 
REMARK       I    between atoms: C_9  and  N_11 
REMARK    3  A    between atoms: N_11  and  C_12 
REMARK    4  A    between atoms: C_12  and  C_13 
ROOT
HETATM    1  C   UNL     1     -47.911 -51.155  17.116  1.00  0.00     0.089 C 
HETATM    2  C   UNL     1     -47.113 -51.849  16.051  1.00  0.00     0.080 A 
HETATM    3  N   UNL     1     -47.123 -51.418  14.835  1.00  0.00    -0.349 N 
ATOM      4  HN  UNL     1     -47.646 -50.579  14.582  1.00  0.00     0.167 HD
HETATM    5  C   UNL     1     -46.411 -52.119  13.889  1.00  0.00     0.018 A 
HETATM    6  C   UNL     1     -46.575 -51.582  12.490  1.00  0.00     0.069 C 
HETATM    7  C   UNL     1     -45.641 -53.189  14.172  1.00  0.00     0.041 A 
HETATM    8  C   UNL     1     -45.572 -53.599  15.594  1.00  0.00     0.255 A 
HETATM    9  O   UNL     1     -44.803 -54.477  15.977  1.00  0.00    -0.268 OA
HETATM   10  N   UNL     1     -46.399 -52.938  16.449  1.00  0.00    -0.313 N 
HETATM   11  H   UNL     1     -46.373 -53.220  17.417  1.00  0.00     0.170 HD
ENDROOT
BRANCH   7  12
HETATM   12  C   UNL     1     -44.935 -54.080  13.197  1.00  0.00     0.149 C 
BRANCH  12  13
HETATM   13  C   UNL     1     -43.489 -53.689  12.932  1.00  0.00     0.222 C 
HETATM   14  O   UNL     1     -43.212 -52.790  12.139  1.00  0.00    -0.273 OA
HETATM   15  N   UNL     1     -42.530 -54.438  13.575  1.00  0.00    -0.360 N 
HETATM   16  H   UNL     1     -42.811 -55.164  14.228  1.00  0.00     0.162 HD
BRANCH  15  17
HETATM   17  C   UNL     1     -41.123 -54.266  13.273  1.00  0.00     0.127 C 
BRANCH  17  18
HETATM   18  C   UNL     1     -40.351 -53.888  14.502  1.00  0.00     0.003 A 
HETATM   19  C   UNL     1     -39.055 -53.122  14.361  1.00  0.00     0.007 A 
HETATM   20  C   UNL     1     -39.033 -54.549  14.827  1.00  0.00     0.007 A 
ENDBRANCH  17  18
ENDBRANCH  15  17
ENDBRANCH  12  13
ENDBRANCH   7  12
TORSDOF 4
ENDMDL
MODEL 4
REMARK VINA RESULT:      -5.1      1.845      5.465
REMARK  4 active torsions:
REMARK  status: ('A' for Active; 'I' for Inactive)
REMARK    1  A    between atoms: C_7  and  C_8 
REMARK    2  A    between atoms: C_8  and  C_9 
REMARK       I    between atoms: C_9  and  N_11 
REMARK    3  A    between atoms: N_11  and  C_12 
REMARK    4  A    between atoms: C_12  and  C_13 
ROOT
HETATM    1  C   UNL     1     -47.714 -51.245  16.801  1.00  0.00     0.089 C 
HETATM    2  C   UNL     1     -46.903 -51.864  15.700  1.00  0.00     0.080 A 
HETATM    3  N   UNL     1     -46.159 -52.892  15.929  1.00  0.00    -0.349 N 
ATOM      4  HN  UNL     1     -46.134 -53.325  16.852  1.00  0.00     0.167 HD
HETATM    5  C   UNL     1     -45.400 -53.391  14.894  1.00  0.00     0.018 A 
HETATM    6  C   UNL     1     -44.498 -54.527  15.301  1.00  0.00     0.069 C 
HETATM    7  C   UNL     1     -45.445 -52.912  13.635  1.00  0.00     0.041 A 
HETATM    8  C   UNL     1     -46.383 -51.794  13.382  1.00  0.00     0.255 A 
HETATM    9  O   UNL     1     -46.595 -51.371  12.249  1.00  0.00    -0.268 OA
HETATM   10  N   UNL     1     -47.005 -51.275  14.477  1.00  0.00    -0.313 N 
HETATM   11  H   UNL     1     -47.633 -50.502  14.319  1.00  0.00     0.170 HD
ENDROOT
BRANCH   7  12
HETATM   12  C   UNL     1     -44.572 -53.309  12.483  1.00  0.00     0.149 C 
BRANCH  12  13
HETATM   13  C   UNL     1     -43.142 -52.800  12.584  1.00  0.00     0.222 C 
HETATM   14  O   UNL     1     -42.900 -51.594  12.611  1.00  0.00    -0.273 OA
HETATM   15  N   UNL     1     -42.154 -53.759  12.576  1.00  0.00    -0.360 N 
HETATM   16  H   UNL     1     -42.407 -54.742  12.562  1.00  0.00     0.162 HD
BRANCH  15  17
HETATM   17  C   UNL     1     -40.756 -53.387  12.501  1.00  0.00     0.127 C 
BRANCH  17  18
HETATM   18  C   UNL     1     -40.115 -53.424  13.857  1.00  0.00     0.003 A 
HETATM   19  C   UNL     1     -39.200 -54.572  14.217  1.00  0.00     0.007 A 
HETATM   20  C   UNL     1     -40.536 -54.441  14.889  1.00  0.00     0.007 A 
ENDBRANCH  17  18
ENDBRANCH  15  17
ENDBRANCH  12  13
ENDBRANCH   7  12
TORSDOF 4
ENDMDL
MODEL 5
REMARK VINA RESULT:      -5.1      1.754      3.268
REMARK  4 active torsions:
REMARK  status: ('A' for Active; 'I' for Inactive)
REMARK    1  A    between atoms: C_7  and  C_8 
REMARK    2  A    between atoms: C_8  and  C_9 
REMARK       I    between atoms: C_9  and  N_11 
REMARK    3  A    between atoms: N_11  and  C_12 
REMARK    4  A    between atoms: C_12  and  C_13 
ROOT
HETATM    1  C   UNL     1     -40.026 -55.057  16.655  1.00  0.00     0.089 C 
HETATM    2  C   UNL     1     -40.978 -54.730  15.541  1.00  0.00     0.080 A 
HETATM    3  N   UNL     1     -40.562 -54.138  14.473  1.00  0.00    -0.349 N 
ATOM      4  HN  UNL     1     -39.574 -53.912  14.350  1.00  0.00     0.167 HD
HETATM    5  C   UNL     1     -41.484 -53.820  13.503  1.00  0.00     0.018 A 
HETATM    6  C   UNL     1     -40.903 -53.044  12.348  1.00  0.00     0.069 C 
HETATM    7  C   UNL     1     -42.788 -54.156  13.571  1.00  0.00     0.041 A 
HETATM    8  C   UNL     1     -43.215 -54.922  14.765  1.00  0.00     0.255 A 
HETATM    9  O   UNL     1     -44.347 -55.387  14.864  1.00  0.00    -0.268 OA
HETATM   10  N   UNL     1     -42.276 -55.090  15.736  1.00  0.00    -0.313 N 
HETATM   11  H   UNL     1     -42.560 -55.596  16.561  1.00  0.00     0.170 HD
ENDROOT
BRANCH   7  12
HETATM   12  C   UNL     1     -43.880 -53.747  12.629  1.00  0.00     0.149 C 
BRANCH  12  13
HETATM   13  C   UNL     1     -44.589 -52.460  13.021  1.00  0.00     0.222 C 
HETATM   14  O   UNL     1     -43.965 -51.406  13.142  1.00  0.00    -0.273 OA
HETATM   15  N   UNL     1     -45.935 -52.566  13.289  1.00  0.00    -0.360 N 
HETATM   16  H   UNL     1     -46.405 -53.458  13.165  1.00  0.00     0.162 HD
BRANCH  15  17
HETATM   17  C   UNL     1     -46.677 -51.446  13.830  1.00  0.00     0.127 C 
BRANCH  17  18
HETATM   18  C   UNL     1     -47.008 -51.666  15.276  1.00  0.00     0.003 A 
HETATM   19  C   UNL     1     -46.166 -51.001  16.342  1.00  0.00     0.007 A 
HETATM   20  C   UNL     1     -46.108 -52.491  16.163  1.00  0.00     0.007 A 
ENDBRANCH  17  18
ENDBRANCH  15  17
ENDBRANCH  12  13
ENDBRANCH   7  12
TORSDOF 4
ENDMDL
MODEL 6
REMARK VINA RESULT:      -5.1      3.039      4.742
REMARK  4 active torsions:
REMARK  status: ('A' for Active; 'I' for Inactive)
REMARK    1  A    between atoms: C_7  and  C_8 
REMARK    2  A    between atoms: C_8  and  C_9 
REMARK       I    between atoms: C_9  and  N_11 
REMARK    3  A    between atoms: N_11  and  C_12 
REMARK    4  A    between atoms: C_12  and  C_13 
ROOT
HETATM    1  C   UNL     1     -37.520 -48.478  14.455  1.00  0.00     0.089 C 
HETATM    2  C   UNL     1     -38.394 -49.482  13.760  1.00  0.00     0.080 A 
HETATM    3  N   UNL     1     -39.245 -49.106  12.866  1.00  0.00    -0.349 N 
ATOM      4  HN  UNL     1     -39.316 -48.126  12.590  1.00  0.00     0.167 HD
HETATM    5  C   UNL     1     -40.054 -50.061  12.295  1.00  0.00     0.018 A 
HETATM    6  C   UNL     1     -41.074 -49.495  11.340  1.00  0.00     0.069 C 
HETATM    7  C   UNL     1     -39.960 -51.379  12.561  1.00  0.00     0.041 A 
HETATM    8  C   UNL     1     -38.906 -51.789  13.518  1.00  0.00     0.255 A 
HETATM    9  O   UNL     1     -38.651 -52.971  13.732  1.00  0.00    -0.268 OA
HETATM   10  N   UNL     1     -38.231 -50.781  14.134  1.00  0.00    -0.313 N 
HETATM   11  H   UNL     1     -37.523 -51.047  14.801  1.00  0.00     0.170 HD
ENDROOT
BRANCH   7  12
HETATM   12  C   UNL     1     -40.872 -52.468  12.083  1.00  0.00     0.149 C 
BRANCH  12  13
HETATM   13  C   UNL     1     -42.189 -52.550  12.840  1.00  0.00     0.222 C 
HETATM   14  O   UNL     1     -42.216 -52.516  14.069  1.00  0.00    -0.273 OA
HETATM   15  N   UNL     1     -43.319 -52.729  12.074  1.00  0.00    -0.360 N 
HETATM   16  H   UNL     1     -43.244 -52.742  11.061  1.00  0.00     0.162 HD
BRANCH  15  17
HETATM   17  C   UNL     1     -44.605 -52.987  12.691  1.00  0.00     0.127 C 
BRANCH  17  18
HETATM   18  C   UNL     1     -45.397 -51.721  12.831  1.00  0.00     0.003 A 
HETATM   19  C   UNL     1     -46.554 -51.671  13.804  1.00  0.00     0.007 A 
HETATM   20  C   UNL     1     -46.817 -51.632  12.326  1.00  0.00     0.007 A 
ENDBRANCH  17  18
ENDBRANCH  15  17
ENDBRANCH  12  13
ENDBRANCH   7  12
TORSDOF 4
ENDMDL
MODEL 7
REMARK VINA RESULT:      -4.9      4.407      6.967
REMARK  4 active torsions:
REMARK  status: ('A' for Active; 'I' for Inactive)
REMARK    1  A    between atoms: C_7  and  C_8 
REMARK    2  A    between atoms: C_8  and  C_9 
REMARK       I    between atoms: C_9  and  N_11 
REMARK    3  A    between atoms: N_11  and  C_12 
REMARK    4  A    between atoms: C_12  and  C_13 
ROOT
HETATM    1  C   UNL     1     -36.452 -49.211  16.433  1.00  0.00     0.089 C 
HETATM    2  C   UNL     1     -37.174 -49.263  15.117  1.00  0.00     0.080 A 
HETATM    3  N   UNL     1     -37.845 -48.246  14.694  1.00  0.00    -0.349 N 
ATOM      4  HN  UNL     1     -37.870 -47.376  15.228  1.00  0.00     0.167 HD
HETATM    5  C   UNL     1     -38.526 -48.364  13.505  1.00  0.00     0.018 A 
HETATM    6  C   UNL     1     -39.353 -47.151  13.160  1.00  0.00     0.069 C 
HETATM    7  C   UNL     1     -38.472 -49.456  12.716  1.00  0.00     0.041 A 
HETATM    8  C   UNL     1     -37.614 -50.569  13.182  1.00  0.00     0.255 A 
HETATM    9  O   UNL     1     -37.394 -51.553  12.481  1.00  0.00    -0.268 OA
HETATM   10  N   UNL     1     -37.073 -50.430  14.424  1.00  0.00    -0.313 N 
HETATM   11  H   UNL     1     -36.500 -51.189  14.759  1.00  0.00     0.170 HD
ENDROOT
BRANCH   7  12
HETATM   12  C   UNL     1     -39.271 -49.718  11.476  1.00  0.00     0.149 C 
BRANCH  12  13
HETATM   13  C   UNL     1     -40.572 -50.467  11.722  1.00  0.00     0.222 C 
HETATM   14  O   UNL     1     -41.636 -49.863  11.846  1.00  0.00    -0.273 OA
HETATM   15  N   UNL     1     -40.469 -51.833  11.859  1.00  0.00    -0.360 N 
HETATM   16  H   UNL     1     -39.568 -52.285  11.738  1.00  0.00     0.162 HD
BRANCH  15  17
HETATM   17  C   UNL     1     -41.611 -52.630  12.258  1.00  0.00     0.127 C 
BRANCH  17  18
HETATM   18  C   UNL     1     -41.177 -53.948  12.826  1.00  0.00     0.003 A 
HETATM   19  C   UNL     1     -41.379 -54.229  14.298  1.00  0.00     0.007 A 
HETATM   20  C   UNL     1     -39.992 -54.043  13.755  1.00  0.00     0.007 A 
ENDBRANCH  17  18
ENDBRANCH  15  17
ENDBRANCH  12  13
ENDBRANCH   7  12
TORSDOF 4
ENDMDL
MODEL 8
REMARK VINA RESULT:      -4.7      2.704      5.608
REMARK  4 active torsions:
REMARK  status: ('A' for Active; 'I' for Inactive)
REMARK    1  A    between atoms: C_7  and  C_8 
REMARK    2  A    between atoms: C_8  and  C_9 
REMARK       I    between atoms: C_9  and  N_11 
REMARK    3  A    between atoms: N_11  and  C_12 
REMARK    4  A    between atoms: C_12  and  C_13 
ROOT
HETATM    1  C   UNL     1     -46.139 -51.578  13.429  1.00  0.00     0.089 C 
HETATM    2  C   UNL     1     -44.777 -52.207  13.350  1.00  0.00     0.080 A 
HETATM    3  N   UNL     1     -43.800 -51.590  12.777  1.00  0.00    -0.349 N 
ATOM      4  HN  UNL     1     -43.925 -50.651  12.397  1.00  0.00     0.167 HD
HETATM    5  C   UNL     1     -42.586 -52.231  12.692  1.00  0.00     0.018 A 
HETATM    6  C   UNL     1     -41.549 -51.459  11.916  1.00  0.00     0.069 C 
HETATM    7  C   UNL     1     -42.336 -53.438  13.238  1.00  0.00     0.041 A 
HETATM    8  C   UNL     1     -43.451 -54.077  13.975  1.00  0.00     0.255 A 
HETATM    9  O   UNL     1     -43.293 -55.111  14.617  1.00  0.00    -0.268 OA
HETATM   10  N   UNL     1     -44.653 -53.442  13.910  1.00  0.00    -0.313 N 
HETATM   11  H   UNL     1     -45.425 -53.876  14.394  1.00  0.00     0.170 HD
ENDROOT
BRANCH   7  12
HETATM   12  C   UNL     1     -41.091 -54.260  13.091  1.00  0.00     0.149 C 
BRANCH  12  13
HETATM   13  C   UNL     1     -39.974 -53.872  14.047  1.00  0.00     0.222 C 
HETATM   14  O   UNL     1     -38.867 -53.541  13.625  1.00  0.00    -0.273 OA
HETATM   15  N   UNL     1     -40.260 -53.979  15.389  1.00  0.00    -0.360 N 
HETATM   16  H   UNL     1     -41.193 -54.248  15.686  1.00  0.00     0.162 HD
BRANCH  15  17
HETATM   17  C   UNL     1     -39.227 -53.797  16.388  1.00  0.00     0.127 C 
BRANCH  17  18
HETATM   18  C   UNL     1     -39.112 -55.003  17.272  1.00  0.00     0.003 A 
HETATM   19  C   UNL     1     -38.070 -56.054  16.966  1.00  0.00     0.007 A 
HETATM   20  C   UNL     1     -39.526 -56.369  16.782  1.00  0.00     0.007 A 
ENDBRANCH  17  18
ENDBRANCH  15  17
ENDBRANCH  12  13
ENDBRANCH   7  12
TORSDOF 4
ENDMDL
MODEL 9
REMARK VINA RESULT:      -4.7      2.183      5.395
REMARK  4 active torsions:
REMARK  status: ('A' for Active; 'I' for Inactive)
REMARK    1  A    between atoms: C_7  and  C_8 
REMARK    2  A    between atoms: C_8  and  C_9 
REMARK       I    between atoms: C_9  and  N_11 
REMARK    3  A    between atoms: N_11  and  C_12 
REMARK    4  A    between atoms: C_12  and  C_13 
ROOT
HETATM    1  C   UNL     1     -47.777 -51.272  17.113  1.00  0.00     0.089 C 
HETATM    2  C   UNL     1     -46.759 -51.204  16.011  1.00  0.00     0.080 A 
HETATM    3  N   UNL     1     -47.106 -51.385  14.782  1.00  0.00    -0.349 N 
ATOM      4  HN  UNL     1     -48.083 -51.544  14.532  1.00  0.00     0.167 HD
HETATM    5  C   UNL     1     -46.126 -51.358  13.817  1.00  0.00     0.018 A 
HETATM    6  C   UNL     1     -46.631 -51.680  12.434  1.00  0.00     0.069 C 
HETATM    7  C   UNL     1     -44.831 -51.079  14.072  1.00  0.00     0.041 A 
HETATM    8  C   UNL     1     -44.482 -50.778  15.480  1.00  0.00     0.255 A 
HETATM    9  O   UNL     1     -43.363 -50.388  15.799  1.00  0.00    -0.268 OA
HETATM   10  N   UNL     1     -45.478 -50.946  16.393  1.00  0.00    -0.313 N 
HETATM   11  H   UNL     1     -45.247 -50.761  17.357  1.00  0.00     0.170 HD
ENDROOT
BRANCH   7  12
HETATM   12  C   UNL     1     -43.683 -51.149  13.112  1.00  0.00     0.149 C 
BRANCH  12  13
HETATM   13  C   UNL     1     -43.023 -52.517  13.030  1.00  0.00     0.222 C 
HETATM   14  O   UNL     1     -43.525 -53.422  12.364  1.00  0.00    -0.273 OA
HETATM   15  N   UNL     1     -41.888 -52.689  13.789  1.00  0.00    -0.360 N 
HETATM   16  H   UNL     1     -41.509 -51.906  14.314  1.00  0.00     0.162 HD
BRANCH  15  17
HETATM   17  C   UNL     1     -41.270 -53.993  13.919  1.00  0.00     0.127 C 
BRANCH  17  18
HETATM   18  C   UNL     1     -41.479 -54.553  15.295  1.00  0.00     0.003 A 
HETATM   19  C   UNL     1     -42.666 -55.451  15.560  1.00  0.00     0.007 A 
HETATM   20  C   UNL     1     -42.617 -54.077  16.164  1.00  0.00     0.007 A 
ENDBRANCH  17  18
ENDBRANCH  15  17
ENDBRANCH  12  13
ENDBRANCH   7  12
TORSDOF 4
ENDMDL
