MODEL 1
REMARK VINA RESULT:      -8.0      0.000      0.000
REMARK  4 active torsions:
REMARK  status: ('A' for Active; 'I' for Inactive)
REMARK    1  A    between atoms: N_1  and  C_7 
REMARK    2  A    between atoms: N_2  and  C_12 
REMARK    3  A    between atoms: C_7  and  C_9 
REMARK       I    between atoms: C_8  and  N_10 
REMARK    4  A    between atoms: C_8  and  C_13 
REMARK       I    between atoms: C_9  and  N_11 
ROOT
HETATM    1  C   UNL     1     -38.846 -51.587  14.464  1.00  0.00     0.240 C 
ENDROOT
BRANCH   1   2
HETATM    2  N   UNL     1     -38.685 -50.600  13.398  1.00  0.00    -0.255 N 
HETATM    3  C   UNL     1     -39.709 -49.684  13.183  1.00  0.00     0.334 C 
HETATM    4  N   UNL     1     -39.449 -48.667  12.263  1.00  0.00    -0.279 N 
HETATM    5  O   UNL     1     -40.796 -49.748  13.758  1.00  0.00    -0.246 OA
HETATM    6  C   UNL     1     -38.442 -48.791  11.334  1.00  0.00     0.146 C 
HETATM    7  C   UNL     1     -37.601 -49.820  11.367  1.00  0.00     0.200 C 
HETATM    8  C   UNL     1     -37.677 -50.816  12.458  1.00  0.00     0.292 C 
HETATM    9  F   UNL     1     -36.668 -50.010  10.416  1.00  0.00    -0.199 F 
HETATM   10  O   UNL     1     -36.918 -51.778  12.469  1.00  0.00    -0.264 OA
BRANCH   4  11
HETATM   11  C   UNL     1     -40.409 -47.566  12.223  1.00  0.00     0.232 C 
HETATM   12  O   UNL     1     -40.960 -47.371  10.907  1.00  0.00    -0.366 OA
HETATM   13  C   UNL     1     -41.125 -45.961  10.684  1.00  0.00     0.170 C 
HETATM   14  C   UNL     1     -40.753 -45.251  11.968  1.00  0.00     0.031 C 
HETATM   15  C   UNL     1     -39.784 -46.220  12.589  1.00  0.00     0.056 C 
ENDBRANCH   4  11
ENDBRANCH   1   2
BRANCH   1  16
HETATM   16  C   UNL     1     -39.472 -52.944  14.048  1.00  0.00     0.238 C 
HETATM   17  N   UNL     1     -40.856 -53.096  14.143  1.00  0.00    -0.348 N 
HETATM   18  C   UNL     1     -41.512 -54.233  13.480  1.00  0.00     0.145 C 
HETATM   19  C   UNL     1     -41.667 -52.492  15.194  1.00  0.00     0.145 C 
HETATM   20  C   UNL     1     -42.939 -53.872  13.009  1.00  0.00     0.146 C 
HETATM   21  N   UNL     1     -43.733 -53.202  14.054  1.00  0.00    -0.344 N 
HETATM   22  C   UNL     1     -45.135 -53.261  13.941  1.00  0.00     0.260 C 
HETATM   23  C   UNL     1     -43.042 -52.072  14.679  1.00  0.00     0.146 C 
HETATM   24  O   UNL     1     -45.647 -53.854  12.990  1.00  0.00    -0.267 OA
HETATM   25  O   UNL     1     -38.770 -53.842  13.580  1.00  0.00    -0.272 OA
BRANCH  22  26
HETATM   26  C   UNL     1     -45.942 -52.639  14.988  1.00  0.00     0.072 A 
HETATM   27  S   UNL     1     -45.884 -53.293  16.577  1.00  0.00    -0.097 SA
HETATM   28  C   UNL     1     -46.985 -52.130  17.176  1.00  0.00     0.050 A 
HETATM   29  C   UNL     1     -47.374 -51.239  16.204  1.00  0.00     0.009 A 
HETATM   30  C   UNL     1     -46.748 -51.512  14.951  1.00  0.00     0.025 A 
ENDBRANCH  22  26
ENDBRANCH   1  16
TORSDOF 4
ENDMDL
MODEL 2
REMARK VINA RESULT:      -7.9      3.484      7.834
REMARK  4 active torsions:
REMARK  status: ('A' for Active; 'I' for Inactive)
REMARK    1  A    between atoms: N_1  and  C_7 
REMARK    2  A    between atoms: N_2  and  C_12 
REMARK    3  A    between atoms: C_7  and  C_9 
REMARK       I    between atoms: C_8  and  N_10 
REMARK    4  A    between atoms: C_8  and  C_13 
REMARK       I    between atoms: C_9  and  N_11 
ROOT
HETATM    1  C   UNL     1     -44.283 -55.039  14.224  1.00  0.00     0.240 C 
ENDROOT
BRANCH   1   2
HETATM    2  N   UNL     1     -45.036 -53.793  14.355  1.00  0.00    -0.255 N 
HETATM    3  C   UNL     1     -45.754 -53.572  15.525  1.00  0.00     0.334 C 
HETATM    4  N   UNL     1     -46.330 -52.309  15.671  1.00  0.00    -0.279 N 
HETATM    5  O   UNL     1     -45.892 -54.430  16.398  1.00  0.00    -0.246 OA
HETATM    6  C   UNL     1     -46.536 -51.494  14.583  1.00  0.00     0.146 C 
HETATM    7  C   UNL     1     -46.076 -51.824  13.381  1.00  0.00     0.200 C 
HETATM    8  C   UNL     1     -45.255 -53.042  13.201  1.00  0.00     0.292 C 
HETATM    9  F   UNL     1     -46.344 -51.088  12.286  1.00  0.00    -0.199 F 
HETATM   10  O   UNL     1     -44.856 -53.357  12.086  1.00  0.00    -0.264 OA
BRANCH   4  11
HETATM   11  C   UNL     1     -46.860 -51.985  16.994  1.00  0.00     0.232 C 
HETATM   12  O   UNL     1     -48.211 -51.490  16.934  1.00  0.00    -0.366 OA
HETATM   13  C   UNL     1     -48.363 -50.456  17.920  1.00  0.00     0.170 C 
HETATM   14  C   UNL     1     -47.070 -50.379  18.701  1.00  0.00     0.031 C 
HETATM   15  C   UNL     1     -46.069 -50.883  17.697  1.00  0.00     0.056 C 
ENDBRANCH   4  11
ENDBRANCH   1   2
BRANCH   1  16
HETATM   16  C   UNL     1     -43.061 -55.201  15.166  1.00  0.00     0.238 C 
HETATM   17  N   UNL     1     -42.000 -54.304  15.040  1.00  0.00    -0.348 N 
HETATM   18  C   UNL     1     -40.979 -54.227  16.097  1.00  0.00     0.145 C 
HETATM   19  C   UNL     1     -41.558 -53.747  13.766  1.00  0.00     0.145 C 
HETATM   20  C   UNL     1     -40.404 -52.800  16.230  1.00  0.00     0.146 C 
HETATM   21  N   UNL     1     -40.019 -52.215  14.933  1.00  0.00    -0.344 N 
HETATM   22  C   UNL     1     -39.070 -51.176  14.947  1.00  0.00     0.260 C 
HETATM   23  C   UNL     1     -41.069 -52.307  13.917  1.00  0.00     0.146 C 
HETATM   24  O   UNL     1     -38.601 -50.790  16.018  1.00  0.00    -0.267 OA
HETATM   25  O   UNL     1     -43.060 -56.059  16.051  1.00  0.00    -0.272 OA
BRANCH  22  26
HETATM   26  C   UNL     1     -38.644 -50.610  13.669  1.00  0.00     0.072 A 
HETATM   27  S   UNL     1     -39.369 -49.148  13.127  1.00  0.00    -0.097 SA
HETATM   28  C   UNL     1     -38.431 -49.124  11.698  1.00  0.00     0.050 A 
HETATM   29  C   UNL     1     -37.560 -50.186  11.636  1.00  0.00     0.009 A 
HETATM   30  C   UNL     1     -37.659 -51.023  12.786  1.00  0.00     0.025 A 
ENDBRANCH  22  26
ENDBRANCH   1  16
TORSDOF 4
ENDMDL
MODEL 3
REMARK VINA RESULT:      -7.4      3.370      6.709
REMARK  4 active torsions:
REMARK  status: ('A' for Active; 'I' for Inactive)
REMARK    1  A    between atoms: N_1  and  C_7 
REMARK    2  A    between atoms: N_2  and  C_12 
REMARK    3  A    between atoms: C_7  and  C_9 
REMARK       I    between atoms: C_8  and  N_10 
REMARK    4  A    between atoms: C_8  and  C_13 
REMARK       I    between atoms: C_9  and  N_11 
ROOT
HETATM    1  C   UNL     1     -40.158 -49.827  14.402  1.00  0.00     0.240 C 
ENDROOT
BRANCH   1   2
HETATM    2  N   UNL     1     -40.983 -50.978  14.039  1.00  0.00    -0.255 N 
HETATM    3  C   UNL     1     -42.247 -51.093  14.608  1.00  0.00     0.334 C 
HETATM    4  N   UNL     1     -43.056 -52.119  14.118  1.00  0.00    -0.279 N 
HETATM    5  O   UNL     1     -42.651 -50.345  15.498  1.00  0.00    -0.246 OA
HETATM    6  C   UNL     1     -42.516 -53.188  13.441  1.00  0.00     0.146 C 
HETATM    7  C   UNL     1     -41.227 -53.213  13.116  1.00  0.00     0.200 C 
HETATM    8  C   UNL     1     -40.358 -52.051  13.403  1.00  0.00     0.292 C 
HETATM    9  F   UNL     1     -40.659 -54.286  12.536  1.00  0.00    -0.199 F 
HETATM   10  O   UNL     1     -39.165 -52.090  13.126  1.00  0.00    -0.264 OA
BRANCH   4  11
HETATM   11  C   UNL     1     -44.461 -52.087  14.520  1.00  0.00     0.232 C 
HETATM   12  O   UNL     1     -45.040 -53.404  14.585  1.00  0.00    -0.366 OA
HETATM   13  C   UNL     1     -46.397 -53.331  14.118  1.00  0.00     0.170 C 
HETATM   14  C   UNL     1     -46.706 -51.875  13.845  1.00  0.00     0.031 C 
HETATM   15  C   UNL     1     -45.343 -51.320  13.535  1.00  0.00     0.056 C 
ENDBRANCH   4  11
ENDBRANCH   1   2
BRANCH   1  16
HETATM   16  C   UNL     1     -39.526 -49.041  13.224  1.00  0.00     0.238 C 
HETATM   17  N   UNL     1     -40.369 -48.526  12.239  1.00  0.00    -0.348 N 
HETATM   18  C   UNL     1     -39.856 -47.527  11.288  1.00  0.00     0.145 C 
HETATM   19  C   UNL     1     -41.582 -49.194  11.779  1.00  0.00     0.145 C 
HETATM   20  C   UNL     1     -40.959 -46.540  10.847  1.00  0.00     0.146 C 
HETATM   21  N   UNL     1     -42.206 -47.217  10.446  1.00  0.00    -0.344 N 
HETATM   22  C   UNL     1     -43.078 -46.516   9.593  1.00  0.00     0.260 C 
HETATM   23  C   UNL     1     -42.681 -48.194  11.428  1.00  0.00     0.146 C 
HETATM   24  O   UNL     1     -42.785 -45.380   9.218  1.00  0.00    -0.267 OA
HETATM   25  O   UNL     1     -38.314 -48.820  13.195  1.00  0.00    -0.272 OA
BRANCH  22  26
HETATM   26  C   UNL     1     -44.300 -47.184   9.150  1.00  0.00     0.072 A 
HETATM   27  S   UNL     1     -44.248 -48.144   7.724  1.00  0.00    -0.097 SA
HETATM   28  C   UNL     1     -45.902 -48.558   7.853  1.00  0.00     0.050 A 
HETATM   29  C   UNL     1     -46.486 -48.007   8.970  1.00  0.00     0.009 A 
HETATM   30  C   UNL     1     -45.555 -47.242   9.734  1.00  0.00     0.025 A 
ENDBRANCH  22  26
ENDBRANCH   1  16
TORSDOF 4
ENDMDL
MODEL 4
REMARK VINA RESULT:      -7.3      2.573      3.683
REMARK  4 active torsions:
REMARK  status: ('A' for Active; 'I' for Inactive)
REMARK    1  A    between atoms: N_1  and  C_7 
REMARK    2  A    between atoms: N_2  and  C_12 
REMARK    3  A    between atoms: C_7  and  C_9 
REMARK       I    between atoms: C_8  and  N_10 
REMARK    4  A    between atoms: C_8  and  C_13 
REMARK       I    between atoms: C_9  and  N_11 
ROOT
HETATM    1  C   UNL     1     -39.423 -48.540  13.656  1.00  0.00     0.240 C 
ENDROOT
BRANCH   1   2
HETATM    2  N   UNL     1     -40.575 -47.718  13.290  1.00  0.00    -0.255 N 
HETATM    3  C   UNL     1     -40.721 -47.337  11.960  1.00  0.00     0.334 C 
HETATM    4  N   UNL     1     -41.910 -46.685  11.629  1.00  0.00    -0.279 N 
HETATM    5  O   UNL     1     -39.860 -47.548  11.105  1.00  0.00    -0.246 OA
HETATM    6  C   UNL     1     -42.687 -46.091  12.595  1.00  0.00     0.146 C 
HETATM    7  C   UNL     1     -42.402 -46.231  13.886  1.00  0.00     0.200 C 
HETATM    8  C   UNL     1     -41.286 -47.100  14.318  1.00  0.00     0.292 C 
HETATM    9  F   UNL     1     -43.092 -45.584  14.844  1.00  0.00    -0.199 F 
HETATM   10  O   UNL     1     -41.010 -47.204  15.508  1.00  0.00    -0.264 OA
BRANCH   4  11
HETATM   11  C   UNL     1     -42.181 -46.515  10.203  1.00  0.00     0.232 C 
HETATM   12  O   UNL     1     -42.974 -45.342   9.936  1.00  0.00    -0.366 OA
HETATM   13  C   UNL     1     -43.887 -45.641   8.867  1.00  0.00     0.170 C 
HETATM   14  C   UNL     1     -43.573 -47.038   8.379  1.00  0.00     0.031 C 
HETATM   15  C   UNL     1     -42.982 -47.673   9.608  1.00  0.00     0.056 C 
ENDBRANCH   4  11
ENDBRANCH   1   2
BRANCH   1  16
HETATM   16  C   UNL     1     -39.467 -50.021  13.196  1.00  0.00     0.238 C 
HETATM   17  N   UNL     1     -40.669 -50.720  13.315  1.00  0.00    -0.348 N 
HETATM   18  C   UNL     1     -40.838 -52.004  12.617  1.00  0.00     0.145 C 
HETATM   19  C   UNL     1     -41.614 -50.526  14.408  1.00  0.00     0.145 C 
HETATM   20  C   UNL     1     -42.306 -52.233  12.194  1.00  0.00     0.146 C 
HETATM   21  N   UNL     1     -43.263 -51.972  13.284  1.00  0.00    -0.344 N 
HETATM   22  C   UNL     1     -44.526 -52.587  13.199  1.00  0.00     0.260 C 
HETATM   23  C   UNL     1     -43.060 -50.679  13.942  1.00  0.00     0.146 C 
HETATM   24  O   UNL     1     -44.793 -53.306  12.235  1.00  0.00    -0.267 OA
HETATM   25  O   UNL     1     -38.481 -50.546  12.674  1.00  0.00    -0.272 OA
BRANCH  22  26
HETATM   26  C   UNL     1     -45.475 -52.375  14.290  1.00  0.00     0.072 A 
HETATM   27  S   UNL     1     -45.235 -53.212  15.772  1.00  0.00    -0.097 SA
HETATM   28  C   UNL     1     -46.618 -52.502  16.484  1.00  0.00     0.050 A 
HETATM   29  C   UNL     1     -47.243 -51.623  15.631  1.00  0.00     0.009 A 
HETATM   30  C   UNL     1     -46.566 -51.525  14.379  1.00  0.00     0.025 A 
ENDBRANCH  22  26
ENDBRANCH   1  16
TORSDOF 4
ENDMDL
MODEL 5
REMARK VINA RESULT:      -7.1      3.231      7.601
REMARK  4 active torsions:
REMARK  status: ('A' for Active; 'I' for Inactive)
REMARK    1  A    between atoms: N_1  and  C_7 
REMARK    2  A    between atoms: N_2  and  C_12 
REMARK    3  A    between atoms: C_7  and  C_9 
REMARK       I    between atoms: C_8  and  N_10 
REMARK    4  A    between atoms: C_8  and  C_13 
REMARK       I    between atoms: C_9  and  N_11 
ROOT
HETATM    1  C   UNL     1     -41.533 -51.988  11.922  1.00  0.00     0.240 C 
ENDROOT
BRANCH   1   2
HETATM    2  N   UNL     1     -42.484 -52.554  12.877  1.00  0.00    -0.255 N 
HETATM    3  C   UNL     1     -43.336 -51.689  13.555  1.00  0.00     0.334 C 
HETATM    4  N   UNL     1     -44.327 -52.282  14.339  1.00  0.00    -0.279 N 
HETATM    5  O   UNL     1     -43.237 -50.463  13.488  1.00  0.00    -0.246 OA
HETATM    6  C   UNL     1     -44.219 -53.590  14.749  1.00  0.00     0.146 C 
HETATM    7  C   UNL     1     -43.238 -54.369  14.306  1.00  0.00     0.200 C 
HETATM    8  C   UNL     1     -42.283 -53.870  13.292  1.00  0.00     0.292 C 
HETATM    9  F   UNL     1     -43.060 -55.622  14.763  1.00  0.00    -0.199 F 
HETATM   10  O   UNL     1     -41.364 -54.583  12.907  1.00  0.00    -0.264 OA
BRANCH   4  11
HETATM   11  C   UNL     1     -45.374 -51.395  14.843  1.00  0.00     0.232 C 
HETATM   12  O   UNL     1     -45.091 -50.918  16.172  1.00  0.00    -0.366 OA
HETATM   13  C   UNL     1     -46.324 -50.851  16.906  1.00  0.00     0.170 C 
HETATM   14  C   UNL     1     -47.442 -51.208  15.950  1.00  0.00     0.031 C 
HETATM   15  C   UNL     1     -46.733 -52.085  14.955  1.00  0.00     0.056 C 
ENDBRANCH   4  11
ENDBRANCH   1   2
BRANCH   1  16
HETATM   16  C   UNL     1     -40.185 -51.496  12.511  1.00  0.00     0.238 C 
HETATM   17  N   UNL     1     -39.991 -50.124  12.677  1.00  0.00    -0.348 N 
HETATM   18  C   UNL     1     -38.876 -49.639  13.505  1.00  0.00     0.145 C 
HETATM   19  C   UNL     1     -40.515 -49.115  11.763  1.00  0.00     0.145 C 
HETATM   20  C   UNL     1     -39.225 -48.309  14.209  1.00  0.00     0.146 C 
HETATM   21  N   UNL     1     -39.815 -47.316  13.295  1.00  0.00    -0.344 N 
HETATM   22  C   UNL     1     -39.725 -45.961  13.664  1.00  0.00     0.260 C 
HETATM   23  C   UNL     1     -40.927 -47.842  12.499  1.00  0.00     0.146 C 
HETATM   24  O   UNL     1     -39.173 -45.650  14.720  1.00  0.00    -0.267 OA
HETATM   25  O   UNL     1     -39.333 -52.303  12.888  1.00  0.00    -0.272 OA
BRANCH  22  26
HETATM   26  C   UNL     1     -40.268 -44.956  12.752  1.00  0.00     0.072 A 
HETATM   27  S   UNL     1     -41.818 -44.289  13.080  1.00  0.00    -0.097 SA
HETATM   28  C   UNL     1     -41.759 -43.279  11.702  1.00  0.00     0.050 A 
HETATM   29  C   UNL     1     -40.577 -43.417  11.013  1.00  0.00     0.009 A 
HETATM   30  C   UNL     1     -39.704 -44.358  11.636  1.00  0.00     0.025 A 
ENDBRANCH  22  26
ENDBRANCH   1  16
TORSDOF 4
ENDMDL
MODEL 6
REMARK VINA RESULT:      -6.9      5.261      8.554
REMARK  4 active torsions:
REMARK  status: ('A' for Active; 'I' for Inactive)
REMARK    1  A    between atoms: N_1  and  C_7 
REMARK    2  A    between atoms: N_2  and  C_12 
REMARK    3  A    between atoms: C_7  and  C_9 
REMARK       I    between atoms: C_8  and  N_10 
REMARK    4  A    between atoms: C_8  and  C_13 
REMARK       I    between atoms: C_9  and  N_11 
ROOT
HETATM    1  C   UNL     1     -41.395 -54.559  16.624  1.00  0.00     0.240 C 
ENDROOT
BRANCH   1   2
HETATM    2  N   UNL     1     -41.882 -54.081  15.332  1.00  0.00    -0.255 N 
HETATM    3  C   UNL     1     -43.256 -54.035  15.117  1.00  0.00     0.334 C 
HETATM    4  N   UNL     1     -43.679 -53.430  13.933  1.00  0.00    -0.279 N 
HETATM    5  O   UNL     1     -44.073 -54.500  15.912  1.00  0.00    -0.246 OA
HETATM    6  C   UNL     1     -42.819 -53.271  12.871  1.00  0.00     0.146 C 
HETATM    7  C   UNL     1     -41.528 -53.566  12.983  1.00  0.00     0.200 C 
HETATM    8  C   UNL     1     -40.967 -53.996  14.282  1.00  0.00     0.292 C 
HETATM    9  F   UNL     1     -40.689 -53.506  11.933  1.00  0.00    -0.199 F 
HETATM   10  O   UNL     1     -39.782 -54.293  14.374  1.00  0.00    -0.264 OA
BRANCH   4  11
HETATM   11  C   UNL     1     -45.109 -53.149  13.821  1.00  0.00     0.232 C 
HETATM   12  O   UNL     1     -45.570 -53.203  12.459  1.00  0.00    -0.366 OA
HETATM   13  C   UNL     1     -46.557 -52.176  12.268  1.00  0.00     0.170 C 
HETATM   14  C   UNL     1     -46.792 -51.518  13.610  1.00  0.00     0.031 C 
HETATM   15  C   UNL     1     -45.477 -51.746  14.304  1.00  0.00     0.056 C 
ENDBRANCH   4  11
ENDBRANCH   1   2
BRANCH   1  16
HETATM   16  C   UNL     1     -41.143 -56.085  16.736  1.00  0.00     0.238 C 
HETATM   17  N   UNL     1     -39.877 -56.526  17.124  1.00  0.00    -0.348 N 
HETATM   18  C   UNL     1     -39.685 -57.925  17.537  1.00  0.00     0.145 C 
HETATM   19  C   UNL     1     -38.636 -55.858  16.747  1.00  0.00     0.145 C 
HETATM   20  C   UNL     1     -38.580 -58.056  18.608  1.00  0.00     0.146 C 
HETATM   21  N   UNL     1     -37.350 -57.325  18.253  1.00  0.00    -0.344 N 
HETATM   22  C   UNL     1     -36.151 -57.741  18.859  1.00  0.00     0.260 C 
HETATM   23  C   UNL     1     -37.591 -55.936  17.857  1.00  0.00     0.146 C 
HETATM   24  O   UNL     1     -36.162 -58.681  19.656  1.00  0.00    -0.267 OA
HETATM   25  O   UNL     1     -42.060 -56.888  16.551  1.00  0.00    -0.272 OA
BRANCH  22  26
HETATM   26  C   UNL     1     -34.913 -57.057  18.490  1.00  0.00     0.072 A 
HETATM   27  S   UNL     1     -34.250 -55.902  19.577  1.00  0.00    -0.097 SA
HETATM   28  C   UNL     1     -32.929 -55.575  18.542  1.00  0.00     0.050 A 
HETATM   29  C   UNL     1     -32.965 -56.343  17.402  1.00  0.00     0.009 A 
HETATM   30  C   UNL     1     -34.090 -57.220  17.387  1.00  0.00     0.025 A 
ENDBRANCH  22  26
ENDBRANCH   1  16
TORSDOF 4
ENDMDL
MODEL 7
REMARK VINA RESULT:      -6.8      3.361      8.130
REMARK  4 active torsions:
REMARK  status: ('A' for Active; 'I' for Inactive)
REMARK    1  A    between atoms: N_1  and  C_7 
REMARK    2  A    between atoms: N_2  and  C_12 
REMARK    3  A    between atoms: C_7  and  C_9 
REMARK       I    between atoms: C_8  and  N_10 
REMARK    4  A    between atoms: C_8  and  C_13 
REMARK       I    between atoms: C_9  and  N_11 
ROOT
HETATM    1  C   UNL     1     -43.433 -53.886  13.016  1.00  0.00     0.240 C 
ENDROOT
BRANCH   1   2
HETATM    2  N   UNL     1     -44.321 -53.382  14.062  1.00  0.00    -0.255 N 
HETATM    3  C   UNL     1     -44.411 -54.093  15.254  1.00  0.00     0.334 C 
HETATM    4  N   UNL     1     -45.149 -53.497  16.278  1.00  0.00    -0.279 N 
HETATM    5  O   UNL     1     -43.880 -55.193  15.419  1.00  0.00    -0.246 OA
HETATM    6  C   UNL     1     -46.060 -52.503  16.010  1.00  0.00     0.146 C 
HETATM    7  C   UNL     1     -46.172 -51.986  14.790  1.00  0.00     0.200 C 
HETATM    8  C   UNL     1     -45.259 -52.412  13.708  1.00  0.00     0.292 C 
HETATM    9  F   UNL     1     -47.118 -51.079  14.484  1.00  0.00    -0.199 F 
HETATM   10  O   UNL     1     -45.384 -51.953  12.579  1.00  0.00    -0.264 OA
BRANCH   4  11
HETATM   11  C   UNL     1     -45.034 -54.108  17.601  1.00  0.00     0.232 C 
HETATM   12  O   UNL     1     -46.142 -54.979  17.897  1.00  0.00    -0.366 OA
HETATM   13  C   UNL     1     -46.472 -54.842  19.289  1.00  0.00     0.170 C 
HETATM   14  C   UNL     1     -45.450 -53.915  19.910  1.00  0.00     0.031 C 
HETATM   15  C   UNL     1     -45.032 -53.078  18.731  1.00  0.00     0.056 C 
ENDBRANCH   4  11
ENDBRANCH   1   2
BRANCH   1  16
HETATM   16  C   UNL     1     -41.917 -53.640  13.231  1.00  0.00     0.238 C 
HETATM   17  N   UNL     1     -41.435 -52.333  13.144  1.00  0.00    -0.348 N 
HETATM   18  C   UNL     1     -40.085 -52.018  13.640  1.00  0.00     0.145 C 
HETATM   19  C   UNL     1     -41.959 -51.336  12.218  1.00  0.00     0.145 C 
HETATM   20  C   UNL     1     -40.003 -50.578  14.192  1.00  0.00     0.146 C 
HETATM   21  N   UNL     1     -40.593 -49.581  13.280  1.00  0.00    -0.344 N 
HETATM   22  C   UNL     1     -40.166 -48.247  13.414  1.00  0.00     0.260 C 
HETATM   23  C   UNL     1     -41.939 -49.934  12.822  1.00  0.00     0.146 C 
HETATM   24  O   UNL     1     -39.333 -47.955  14.273  1.00  0.00    -0.267 OA
HETATM   25  O   UNL     1     -41.167 -54.569  13.540  1.00  0.00    -0.272 OA
BRANCH  22  26
HETATM   26  C   UNL     1     -40.708 -47.250  12.494  1.00  0.00     0.072 A 
HETATM   27  S   UNL     1     -41.885 -46.139  13.074  1.00  0.00    -0.097 SA
HETATM   28  C   UNL     1     -42.010 -45.363  11.556  1.00  0.00     0.050 A 
HETATM   29  C   UNL     1     -41.159 -45.910  10.625  1.00  0.00     0.009 A 
HETATM   30  C   UNL     1     -40.385 -46.975  11.174  1.00  0.00     0.025 A 
ENDBRANCH  22  26
ENDBRANCH   1  16
TORSDOF 4
ENDMDL
MODEL 8
REMARK VINA RESULT:      -6.8      2.387      3.072
REMARK  4 active torsions:
REMARK  status: ('A' for Active; 'I' for Inactive)
REMARK    1  A    between atoms: N_1  and  C_7 
REMARK    2  A    between atoms: N_2  and  C_12 
REMARK    3  A    between atoms: C_7  and  C_9 
REMARK       I    between atoms: C_8  and  N_10 
REMARK    4  A    between atoms: C_8  and  C_13 
REMARK       I    between atoms: C_9  and  N_11 
ROOT
HETATM    1  C   UNL     1     -37.991 -50.018  13.669  1.00  0.00     0.240 C 
ENDROOT
BRANCH   1   2
HETATM    2  N   UNL     1     -38.681 -48.771  13.342  1.00  0.00    -0.255 N 
HETATM    3  C   UNL     1     -39.450 -48.723  12.184  1.00  0.00     0.334 C 
HETATM    4  N   UNL     1     -40.211 -47.568  11.992  1.00  0.00    -0.279 N 
HETATM    5  O   UNL     1     -39.472 -49.635  11.357  1.00  0.00    -0.246 OA
HETATM    6  C   UNL     1     -39.912 -46.403  12.659  1.00  0.00     0.146 C 
HETATM    7  C   UNL     1     -38.977 -46.373  13.603  1.00  0.00     0.200 C 
HETATM    8  C   UNL     1     -38.290 -47.615  14.018  1.00  0.00     0.292 C 
HETATM    9  F   UNL     1     -38.605 -45.227  14.202  1.00  0.00    -0.199 F 
HETATM   10  O   UNL     1     -37.410 -47.578  14.869  1.00  0.00    -0.264 OA
BRANCH   4  11
HETATM   11  C   UNL     1     -41.208 -47.617  10.924  1.00  0.00     0.232 C 
HETATM   12  O   UNL     1     -41.421 -46.328  10.319  1.00  0.00    -0.366 OA
HETATM   13  C   UNL     1     -42.817 -46.196  10.005  1.00  0.00     0.170 C 
HETATM   14  C   UNL     1     -43.485 -47.511  10.339  1.00  0.00     0.031 C 
HETATM   15  C   UNL     1     -42.587 -48.051  11.419  1.00  0.00     0.056 C 
ENDBRANCH   4  11
ENDBRANCH   1   2
BRANCH   1  16
HETATM   16  C   UNL     1     -38.423 -50.711  14.987  1.00  0.00     0.238 C 
HETATM   17  N   UNL     1     -39.715 -51.233  15.074  1.00  0.00    -0.348 N 
HETATM   18  C   UNL     1     -40.058 -52.155  16.167  1.00  0.00     0.145 C 
HETATM   19  C   UNL     1     -40.880 -50.619  14.447  1.00  0.00     0.145 C 
HETATM   20  C   UNL     1     -41.122 -53.186  15.730  1.00  0.00     0.146 C 
HETATM   21  N   UNL     1     -42.267 -52.568  15.038  1.00  0.00    -0.344 N 
HETATM   22  C   UNL     1     -43.480 -53.282  15.028  1.00  0.00     0.260 C 
HETATM   23  C   UNL     1     -41.876 -51.666  13.953  1.00  0.00     0.146 C 
HETATM   24  O   UNL     1     -43.548 -54.380  15.581  1.00  0.00    -0.267 OA
HETATM   25  O   UNL     1     -37.621 -50.858  15.911  1.00  0.00    -0.272 OA
BRANCH  22  26
HETATM   26  C   UNL     1     -44.639 -52.669  14.383  1.00  0.00     0.072 A 
HETATM   27  S   UNL     1     -45.042 -53.143  12.781  1.00  0.00    -0.097 SA
HETATM   28  C   UNL     1     -46.390 -52.093  12.729  1.00  0.00     0.050 A 
HETATM   29  C   UNL     1     -46.558 -51.410  13.911  1.00  0.00     0.009 A 
HETATM   30  C   UNL     1     -45.569 -51.767  14.875  1.00  0.00     0.025 A 
ENDBRANCH  22  26
ENDBRANCH   1  16
TORSDOF 4
ENDMDL
MODEL 9
REMARK VINA RESULT:      -6.7      5.099      8.422
REMARK  4 active torsions:
REMARK  status: ('A' for Active; 'I' for Inactive)
REMARK    1  A    between atoms: N_1  and  C_7 
REMARK    2  A    between atoms: N_2  and  C_12 
REMARK    3  A    between atoms: C_7  and  C_9 
REMARK       I    between atoms: C_8  and  N_10 
REMARK    4  A    between atoms: C_8  and  C_13 
REMARK       I    between atoms: C_9  and  N_11 
ROOT
HETATM    1  C   UNL     1     -41.153 -55.158  15.566  1.00  0.00     0.240 C 
ENDROOT
BRANCH   1   2
HETATM    2  N   UNL     1     -41.719 -54.304  14.524  1.00  0.00    -0.255 N 
HETATM    3  C   UNL     1     -43.102 -54.252  14.387  1.00  0.00     0.334 C 
HETATM    4  N   UNL     1     -43.602 -53.312  13.485  1.00  0.00    -0.279 N 
HETATM    5  O   UNL     1     -43.864 -54.990  15.013  1.00  0.00    -0.246 OA
HETATM    6  C   UNL     1     -42.802 -52.774  12.504  1.00  0.00     0.146 C 
HETATM    7  C   UNL     1     -41.498 -53.030  12.465  1.00  0.00     0.200 C 
HETATM    8  C   UNL     1     -40.860 -53.837  13.528  1.00  0.00     0.292 C 
HETATM    9  F   UNL     1     -40.714 -52.590  11.464  1.00  0.00    -0.199 F 
HETATM   10  O   UNL     1     -39.663 -54.093  13.473  1.00  0.00    -0.264 OA
BRANCH   4  11
HETATM   11  C   UNL     1     -45.044 -53.075  13.525  1.00  0.00     0.232 C 
HETATM   12  O   UNL     1     -45.624 -53.017  12.209  1.00  0.00    -0.366 OA
HETATM   13  C   UNL     1     -46.652 -52.014  12.205  1.00  0.00     0.170 C 
HETATM   14  C   UNL     1     -46.786 -51.496  13.620  1.00  0.00     0.031 C 
HETATM   15  C   UNL     1     -45.408 -51.740  14.173  1.00  0.00     0.056 C 
ENDBRANCH   4  11
ENDBRANCH   1   2
BRANCH   1  16
HETATM   16  C   UNL     1     -40.689 -54.439  16.860  1.00  0.00     0.238 C 
HETATM   17  N   UNL     1     -39.488 -54.836  17.449  1.00  0.00    -0.348 N 
HETATM   18  C   UNL     1     -38.866 -53.990  18.479  1.00  0.00     0.145 C 
HETATM   19  C   UNL     1     -39.010 -56.214  17.464  1.00  0.00     0.145 C 
HETATM   20  C   UNL     1     -37.325 -54.094  18.448  1.00  0.00     0.146 C 
HETATM   21  N   UNL     1     -36.847 -55.488  18.396  1.00  0.00    -0.344 N 
HETATM   22  C   UNL     1     -35.537 -55.740  18.844  1.00  0.00     0.260 C 
HETATM   23  C   UNL     1     -37.489 -56.287  17.350  1.00  0.00     0.146 C 
HETATM   24  O   UNL     1     -34.840 -54.810  19.253  1.00  0.00    -0.267 OA
HETATM   25  O   UNL     1     -41.334 -53.493  17.318  1.00  0.00    -0.272 OA
BRANCH  22  26
HETATM   26  C   UNL     1     -35.057 -57.121  18.841  1.00  0.00     0.072 A 
HETATM   27  S   UNL     1     -35.725 -58.233  19.969  1.00  0.00    -0.097 SA
HETATM   28  C   UNL     1     -34.754 -59.516  19.392  1.00  0.00     0.050 A 
HETATM   29  C   UNL     1     -33.954 -59.127  18.344  1.00  0.00     0.009 A 
HETATM   30  C   UNL     1     -34.152 -57.756  18.005  1.00  0.00     0.025 A 
ENDBRANCH  22  26
ENDBRANCH   1  16
TORSDOF 4
ENDMDL
