MODEL 1
REMARK VINA RESULT:      -5.9      0.000      0.000
REMARK  6 active torsions:
REMARK  status: ('A' for Active; 'I' for Inactive)
REMARK    1  A    between atoms: C_2  and  C_3 
REMARK    2  A    between atoms: C_3  and  N_4 
REMARK    3  A    between atoms: C_3  and  C_15 
REMARK    4  A    between atoms: N_4  and  C_5 
REMARK    5  A    between atoms: C_5  and  C_7 
REMARK    6  A    between atoms: C_7  and  N_8 
REMARK       I    between atoms: C_15  and  N_17 
ROOT
HETATM    1  N   UNL     1     -40.399 -49.984  10.988  1.00  0.00     0.103 N 
HETATM    2  H   UNL     1     -40.680 -50.672  10.293  1.00  0.00     0.317 HD
ENDROOT
BRANCH   1   3
HETATM    3  C   UNL     1     -39.874 -50.719  12.177  1.00  0.00     0.311 C 
BRANCH   3   4
HETATM    4  C   UNL     1     -38.336 -50.715  12.246  1.00  0.00     0.041 C 
HETATM    5  C   UNL     1     -37.669 -49.773  11.253  1.00  0.00     0.007 C 
ENDBRANCH   3   4
BRANCH   3   6
HETATM    6  C   UNL     1     -40.361 -52.186  12.190  1.00  0.00     0.248 C 
HETATM    7  O   UNL     1     -40.001 -53.009  13.026  1.00  0.00    -0.271 OA
HETATM    8  N   UNL     1     -41.251 -52.538  11.210  1.00  0.00    -0.368 N 
HETATM    9  H   UNL     1     -41.737 -51.847  10.655  1.00  0.00     0.159 HD
HETATM   10  H   UNL     1     -41.654 -53.463  11.272  1.00  0.00     0.159 HD
ENDBRANCH   3   6
ENDBRANCH   1   3
BRANCH   1  11
HETATM   11  C   UNL     1     -41.573 -49.118  11.294  1.00  0.00     0.237 C 
HETATM   12  C   UNL     1     -41.569 -48.619  12.749  1.00  0.00     0.044 C 
BRANCH  11  13
HETATM   13  C   UNL     1     -41.616 -47.861  10.388  1.00  0.00     0.183 C 
BRANCH  13  14
HETATM   14  N   UNL     1     -42.836 -47.696   9.623  1.00  0.00    -0.301 N 
HETATM   15  C   UNL     1     -44.063 -47.365  10.121  1.00  0.00     0.118 A 
HETATM   16  C   UNL     1     -44.954 -47.472   9.074  1.00  0.00    -0.028 A 
HETATM   17  C   UNL     1     -46.417 -47.255   9.089  1.00  0.00     0.051 C 
HETATM   18  C   UNL     1     -44.147 -47.859   7.980  1.00  0.00     0.115 A 
HETATM   19  N   UNL     1     -42.858 -47.976   8.307  1.00  0.00    -0.310 N 
ATOM     20  HN  UNL     1     -42.074 -48.220   7.701  1.00  0.00     0.186 HD
ENDBRANCH  13  14
ENDBRANCH  11  13
ENDBRANCH   1  11
TORSDOF 6
ENDMDL
MODEL 2
REMARK VINA RESULT:      -5.7      3.608      6.157
REMARK  6 active torsions:
REMARK  status: ('A' for Active; 'I' for Inactive)
REMARK    1  A    between atoms: C_2  and  C_3 
REMARK    2  A    between atoms: C_3  and  N_4 
REMARK    3  A    between atoms: C_3  and  C_15 
REMARK    4  A    between atoms: N_4  and  C_5 
REMARK    5  A    between atoms: C_5  and  C_7 
REMARK    6  A    between atoms: C_7  and  N_8 
REMARK       I    between atoms: C_15  and  N_17 
ROOT
HETATM    1  N   UNL     1     -44.161 -48.200  10.395  1.00  0.00     0.103 N 
HETATM    2  H   UNL     1     -43.765 -48.847   9.717  1.00  0.00     0.317 HD
ENDROOT
BRANCH   1   3
HETATM    3  C   UNL     1     -44.625 -46.987   9.656  1.00  0.00     0.311 C 
BRANCH   3   4
HETATM    4  C   UNL     1     -46.064 -47.129   9.128  1.00  0.00     0.041 C 
HETATM    5  C   UNL     1     -46.557 -48.566   9.037  1.00  0.00     0.007 C 
ENDBRANCH   3   4
BRANCH   3   6
HETATM    6  C   UNL     1     -43.695 -46.666   8.465  1.00  0.00     0.248 C 
HETATM    7  O   UNL     1     -43.168 -45.570   8.297  1.00  0.00    -0.271 OA
HETATM    8  N   UNL     1     -43.460 -47.690   7.585  1.00  0.00    -0.368 N 
HETATM    9  H   UNL     1     -43.685 -48.649   7.808  1.00  0.00     0.159 HD
HETATM   10  H   UNL     1     -42.773 -47.521   6.863  1.00  0.00     0.159 HD
ENDBRANCH   3   6
ENDBRANCH   1   3
BRANCH   1  11
HETATM   11  C   UNL     1     -43.127 -47.909  11.427  1.00  0.00     0.237 C 
HETATM   12  C   UNL     1     -43.217 -48.862  12.630  1.00  0.00     0.044 C 
BRANCH  11  13
HETATM   13  C   UNL     1     -41.691 -48.038  10.858  1.00  0.00     0.183 C 
BRANCH  13  14
HETATM   14  N   UNL     1     -40.858 -46.863  11.017  1.00  0.00    -0.301 N 
HETATM   15  C   UNL     1     -40.325 -46.401  12.186  1.00  0.00     0.118 A 
HETATM   16  C   UNL     1     -39.743 -45.185  11.900  1.00  0.00    -0.028 A 
HETATM   17  C   UNL     1     -39.058 -44.255  12.825  1.00  0.00     0.051 C 
HETATM   18  C   UNL     1     -39.970 -45.017  10.515  1.00  0.00     0.115 A 
HETATM   19  N   UNL     1     -40.629 -46.044   9.973  1.00  0.00    -0.310 N 
ATOM     20  HN  UNL     1     -40.896 -46.177   8.998  1.00  0.00     0.186 HD
ENDBRANCH  13  14
ENDBRANCH  11  13
ENDBRANCH   1  11
TORSDOF 6
ENDMDL
MODEL 3
REMARK VINA RESULT:      -5.6      1.712      2.094
REMARK  6 active torsions:
REMARK  status: ('A' for Active; 'I' for Inactive)
REMARK    1  A    between atoms: C_2  and  C_3 
REMARK    2  A    between atoms: C_3  and  N_4 
REMARK    3  A    between atoms: C_3  and  C_15 
REMARK    4  A    between atoms: N_4  and  C_5 
REMARK    5  A    between atoms: C_5  and  C_7 
REMARK    6  A    between atoms: C_7  and  N_8 
REMARK       I    between atoms: C_15  and  N_17 
ROOT
HETATM    1  N   UNL     1     -39.496 -48.609  11.163  1.00  0.00     0.103 N 
HETATM    2  H   UNL     1     -38.975 -48.741  10.299  1.00  0.00     0.317 HD
ENDROOT
BRANCH   1   3
HETATM    3  C   UNL     1     -38.930 -49.537  12.187  1.00  0.00     0.311 C 
BRANCH   3   4
HETATM    4  C   UNL     1     -38.420 -48.799  13.438  1.00  0.00     0.041 C 
HETATM    5  C   UNL     1     -38.953 -47.381  13.588  1.00  0.00     0.007 C 
ENDBRANCH   3   4
BRANCH   3   6
HETATM    6  C   UNL     1     -37.771 -50.376  11.605  1.00  0.00     0.248 C 
HETATM    7  O   UNL     1     -37.264 -51.326  12.194  1.00  0.00    -0.271 OA
HETATM    8  N   UNL     1     -37.328 -50.017  10.359  1.00  0.00    -0.368 N 
HETATM    9  H   UNL     1     -37.859 -49.402   9.759  1.00  0.00     0.159 HD
HETATM   10  H   UNL     1     -36.643 -50.622   9.928  1.00  0.00     0.159 HD
ENDBRANCH   3   6
ENDBRANCH   1   3
BRANCH   1  11
HETATM   11  C   UNL     1     -40.940 -48.842  10.880  1.00  0.00     0.237 C 
HETATM   12  C   UNL     1     -41.606 -49.738  11.939  1.00  0.00     0.044 C 
BRANCH  11  13
HETATM   13  C   UNL     1     -41.744 -47.517  10.844  1.00  0.00     0.183 C 
BRANCH  13  14
HETATM   14  N   UNL     1     -42.877 -47.509   9.941  1.00  0.00    -0.301 N 
HETATM   15  C   UNL     1     -44.182 -47.304  10.284  1.00  0.00     0.118 A 
HETATM   16  C   UNL     1     -44.929 -47.538   9.148  1.00  0.00    -0.028 A 
HETATM   17  C   UNL     1     -46.398 -47.486   8.989  1.00  0.00     0.051 C 
HETATM   18  C   UNL     1     -43.963 -47.862   8.169  1.00  0.00     0.115 A 
HETATM   19  N   UNL     1     -42.715 -47.826   8.642  1.00  0.00    -0.310 N 
ATOM     20  HN  UNL     1     -41.845 -47.997   8.140  1.00  0.00     0.186 HD
ENDBRANCH  13  14
ENDBRANCH  11  13
ENDBRANCH   1  11
TORSDOF 6
ENDMDL
MODEL 4
REMARK VINA RESULT:      -5.4      2.522      3.485
REMARK  6 active torsions:
REMARK  status: ('A' for Active; 'I' for Inactive)
REMARK    1  A    between atoms: C_2  and  C_3 
REMARK    2  A    between atoms: C_3  and  N_4 
REMARK    3  A    between atoms: C_3  and  C_15 
REMARK    4  A    between atoms: N_4  and  C_5 
REMARK    5  A    between atoms: C_5  and  C_7 
REMARK    6  A    between atoms: C_7  and  N_8 
REMARK       I    between atoms: C_15  and  N_17 
ROOT
HETATM    1  N   UNL     1     -40.185 -49.936  10.851  1.00  0.00     0.103 N 
HETATM    2  H   UNL     1     -40.771 -50.574  10.316  1.00  0.00     0.317 HD
ENDROOT
BRANCH   1   3
HETATM    3  C   UNL     1     -39.802 -50.620  12.122  1.00  0.00     0.311 C 
BRANCH   3   4
HETATM    4  C   UNL     1     -38.279 -50.659  12.338  1.00  0.00     0.041 C 
HETATM    5  C   UNL     1     -37.469 -50.077  11.189  1.00  0.00     0.007 C 
ENDBRANCH   3   4
BRANCH   3   6
HETATM    6  C   UNL     1     -40.342 -52.068  12.164  1.00  0.00     0.248 C 
HETATM    7  O   UNL     1     -39.946 -52.912  12.963  1.00  0.00    -0.271 OA
HETATM    8  N   UNL     1     -41.320 -52.378  11.257  1.00  0.00    -0.368 N 
HETATM    9  H   UNL     1     -41.822 -51.665  10.747  1.00  0.00     0.159 HD
HETATM   10  H   UNL     1     -41.750 -53.288  11.345  1.00  0.00     0.159 HD
ENDBRANCH   3   6
ENDBRANCH   1   3
BRANCH   1  11
HETATM   11  C   UNL     1     -40.941 -48.669  11.060  1.00  0.00     0.237 C 
HETATM   12  C   UNL     1     -42.336 -48.912  11.659  1.00  0.00     0.044 C 
BRANCH  11  13
HETATM   13  C   UNL     1     -40.200 -47.707  12.024  1.00  0.00     0.183 C 
BRANCH  13  14
HETATM   14  N   UNL     1     -40.065 -46.344  11.549  1.00  0.00    -0.301 N 
HETATM   15  C   UNL     1     -40.368 -45.211  12.247  1.00  0.00     0.118 A 
HETATM   16  C   UNL     1     -40.239 -44.159  11.365  1.00  0.00    -0.028 A 
HETATM   17  C   UNL     1     -40.487 -42.721  11.609  1.00  0.00     0.051 C 
HETATM   18  C   UNL     1     -39.833 -44.775  10.160  1.00  0.00     0.115 A 
HETATM   19  N   UNL     1     -39.707 -46.100  10.274  1.00  0.00    -0.310 N 
ATOM     20  HN  UNL     1     -39.410 -46.768   9.564  1.00  0.00     0.186 HD
ENDBRANCH  13  14
ENDBRANCH  11  13
ENDBRANCH   1  11
TORSDOF 6
ENDMDL
MODEL 5
REMARK VINA RESULT:      -5.2      4.437      6.000
REMARK  6 active torsions:
REMARK  status: ('A' for Active; 'I' for Inactive)
REMARK    1  A    between atoms: C_2  and  C_3 
REMARK    2  A    between atoms: C_3  and  N_4 
REMARK    3  A    between atoms: C_3  and  C_15 
REMARK    4  A    between atoms: N_4  and  C_5 
REMARK    5  A    between atoms: C_5  and  C_7 
REMARK    6  A    between atoms: C_7  and  N_8 
REMARK       I    between atoms: C_15  and  N_17 
ROOT
HETATM    1  N   UNL     1     -43.288 -52.922  12.116  1.00  0.00     0.103 N 
HETATM    2  H   UNL     1     -42.850 -53.196  11.239  1.00  0.00     0.317 HD
ENDROOT
BRANCH   1   3
HETATM    3  C   UNL     1     -42.371 -51.969  12.810  1.00  0.00     0.311 C 
BRANCH   3   4
HETATM    4  C   UNL     1     -42.952 -50.547  12.900  1.00  0.00     0.041 C 
HETATM    5  C   UNL     1     -43.385 -50.136  14.300  1.00  0.00     0.007 C 
ENDBRANCH   3   4
BRANCH   3   6
HETATM    6  C   UNL     1     -40.999 -51.895  12.101  1.00  0.00     0.248 C 
HETATM    7  O   UNL     1     -40.074 -52.666  12.340  1.00  0.00    -0.271 OA
HETATM    8  N   UNL     1     -40.857 -50.915  11.155  1.00  0.00    -0.368 N 
HETATM    9  H   UNL     1     -41.651 -50.418  10.775  1.00  0.00     0.159 HD
HETATM   10  H   UNL     1     -40.003 -50.924  10.615  1.00  0.00     0.159 HD
ENDBRANCH   3   6
ENDBRANCH   1   3
BRANCH   1  11
HETATM   11  C   UNL     1     -43.572 -54.155  12.903  1.00  0.00     0.237 C 
HETATM   12  C   UNL     1     -42.872 -54.149  14.273  1.00  0.00     0.044 C 
BRANCH  11  13
HETATM   13  C   UNL     1     -45.087 -54.331  13.175  1.00  0.00     0.183 C 
BRANCH  13  14
HETATM   14  N   UNL     1     -45.741 -53.187  13.778  1.00  0.00    -0.301 N 
HETATM   15  C   UNL     1     -46.056 -53.039  15.098  1.00  0.00     0.118 A 
HETATM   16  C   UNL     1     -46.801 -51.883  15.198  1.00  0.00    -0.028 A 
HETATM   17  C   UNL     1     -47.418 -51.289  16.404  1.00  0.00     0.051 C 
HETATM   18  C   UNL     1     -46.859 -51.402  13.870  1.00  0.00     0.115 A 
HETATM   19  N   UNL     1     -46.199 -52.181  13.010  1.00  0.00    -0.310 N 
ATOM     20  HN  UNL     1     -46.072 -52.046  12.007  1.00  0.00     0.186 HD
ENDBRANCH  13  14
ENDBRANCH  11  13
ENDBRANCH   1  11
TORSDOF 6
ENDMDL
MODEL 6
REMARK VINA RESULT:      -5.2      3.635      5.361
REMARK  6 active torsions:
REMARK  status: ('A' for Active; 'I' for Inactive)
REMARK    1  A    between atoms: C_2  and  C_3 
REMARK    2  A    between atoms: C_3  and  N_4 
REMARK    3  A    between atoms: C_3  and  C_15 
REMARK    4  A    between atoms: N_4  and  C_5 
REMARK    5  A    between atoms: C_5  and  C_7 
REMARK    6  A    between atoms: C_7  and  N_8 
REMARK       I    between atoms: C_15  and  N_17 
ROOT
HETATM    1  N   UNL     1     -42.143 -51.507  11.758  1.00  0.00     0.103 N 
HETATM    2  H   UNL     1     -41.691 -51.583  10.850  1.00  0.00     0.317 HD
ENDROOT
BRANCH   1   3
HETATM    3  C   UNL     1     -41.810 -50.166  12.326  1.00  0.00     0.311 C 
BRANCH   3   4
HETATM    4  C   UNL     1     -43.058 -49.387  12.776  1.00  0.00     0.041 C 
HETATM    5  C   UNL     1     -43.083 -49.048  14.260  1.00  0.00     0.007 C 
ENDBRANCH   3   4
BRANCH   3   6
HETATM    6  C   UNL     1     -41.033 -49.303  11.307  1.00  0.00     0.248 C 
HETATM    7  O   UNL     1     -41.020 -48.076  11.334  1.00  0.00    -0.271 OA
HETATM    8  N   UNL     1     -40.323 -49.982  10.353  1.00  0.00    -0.368 N 
HETATM    9  H   UNL     1     -40.127 -50.970  10.434  1.00  0.00     0.159 HD
HETATM   10  H   UNL     1     -39.730 -49.431   9.748  1.00  0.00     0.159 HD
ENDBRANCH   3   6
ENDBRANCH   1   3
BRANCH   1  11
HETATM   11  C   UNL     1     -41.686 -52.644  12.607  1.00  0.00     0.237 C 
HETATM   12  C   UNL     1     -40.982 -52.170  13.890  1.00  0.00     0.044 C 
BRANCH  11  13
HETATM   13  C   UNL     1     -42.866 -53.545  13.050  1.00  0.00     0.183 C 
BRANCH  13  14
HETATM   14  N   UNL     1     -44.134 -52.863  13.214  1.00  0.00    -0.301 N 
HETATM   15  C   UNL     1     -44.651 -52.388  14.384  1.00  0.00     0.118 A 
HETATM   16  C   UNL     1     -45.932 -51.960  14.104  1.00  0.00    -0.028 A 
HETATM   17  C   UNL     1     -46.934 -51.392  15.033  1.00  0.00     0.051 C 
HETATM   18  C   UNL     1     -46.077 -52.209  12.721  1.00  0.00     0.115 A 
HETATM   19  N   UNL     1     -44.980 -52.738  12.173  1.00  0.00    -0.310 N 
ATOM     20  HN  UNL     1     -44.821 -52.989  11.198  1.00  0.00     0.186 HD
ENDBRANCH  13  14
ENDBRANCH  11  13
ENDBRANCH   1  11
TORSDOF 6
ENDMDL
MODEL 7
REMARK VINA RESULT:      -5.1      2.792      6.101
REMARK  6 active torsions:
REMARK  status: ('A' for Active; 'I' for Inactive)
REMARK    1  A    between atoms: C_2  and  C_3 
REMARK    2  A    between atoms: C_3  and  N_4 
REMARK    3  A    between atoms: C_3  and  C_15 
REMARK    4  A    between atoms: N_4  and  C_5 
REMARK    5  A    between atoms: C_5  and  C_7 
REMARK    6  A    between atoms: C_7  and  N_8 
REMARK       I    between atoms: C_15  and  N_17 
ROOT
HETATM    1  N   UNL     1     -41.544 -48.204   9.914  1.00  0.00     0.103 N 
HETATM    2  H   UNL     1     -40.904 -47.448   9.678  1.00  0.00     0.317 HD
ENDROOT
BRANCH   1   3
HETATM    3  C   UNL     1     -42.861 -47.597  10.270  1.00  0.00     0.311 C 
BRANCH   3   4
HETATM    4  C   UNL     1     -43.866 -47.637   9.105  1.00  0.00     0.041 C 
HETATM    5  C   UNL     1     -45.318 -47.461   9.525  1.00  0.00     0.007 C 
ENDBRANCH   3   4
BRANCH   3   6
HETATM    6  C   UNL     1     -42.698 -46.130  10.728  1.00  0.00     0.248 C 
HETATM    7  O   UNL     1     -42.339 -45.226   9.979  1.00  0.00    -0.271 OA
HETATM    8  N   UNL     1     -42.993 -45.867  12.039  1.00  0.00    -0.368 N 
HETATM    9  H   UNL     1     -43.500 -46.524  12.616  1.00  0.00     0.159 HD
HETATM   10  H   UNL     1     -42.989 -44.896  12.320  1.00  0.00     0.159 HD
ENDBRANCH   3   6
ENDBRANCH   1   3
BRANCH   1  11
HETATM   11  C   UNL     1     -40.938 -49.003  11.017  1.00  0.00     0.237 C 
HETATM   12  C   UNL     1     -40.011 -48.160  11.909  1.00  0.00     0.044 C 
BRANCH  11  13
HETATM   13  C   UNL     1     -42.017 -49.617  11.945  1.00  0.00     0.183 C 
BRANCH  13  14
HETATM   14  N   UNL     1     -41.891 -51.043  12.175  1.00  0.00    -0.301 N 
HETATM   15  C   UNL     1     -42.564 -51.773  13.111  1.00  0.00     0.118 A 
HETATM   16  C   UNL     1     -42.024 -53.042  13.083  1.00  0.00    -0.028 A 
HETATM   17  C   UNL     1     -42.375 -54.207  13.924  1.00  0.00     0.051 C 
HETATM   18  C   UNL     1     -41.038 -52.968  12.074  1.00  0.00     0.115 A 
HETATM   19  N   UNL     1     -40.969 -51.761  11.507  1.00  0.00    -0.310 N 
ATOM     20  HN  UNL     1     -40.361 -51.456  10.747  1.00  0.00     0.186 HD
ENDBRANCH  13  14
ENDBRANCH  11  13
ENDBRANCH   1  11
TORSDOF 6
ENDMDL
MODEL 8
REMARK VINA RESULT:      -5.0      3.909      4.557
REMARK  6 active torsions:
REMARK  status: ('A' for Active; 'I' for Inactive)
REMARK    1  A    between atoms: C_2  and  C_3 
REMARK    2  A    between atoms: C_3  and  N_4 
REMARK    3  A    between atoms: C_3  and  C_15 
REMARK    4  A    between atoms: N_4  and  C_5 
REMARK    5  A    between atoms: C_5  and  C_7 
REMARK    6  A    between atoms: C_7  and  N_8 
REMARK       I    between atoms: C_15  and  N_17 
ROOT
HETATM    1  N   UNL     1     -40.076 -51.208  11.641  1.00  0.00     0.103 N 
HETATM    2  H   UNL     1     -39.622 -51.841  10.986  1.00  0.00     0.317 HD
ENDROOT
BRANCH   1   3
HETATM    3  C   UNL     1     -39.015 -50.387  12.298  1.00  0.00     0.311 C 
BRANCH   3   4
HETATM    4  C   UNL     1     -39.251 -48.875  12.136  1.00  0.00     0.041 C 
HETATM    5  C   UNL     1     -38.736 -48.035  13.296  1.00  0.00     0.007 C 
ENDBRANCH   3   4
BRANCH   3   6
HETATM    6  C   UNL     1     -37.615 -50.729  11.738  1.00  0.00     0.248 C 
HETATM    7  O   UNL     1     -36.865 -51.553  12.253  1.00  0.00    -0.271 OA
HETATM    8  N   UNL     1     -37.239 -50.067  10.599  1.00  0.00    -0.368 N 
HETATM    9  H   UNL     1     -37.904 -49.563  10.029  1.00  0.00     0.159 HD
HETATM   10  H   UNL     1     -36.372 -50.358  10.169  1.00  0.00     0.159 HD
ENDBRANCH   3   6
ENDBRANCH   1   3
BRANCH   1  11
HETATM   11  C   UNL     1     -40.879 -52.020  12.598  1.00  0.00     0.237 C 
HETATM   12  C   UNL     1     -39.997 -52.796  13.591  1.00  0.00     0.044 C 
BRANCH  11  13
HETATM   13  C   UNL     1     -41.836 -51.139  13.442  1.00  0.00     0.183 C 
BRANCH  13  14
HETATM   14  N   UNL     1     -43.244 -51.451  13.299  1.00  0.00    -0.301 N 
HETATM   15  C   UNL     1     -44.266 -50.931  14.040  1.00  0.00     0.118 A 
HETATM   16  C   UNL     1     -45.405 -51.616  13.676  1.00  0.00    -0.028 A 
HETATM   17  C   UNL     1     -46.778 -51.463  14.205  1.00  0.00     0.051 C 
HETATM   18  C   UNL     1     -44.955 -52.521  12.688  1.00  0.00     0.115 A 
HETATM   19  N   UNL     1     -43.647 -52.409  12.443  1.00  0.00    -0.310 N 
ATOM     20  HN  UNL     1     -43.086 -52.926  11.767  1.00  0.00     0.186 HD
ENDBRANCH  13  14
ENDBRANCH  11  13
ENDBRANCH   1  11
TORSDOF 6
ENDMDL
MODEL 9
REMARK VINA RESULT:      -5.0      2.733      4.090
REMARK  6 active torsions:
REMARK  status: ('A' for Active; 'I' for Inactive)
REMARK    1  A    between atoms: C_2  and  C_3 
REMARK    2  A    between atoms: C_3  and  N_4 
REMARK    3  A    between atoms: C_3  and  C_15 
REMARK    4  A    between atoms: N_4  and  C_5 
REMARK    5  A    between atoms: C_5  and  C_7 
REMARK    6  A    between atoms: C_7  and  N_8 
REMARK       I    between atoms: C_15  and  N_17 
ROOT
HETATM    1  N   UNL     1     -42.491 -52.073  12.067  1.00  0.00     0.103 N 
HETATM    2  H   UNL     1     -43.037 -52.109  11.209  1.00  0.00     0.317 HD
ENDROOT
BRANCH   1   3
HETATM    3  C   UNL     1     -43.212 -52.867  13.106  1.00  0.00     0.311 C 
BRANCH   3   4
HETATM    4  C   UNL     1     -42.404 -54.085  13.588  1.00  0.00     0.041 C 
HETATM    5  C   UNL     1     -41.021 -54.204  12.964  1.00  0.00     0.007 C 
ENDBRANCH   3   4
BRANCH   3   6
HETATM    6  C   UNL     1     -44.580 -53.361  12.584  1.00  0.00     0.248 C 
HETATM    7  O   UNL     1     -44.904 -54.545  12.556  1.00  0.00    -0.271 OA
HETATM    8  N   UNL     1     -45.451 -52.394  12.155  1.00  0.00    -0.368 N 
HETATM    9  H   UNL     1     -45.314 -51.417  12.370  1.00  0.00     0.159 HD
HETATM   10  H   UNL     1     -46.383 -52.698  11.910  1.00  0.00     0.159 HD
ENDBRANCH   3   6
ENDBRANCH   1   3
BRANCH   1  11
HETATM   11  C   UNL     1     -42.295 -50.643  12.440  1.00  0.00     0.237 C 
HETATM   12  C   UNL     1     -42.181 -50.445  13.961  1.00  0.00     0.044 C 
BRANCH  11  13
HETATM   13  C   UNL     1     -41.006 -50.054  11.813  1.00  0.00     0.183 C 
BRANCH  13  14
HETATM   14  N   UNL     1     -41.164 -48.757  11.186  1.00  0.00    -0.301 N 
HETATM   15  C   UNL     1     -40.364 -47.667  11.371  1.00  0.00     0.118 A 
HETATM   16  C   UNL     1     -40.968 -46.617  10.711  1.00  0.00    -0.028 A 
HETATM   17  C   UNL     1     -40.527 -45.208  10.629  1.00  0.00     0.051 C 
HETATM   18  C   UNL     1     -42.127 -47.196  10.145  1.00  0.00     0.115 A 
HETATM   19  N   UNL     1     -42.238 -48.499  10.415  1.00  0.00    -0.310 N 
ATOM     20  HN  UNL     1     -42.963 -49.146  10.110  1.00  0.00     0.186 HD
ENDBRANCH  13  14
ENDBRANCH  11  13
ENDBRANCH   1  11
TORSDOF 6
ENDMDL
