MODEL 1
REMARK VINA RESULT:      -6.8      0.000      0.000
REMARK  7 active torsions:
REMARK  status: ('A' for Active; 'I' for Inactive)
REMARK    1  A    between atoms: N_2  and  C_3 
REMARK    2  A    between atoms: N_13  and  C_14 
REMARK    3  A    between atoms: C_14  and  C_15 
REMARK    4  A    between atoms: C_15  and  O_16 
REMARK    5  A    between atoms: C_15  and  C_17 
REMARK    6  A    between atoms: C_17  and  O_18 
REMARK    7  A    between atoms: O_18  and  C_19 
ROOT
HETATM    1  C   UNL     1     -39.569 -50.109  11.349  1.00  0.00     0.112 A 
HETATM    2  N   UNL     1     -38.371 -49.596  10.996  1.00  0.00    -0.341 N 
ATOM      3  HN  UNL     1     -38.295 -48.968  10.196  1.00  0.00     0.167 HD
HETATM    4  C   UNL     1     -37.273 -49.921  11.713  1.00  0.00     0.183 A 
HETATM    5  N   UNL     1     -37.201 -50.705  12.789  1.00  0.00    -0.337 N 
ATOM      6  HN  UNL     1     -36.331 -50.921  13.275  1.00  0.00     0.168 HD
HETATM    7  C   UNL     1     -38.398 -51.181  13.162  1.00  0.00     0.137 A 
HETATM    8  N   UNL     1     -38.607 -51.987  14.246  1.00  0.00    -0.336 N 
ATOM      9  HN  UNL     1     -37.908 -52.347  14.897  1.00  0.00     0.168 HD
HETATM   10  C   UNL     1     -39.899 -52.195  14.267  1.00  0.00     0.185 A 
HETATM   11  N   UNL     1     -40.540 -51.545  13.241  1.00  0.00    -0.335 N 
HETATM   12  C   UNL     1     -39.585 -50.906  12.489  1.00  0.00     0.118 A 
ENDROOT
BRANCH  11  13
HETATM   13  C   UNL     1     -41.984 -51.440  13.135  1.00  0.00     0.164 C 
BRANCH  13  14
HETATM   14  C   UNL     1     -42.604 -52.400  12.115  1.00  0.00     0.160 C 
BRANCH  14  15
HETATM   15  O   UNL     1     -41.609 -52.762  11.145  1.00  0.00    -0.392 OA
HETATM   16  H   UNL     1     -41.920 -53.524  10.626  1.00  0.00     0.210 HD
ENDBRANCH  14  15
BRANCH  14  17
HETATM   17  C   UNL     1     -43.136 -53.651  12.838  1.00  0.00     0.209 C 
BRANCH  17  18
HETATM   18  O   UNL     1     -44.539 -53.779  12.593  1.00  0.00    -0.349 OA
BRANCH  18  19
HETATM   19  C   UNL     1     -45.361 -53.136  13.477  1.00  0.00     0.069 A 
HETATM   20  C   UNL     1     -45.510 -53.763  14.718  1.00  0.00     0.038 A 
HETATM   21  C   UNL     1     -46.318 -53.196  15.709  1.00  0.00     0.026 A 
HETATM   22  C   UNL     1     -46.962 -51.987  15.463  1.00  0.00     0.034 A 
HETATM   23 CL   UNL     1     -47.958 -51.286  16.677  1.00  0.00    -0.084 Cl
HETATM   24  C   UNL     1     -46.800 -51.340  14.240  1.00  0.00     0.026 A 
HETATM   25  C   UNL     1     -45.999 -51.915  13.247  1.00  0.00     0.038 A 
ENDBRANCH  18  19
ENDBRANCH  17  18
ENDBRANCH  14  17
ENDBRANCH  13  14
ENDBRANCH  11  13
BRANCH   1  26
HETATM   26  N   UNL     1     -40.710 -49.882  10.574  1.00  0.00    -0.281 NA
HETATM   27  C   UNL     1     -41.364 -48.598  10.804  1.00  0.00     0.114 C 
HETATM   28  H   UNL     1     -40.476 -50.016   9.596  1.00  0.00     0.128 HD
ENDBRANCH   1  26
TORSDOF 7
ENDMDL
MODEL 2
REMARK VINA RESULT:      -6.5      0.690      2.313
REMARK  7 active torsions:
REMARK  status: ('A' for Active; 'I' for Inactive)
REMARK    1  A    between atoms: N_2  and  C_3 
REMARK    2  A    between atoms: N_13  and  C_14 
REMARK    3  A    between atoms: C_14  and  C_15 
REMARK    4  A    between atoms: C_15  and  O_16 
REMARK    5  A    between atoms: C_15  and  C_17 
REMARK    6  A    between atoms: C_17  and  O_18 
REMARK    7  A    between atoms: O_18  and  C_19 
ROOT
HETATM    1  C   UNL     1     -38.586 -51.264  12.793  1.00  0.00     0.112 A 
HETATM    2  N   UNL     1     -37.363 -50.901  12.349  1.00  0.00    -0.341 N 
ATOM      3  HN  UNL     1     -36.535 -51.416  12.646  1.00  0.00     0.167 HD
HETATM    4  C   UNL     1     -37.247 -49.849  11.509  1.00  0.00     0.183 A 
HETATM    5  N   UNL     1     -38.223 -49.087  11.014  1.00  0.00    -0.337 N 
ATOM      6  HN  UNL     1     -38.061 -48.295  10.392  1.00  0.00     0.168 HD
HETATM    7  C   UNL     1     -39.439 -49.474  11.422  1.00  0.00     0.137 A 
HETATM    8  N   UNL     1     -40.609 -48.879  11.041  1.00  0.00    -0.336 N 
ATOM      9  HN  UNL     1     -40.725 -48.072  10.428  1.00  0.00     0.168 HD
HETATM   10  C   UNL     1     -41.547 -49.571  11.636  1.00  0.00     0.185 A 
HETATM   11  N   UNL     1     -41.031 -50.601  12.382  1.00  0.00    -0.335 N 
HETATM   12  C   UNL     1     -39.663 -50.541  12.288  1.00  0.00     0.118 A 
ENDROOT
BRANCH  11  13
HETATM   13  C   UNL     1     -41.844 -51.642  12.986  1.00  0.00     0.164 C 
BRANCH  13  14
HETATM   14  C   UNL     1     -42.136 -52.822  12.055  1.00  0.00     0.160 C 
BRANCH  14  15
HETATM   15  O   UNL     1     -40.894 -53.411  11.638  1.00  0.00    -0.392 OA
HETATM   16  H   UNL     1     -40.175 -53.099  12.216  1.00  0.00     0.210 HD
ENDBRANCH  14  15
BRANCH  14  17
HETATM   17  C   UNL     1     -43.008 -53.858  12.787  1.00  0.00     0.209 C 
BRANCH  17  18
HETATM   18  O   UNL     1     -44.368 -53.714  12.369  1.00  0.00    -0.349 OA
BRANCH  18  19
HETATM   19  C   UNL     1     -45.206 -53.101  13.261  1.00  0.00     0.069 A 
HETATM   20  C   UNL     1     -45.243 -53.674  14.535  1.00  0.00     0.038 A 
HETATM   21  C   UNL     1     -46.056 -53.131  15.535  1.00  0.00     0.026 A 
HETATM   22  C   UNL     1     -46.817 -51.997  15.264  1.00  0.00     0.034 A 
HETATM   23 CL   UNL     1     -47.819 -51.325  16.490  1.00  0.00    -0.084 Cl
HETATM   24  C   UNL     1     -46.766 -51.401  14.005  1.00  0.00     0.026 A 
HETATM   25  C   UNL     1     -45.960 -51.953  13.003  1.00  0.00     0.038 A 
ENDBRANCH  18  19
ENDBRANCH  17  18
ENDBRANCH  14  17
ENDBRANCH  13  14
ENDBRANCH  11  13
BRANCH   1  26
HETATM   26  N   UNL     1     -38.740 -52.278  13.743  1.00  0.00    -0.281 NA
HETATM   27  C   UNL     1     -38.790 -51.819  15.127  1.00  0.00     0.114 C 
HETATM   28  H   UNL     1     -39.551 -52.836  13.500  1.00  0.00     0.128 HD
ENDBRANCH   1  26
TORSDOF 7
ENDMDL
MODEL 3
REMARK VINA RESULT:      -6.4      1.711      2.404
REMARK  7 active torsions:
REMARK  status: ('A' for Active; 'I' for Inactive)
REMARK    1  A    between atoms: N_2  and  C_3 
REMARK    2  A    between atoms: N_13  and  C_14 
REMARK    3  A    between atoms: C_14  and  C_15 
REMARK    4  A    between atoms: C_15  and  O_16 
REMARK    5  A    between atoms: C_15  and  C_17 
REMARK    6  A    between atoms: C_17  and  O_18 
REMARK    7  A    between atoms: O_18  and  C_19 
ROOT
HETATM    1  C   UNL     1     -39.586 -49.080  11.662  1.00  0.00     0.112 A 
HETATM    2  N   UNL     1     -39.653 -47.798  11.246  1.00  0.00    -0.341 N 
ATOM      3  HN  UNL     1     -39.212 -47.517  10.370  1.00  0.00     0.167 HD
HETATM    4  C   UNL     1     -40.309 -46.889  12.000  1.00  0.00     0.183 A 
HETATM    5  N   UNL     1     -40.951 -47.091  13.150  1.00  0.00    -0.337 N 
ATOM      6  HN  UNL     1     -41.416 -46.352  13.676  1.00  0.00     0.168 HD
HETATM    7  C   UNL     1     -40.918 -48.373  13.542  1.00  0.00     0.137 A 
HETATM    8  N   UNL     1     -41.520 -48.853  14.671  1.00  0.00    -0.336 N 
ATOM      9  HN  UNL     1     -42.047 -48.325  15.367  1.00  0.00     0.168 HD
HETATM   10  C   UNL     1     -41.270 -50.138  14.665  1.00  0.00     0.185 A 
HETATM   11  N   UNL     1     -40.537 -50.513  13.566  1.00  0.00    -0.335 N 
HETATM   12  C   UNL     1     -40.267 -49.382  12.838  1.00  0.00     0.118 A 
ENDROOT
BRANCH  11  13
HETATM   13  C   UNL     1     -40.287 -51.897  13.202  1.00  0.00     0.164 C 
BRANCH  13  14
HETATM   14  C   UNL     1     -41.280 -52.460  12.181  1.00  0.00     0.160 C 
BRANCH  14  15
HETATM   15  O   UNL     1     -40.588 -53.357  11.298  1.00  0.00    -0.392 OA
HETATM   16  H   UNL     1     -40.639 -53.022  10.385  1.00  0.00     0.210 HD
ENDBRANCH  14  15
BRANCH  14  17
HETATM   17  C   UNL     1     -42.418 -53.193  12.915  1.00  0.00     0.209 C 
BRANCH  17  18
HETATM   18  O   UNL     1     -43.673 -52.808  12.349  1.00  0.00    -0.349 OA
BRANCH  18  19
HETATM   19  C   UNL     1     -44.633 -52.411  13.239  1.00  0.00     0.069 A 
HETATM   20  C   UNL     1     -44.302 -52.574  14.587  1.00  0.00     0.038 A 
HETATM   21  C   UNL     1     -45.199 -52.196  15.590  1.00  0.00     0.026 A 
HETATM   22  C   UNL     1     -46.424 -51.634  15.243  1.00  0.00     0.034 A 
HETATM   23 CL   UNL     1     -47.533 -51.168  16.473  1.00  0.00    -0.084 Cl
HETATM   24  C   UNL     1     -46.754 -51.442  13.902  1.00  0.00     0.026 A 
HETATM   25  C   UNL     1     -45.858 -51.831  12.900  1.00  0.00     0.038 A 
ENDBRANCH  18  19
ENDBRANCH  17  18
ENDBRANCH  14  17
ENDBRANCH  13  14
ENDBRANCH  11  13
BRANCH   1  26
HETATM   26  N   UNL     1     -38.829 -50.028  10.967  1.00  0.00    -0.281 NA
HETATM   27  C   UNL     1     -37.430 -50.115  11.373  1.00  0.00     0.114 C 
HETATM   28  H   UNL     1     -39.295 -50.927  11.023  1.00  0.00     0.128 HD
ENDBRANCH   1  26
TORSDOF 7
ENDMDL
MODEL 4
REMARK VINA RESULT:      -6.4      3.849      6.978
REMARK  7 active torsions:
REMARK  status: ('A' for Active; 'I' for Inactive)
REMARK    1  A    between atoms: N_2  and  C_3 
REMARK    2  A    between atoms: N_13  and  C_14 
REMARK    3  A    between atoms: C_14  and  C_15 
REMARK    4  A    between atoms: C_15  and  O_16 
REMARK    5  A    between atoms: C_15  and  C_17 
REMARK    6  A    between atoms: C_17  and  O_18 
REMARK    7  A    between atoms: O_18  and  C_19 
ROOT
HETATM    1  C   UNL     1     -45.568 -53.238  13.271  1.00  0.00     0.112 A 
HETATM    2  N   UNL     1     -46.592 -53.789  13.957  1.00  0.00    -0.341 N 
ATOM      3  HN  UNL     1     -47.505 -53.902  13.517  1.00  0.00     0.167 HD
HETATM    4  C   UNL     1     -46.397 -54.190  15.233  1.00  0.00     0.183 A 
HETATM    5  N   UNL     1     -45.272 -54.132  15.945  1.00  0.00    -0.337 N 
ATOM      6  HN  UNL     1     -45.200 -54.442  16.914  1.00  0.00     0.168 HD
HETATM    7  C   UNL     1     -44.245 -53.623  15.249  1.00  0.00     0.137 A 
HETATM    8  N   UNL     1     -42.976 -53.479  15.736  1.00  0.00    -0.336 N 
ATOM      9  HN  UNL     1     -42.639 -53.711  16.671  1.00  0.00     0.168 HD
HETATM   10  C   UNL     1     -42.290 -52.977  14.741  1.00  0.00     0.185 A 
HETATM   11  N   UNL     1     -43.064 -52.800  13.620  1.00  0.00    -0.335 N 
HETATM   12  C   UNL     1     -44.345 -53.181  13.934  1.00  0.00     0.118 A 
ENDROOT
BRANCH  11  13
HETATM   13  C   UNL     1     -42.525 -52.447  12.319  1.00  0.00     0.164 C 
BRANCH  13  14
HETATM   14  C   UNL     1     -40.994 -52.422  12.267  1.00  0.00     0.160 C 
BRANCH  14  15
HETATM   15  O   UNL     1     -40.542 -53.371  11.289  1.00  0.00    -0.392 OA
HETATM   16  H   UNL     1     -40.836 -53.094  10.404  1.00  0.00     0.210 HD
ENDBRANCH  14  15
BRANCH  14  17
HETATM   17  C   UNL     1     -40.510 -51.004  11.911  1.00  0.00     0.209 C 
BRANCH  17  18
HETATM   18  O   UNL     1     -41.641 -50.147  11.734  1.00  0.00    -0.349 OA
BRANCH  18  19
HETATM   19  C   UNL     1     -41.362 -48.849  11.406  1.00  0.00     0.069 A 
HETATM   20  C   UNL     1     -40.122 -48.376  11.845  1.00  0.00     0.038 A 
HETATM   21  C   UNL     1     -39.720 -47.067  11.563  1.00  0.00     0.026 A 
HETATM   22  C   UNL     1     -40.553 -46.235  10.821  1.00  0.00     0.034 A 
HETATM   23 CL   UNL     1     -40.065 -44.624  10.471  1.00  0.00    -0.084 Cl
HETATM   24  C   UNL     1     -41.780 -46.704  10.354  1.00  0.00     0.026 A 
HETATM   25  C   UNL     1     -42.184 -48.012  10.647  1.00  0.00     0.038 A 
ENDBRANCH  18  19
ENDBRANCH  17  18
ENDBRANCH  14  17
ENDBRANCH  13  14
ENDBRANCH  11  13
BRANCH   1  26
HETATM   26  N   UNL     1     -45.754 -52.716  11.988  1.00  0.00    -0.281 NA
HETATM   27  C   UNL     1     -46.897 -51.821  11.850  1.00  0.00     0.114 C 
HETATM   28  H   UNL     1     -44.892 -52.278  11.683  1.00  0.00     0.128 HD
ENDBRANCH   1  26
TORSDOF 7
ENDMDL
MODEL 5
REMARK VINA RESULT:      -6.2      3.614      5.331
REMARK  7 active torsions:
REMARK  status: ('A' for Active; 'I' for Inactive)
REMARK    1  A    between atoms: N_2  and  C_3 
REMARK    2  A    between atoms: N_13  and  C_14 
REMARK    3  A    between atoms: C_14  and  C_15 
REMARK    4  A    between atoms: C_15  and  O_16 
REMARK    5  A    between atoms: C_15  and  C_17 
REMARK    6  A    between atoms: C_17  and  O_18 
REMARK    7  A    between atoms: O_18  and  C_19 
ROOT
HETATM    1  C   UNL     1     -41.447 -46.835  10.308  1.00  0.00     0.112 A 
HETATM    2  N   UNL     1     -42.392 -46.348   9.476  1.00  0.00    -0.341 N 
ATOM      3  HN  UNL     1     -42.156 -45.627   8.794  1.00  0.00     0.167 HD
HETATM    4  C   UNL     1     -43.655 -46.823   9.556  1.00  0.00     0.183 A 
HETATM    5  N   UNL     1     -44.122 -47.769  10.371  1.00  0.00    -0.337 N 
ATOM      6  HN  UNL     1     -45.096 -48.070  10.387  1.00  0.00     0.168 HD
HETATM    7  C   UNL     1     -43.173 -48.280  11.167  1.00  0.00     0.137 A 
HETATM    8  N   UNL     1     -43.381 -49.279  12.076  1.00  0.00    -0.336 N 
ATOM      9  HN  UNL     1     -44.259 -49.754  12.289  1.00  0.00     0.168 HD
HETATM   10  C   UNL     1     -42.208 -49.494  12.615  1.00  0.00     0.185 A 
HETATM   11  N   UNL     1     -41.241 -48.677  12.082  1.00  0.00    -0.335 N 
HETATM   12  C   UNL     1     -41.847 -47.857  11.163  1.00  0.00     0.118 A 
ENDROOT
BRANCH  11  13
HETATM   13  C   UNL     1     -39.822 -48.832  12.349  1.00  0.00     0.164 C 
BRANCH  13  14
HETATM   14  C   UNL     1     -39.268 -50.212  11.984  1.00  0.00     0.160 C 
BRANCH  14  15
HETATM   15  O   UNL     1     -38.252 -50.061  10.981  1.00  0.00    -0.392 OA
HETATM   16  H   UNL     1     -37.566 -49.448  11.299  1.00  0.00     0.210 HD
ENDBRANCH  14  15
BRANCH  14  17
HETATM   17  C   UNL     1     -38.690 -50.888  13.242  1.00  0.00     0.209 C 
BRANCH  17  18
HETATM   18  O   UNL     1     -38.694 -52.306  13.063  1.00  0.00    -0.349 OA
BRANCH  18  19
HETATM   19  C   UNL     1     -39.746 -52.977  13.624  1.00  0.00     0.069 A 
HETATM   20  C   UNL     1     -40.770 -53.329  12.739  1.00  0.00     0.038 A 
HETATM   21  C   UNL     1     -41.894 -54.025  13.193  1.00  0.00     0.026 A 
HETATM   22  C   UNL     1     -41.984 -54.389  14.533  1.00  0.00     0.034 A 
HETATM   23 CL   UNL     1     -43.364 -55.245  15.098  1.00  0.00    -0.084 Cl
HETATM   24  C   UNL     1     -40.957 -54.068  15.419  1.00  0.00     0.026 A 
HETATM   25  C   UNL     1     -39.838 -53.361  14.964  1.00  0.00     0.038 A 
ENDBRANCH  18  19
ENDBRANCH  17  18
ENDBRANCH  14  17
ENDBRANCH  13  14
ENDBRANCH  11  13
BRANCH   1  26
HETATM   26  N   UNL     1     -40.156 -46.297  10.330  1.00  0.00    -0.281 NA
HETATM   27  C   UNL     1     -40.065 -44.940  10.856  1.00  0.00     0.114 C 
HETATM   28  H   UNL     1     -39.542 -46.936  10.824  1.00  0.00     0.128 HD
ENDBRANCH   1  26
TORSDOF 7
ENDMDL
MODEL 6
REMARK VINA RESULT:      -6.2      1.676      2.960
REMARK  7 active torsions:
REMARK  status: ('A' for Active; 'I' for Inactive)
REMARK    1  A    between atoms: N_2  and  C_3 
REMARK    2  A    between atoms: N_13  and  C_14 
REMARK    3  A    between atoms: C_14  and  C_15 
REMARK    4  A    between atoms: C_15  and  O_16 
REMARK    5  A    between atoms: C_15  and  C_17 
REMARK    6  A    between atoms: C_17  and  O_18 
REMARK    7  A    between atoms: O_18  and  C_19 
ROOT
HETATM    1  C   UNL     1     -42.573 -49.449  11.972  1.00  0.00     0.112 A 
HETATM    2  N   UNL     1     -43.039 -48.303  11.430  1.00  0.00    -0.341 N 
ATOM      3  HN  UNL     1     -44.021 -48.050  11.527  1.00  0.00     0.167 HD
HETATM    4  C   UNL     1     -42.190 -47.496  10.756  1.00  0.00     0.183 A 
HETATM    5  N   UNL     1     -40.884 -47.669  10.555  1.00  0.00    -0.337 N 
ATOM      6  HN  UNL     1     -40.304 -47.022  10.021  1.00  0.00     0.168 HD
HETATM    7  C   UNL     1     -40.416 -48.786  11.129  1.00  0.00     0.137 A 
HETATM    8  N   UNL     1     -39.109 -49.185  11.094  1.00  0.00    -0.336 N 
ATOM      9  HN  UNL     1     -38.329 -48.719  10.630  1.00  0.00     0.168 HD
HETATM   10  C   UNL     1     -39.077 -50.294  11.788  1.00  0.00     0.185 A 
HETATM   11  N   UNL     1     -40.315 -50.627  12.281  1.00  0.00    -0.335 N 
HETATM   12  C   UNL     1     -41.208 -49.682  11.839  1.00  0.00     0.118 A 
ENDROOT
BRANCH  11  13
HETATM   13  C   UNL     1     -40.537 -51.694  13.241  1.00  0.00     0.164 C 
BRANCH  13  14
HETATM   14  C   UNL     1     -41.285 -52.901  12.666  1.00  0.00     0.160 C 
BRANCH  14  15
HETATM   15  O   UNL     1     -40.473 -53.519  11.656  1.00  0.00    -0.392 OA
HETATM   16  H   UNL     1     -40.995 -54.194  11.186  1.00  0.00     0.210 HD
ENDBRANCH  14  15
BRANCH  14  17
HETATM   17  C   UNL     1     -41.600 -53.900  13.795  1.00  0.00     0.209 C 
BRANCH  17  18
HETATM   18  O   UNL     1     -42.838 -54.558  13.514  1.00  0.00    -0.349 OA
BRANCH  18  19
HETATM   19  C   UNL     1     -43.964 -53.937  13.981  1.00  0.00     0.069 A 
HETATM   20  C   UNL     1     -43.944 -53.607  15.340  1.00  0.00     0.038 A 
HETATM   21  C   UNL     1     -45.034 -52.961  15.931  1.00  0.00     0.026 A 
HETATM   22  C   UNL     1     -46.140 -52.627  15.155  1.00  0.00     0.034 A 
HETATM   23 CL   UNL     1     -47.484 -51.834  15.877  1.00  0.00    -0.084 Cl
HETATM   24  C   UNL     1     -46.161 -52.927  13.794  1.00  0.00     0.026 A 
HETATM   25  C   UNL     1     -45.072 -53.582  13.207  1.00  0.00     0.038 A 
ENDBRANCH  18  19
ENDBRANCH  17  18
ENDBRANCH  14  17
ENDBRANCH  13  14
ENDBRANCH  11  13
BRANCH   1  26
HETATM   26  N   UNL     1     -43.437 -50.362  12.585  1.00  0.00    -0.281 NA
HETATM   27  C   UNL     1     -43.719 -50.092  13.991  1.00  0.00     0.114 C 
HETATM   28  H   UNL     1     -44.286 -50.432  12.035  1.00  0.00     0.128 HD
ENDBRANCH   1  26
TORSDOF 7
ENDMDL
MODEL 7
REMARK VINA RESULT:      -6.2      3.489      5.663
REMARK  7 active torsions:
REMARK  status: ('A' for Active; 'I' for Inactive)
REMARK    1  A    between atoms: N_2  and  C_3 
REMARK    2  A    between atoms: N_13  and  C_14 
REMARK    3  A    between atoms: C_14  and  C_15 
REMARK    4  A    between atoms: C_15  and  O_16 
REMARK    5  A    between atoms: C_15  and  C_17 
REMARK    6  A    between atoms: C_17  and  O_18 
REMARK    7  A    between atoms: O_18  and  C_19 
ROOT
HETATM    1  C   UNL     1     -42.728 -48.387  11.097  1.00  0.00     0.112 A 
HETATM    2  N   UNL     1     -43.915 -48.053  10.546  1.00  0.00    -0.341 N 
ATOM      3  HN  UNL     1     -44.726 -48.659  10.665  1.00  0.00     0.167 HD
HETATM    4  C   UNL     1     -44.018 -46.908   9.836  1.00  0.00     0.183 A 
HETATM    5  N   UNL     1     -43.068 -46.002   9.603  1.00  0.00    -0.337 N 
ATOM      6  HN  UNL     1     -43.213 -45.163   9.043  1.00  0.00     0.168 HD
HETATM    7  C   UNL     1     -41.901 -46.316  10.185  1.00  0.00     0.137 A 
HETATM    8  N   UNL     1     -40.775 -45.544  10.123  1.00  0.00    -0.336 N 
ATOM      9  HN  UNL     1     -40.653 -44.659   9.630  1.00  0.00     0.168 HD
HETATM   10  C   UNL     1     -39.886 -46.190  10.835  1.00  0.00     0.185 A 
HETATM   11  N   UNL     1     -40.397 -47.348  11.367  1.00  0.00    -0.335 N 
HETATM   12  C   UNL     1     -41.694 -47.470  10.932  1.00  0.00     0.118 A 
ENDROOT
BRANCH  11  13
HETATM   13  C   UNL     1     -39.700 -48.156  12.351  1.00  0.00     0.164 C 
BRANCH  13  14
HETATM   14  C   UNL     1     -39.256 -49.526  11.829  1.00  0.00     0.160 C 
BRANCH  14  15
HETATM   15  O   UNL     1     -38.023 -49.378  11.108  1.00  0.00    -0.392 OA
HETATM   16  H   UNL     1     -37.273 -49.519  11.712  1.00  0.00     0.210 HD
ENDBRANCH  14  15
BRANCH  14  17
HETATM   17  C   UNL     1     -39.080 -50.499  13.010  1.00  0.00     0.209 C 
BRANCH  17  18
HETATM   18  O   UNL     1     -39.182 -51.844  12.536  1.00  0.00    -0.349 OA
BRANCH  18  19
HETATM   19  C   UNL     1     -40.044 -52.655  13.222  1.00  0.00     0.069 A 
HETATM   20  C   UNL     1     -41.163 -53.083  12.500  1.00  0.00     0.038 A 
HETATM   21  C   UNL     1     -42.111 -53.924  13.091  1.00  0.00     0.026 A 
HETATM   22  C   UNL     1     -41.928 -54.355  14.402  1.00  0.00     0.034 A 
HETATM   23 CL   UNL     1     -43.091 -55.388  15.135  1.00  0.00    -0.084 Cl
HETATM   24  C   UNL     1     -40.802 -53.957  15.122  1.00  0.00     0.026 A 
HETATM   25  C   UNL     1     -39.860 -53.107  14.531  1.00  0.00     0.038 A 
ENDBRANCH  18  19
ENDBRANCH  17  18
ENDBRANCH  14  17
ENDBRANCH  13  14
ENDBRANCH  11  13
BRANCH   1  26
HETATM   26  N   UNL     1     -42.552 -49.612  11.749  1.00  0.00    -0.281 NA
HETATM   27  C   UNL     1     -43.081 -49.666  13.107  1.00  0.00     0.114 C 
HETATM   28  H   UNL     1     -42.928 -50.352  11.167  1.00  0.00     0.128 HD
ENDBRANCH   1  26
TORSDOF 7
ENDMDL
MODEL 8
REMARK VINA RESULT:      -6.1      2.067      3.403
REMARK  7 active torsions:
REMARK  status: ('A' for Active; 'I' for Inactive)
REMARK    1  A    between atoms: N_2  and  C_3 
REMARK    2  A    between atoms: N_13  and  C_14 
REMARK    3  A    between atoms: C_14  and  C_15 
REMARK    4  A    between atoms: C_15  and  O_16 
REMARK    5  A    between atoms: C_15  and  C_17 
REMARK    6  A    between atoms: C_17  and  O_18 
REMARK    7  A    between atoms: O_18  and  C_19 
ROOT
HETATM    1  C   UNL     1     -40.764 -49.506  10.991  1.00  0.00     0.112 A 
HETATM    2  N   UNL     1     -41.221 -48.616  10.085  1.00  0.00    -0.341 N 
ATOM      3  HN  UNL     1     -40.680 -48.411   9.245  1.00  0.00     0.167 HD
HETATM    4  C   UNL     1     -42.403 -47.997  10.301  1.00  0.00     0.183 A 
HETATM    5  N   UNL     1     -43.236 -48.162  11.328  1.00  0.00    -0.337 N 
ATOM      6  HN  UNL     1     -44.111 -47.648  11.435  1.00  0.00     0.168 HD
HETATM    7  C   UNL     1     -42.800 -49.077  12.206  1.00  0.00     0.137 A 
HETATM    8  N   UNL     1     -43.477 -49.453  13.332  1.00  0.00    -0.336 N 
ATOM      9  HN  UNL     1     -44.371 -49.094  13.669  1.00  0.00     0.168 HD
HETATM   10  C   UNL     1     -42.727 -50.373  13.883  1.00  0.00     0.185 A 
HETATM   11  N   UNL     1     -41.591 -50.616  13.151  1.00  0.00    -0.335 N 
HETATM   12  C   UNL     1     -41.598 -49.765  12.074  1.00  0.00     0.118 A 
ENDROOT
BRANCH  11  13
HETATM   13  C   UNL     1     -40.683 -51.716  13.420  1.00  0.00     0.164 C 
BRANCH  13  14
HETATM   14  C   UNL     1     -41.082 -53.032  12.745  1.00  0.00     0.160 C 
BRANCH  14  15
HETATM   15  O   UNL     1     -40.443 -53.114  11.462  1.00  0.00    -0.392 OA
HETATM   16  H   UNL     1     -41.032 -52.747  10.779  1.00  0.00     0.210 HD
ENDBRANCH  14  15
BRANCH  14  17
HETATM   17  C   UNL     1     -40.667 -54.218  13.635  1.00  0.00     0.209 C 
BRANCH  17  18
HETATM   18  O   UNL     1     -41.360 -54.141  14.882  1.00  0.00    -0.349 OA
BRANCH  18  19
HETATM   19  C   UNL     1     -42.725 -54.084  14.806  1.00  0.00     0.069 A 
HETATM   20  C   UNL     1     -43.340 -53.239  15.735  1.00  0.00     0.038 A 
HETATM   21  C   UNL     1     -44.730 -53.091  15.749  1.00  0.00     0.026 A 
HETATM   22  C   UNL     1     -45.506 -53.774  14.816  1.00  0.00     0.034 A 
HETATM   23 CL   UNL     1     -47.216 -53.596  14.829  1.00  0.00    -0.084 Cl
HETATM   24  C   UNL     1     -44.901 -54.597  13.867  1.00  0.00     0.026 A 
HETATM   25  C   UNL     1     -43.510 -54.752  13.863  1.00  0.00     0.038 A 
ENDBRANCH  18  19
ENDBRANCH  17  18
ENDBRANCH  14  17
ENDBRANCH  13  14
ENDBRANCH  11  13
BRANCH   1  26
HETATM   26  N   UNL     1     -39.500 -50.089  10.858  1.00  0.00    -0.281 NA
HETATM   27  C   UNL     1     -38.444 -49.449  11.636  1.00  0.00     0.114 C 
HETATM   28  H   UNL     1     -39.571 -51.080  11.061  1.00  0.00     0.128 HD
ENDBRANCH   1  26
TORSDOF 7
ENDMDL
MODEL 9
REMARK VINA RESULT:      -6.1      3.675      6.692
REMARK  7 active torsions:
REMARK  status: ('A' for Active; 'I' for Inactive)
REMARK    1  A    between atoms: N_2  and  C_3 
REMARK    2  A    between atoms: N_13  and  C_14 
REMARK    3  A    between atoms: C_14  and  C_15 
REMARK    4  A    between atoms: C_15  and  O_16 
REMARK    5  A    between atoms: C_15  and  C_17 
REMARK    6  A    between atoms: C_17  and  O_18 
REMARK    7  A    between atoms: O_18  and  C_19 
ROOT
HETATM    1  C   UNL     1     -43.329 -52.922  12.403  1.00  0.00     0.112 A 
HETATM    2  N   UNL     1     -44.628 -52.648  12.155  1.00  0.00    -0.341 N 
ATOM      3  HN  UNL     1     -44.891 -52.094  11.340  1.00  0.00     0.167 HD
HETATM    4  C   UNL     1     -45.577 -53.113  12.997  1.00  0.00     0.183 A 
HETATM    5  N   UNL     1     -45.406 -53.859  14.088  1.00  0.00    -0.337 N 
ATOM      6  HN  UNL     1     -46.171 -54.165  14.689  1.00  0.00     0.168 HD
HETATM    7  C   UNL     1     -44.120 -54.165  14.310  1.00  0.00     0.137 A 
HETATM    8  N   UNL     1     -43.676 -54.939  15.345  1.00  0.00    -0.336 N 
ATOM      9  HN  UNL     1     -44.233 -55.367  16.085  1.00  0.00     0.168 HD
HETATM   10  C   UNL     1     -42.379 -55.009  15.179  1.00  0.00     0.185 A 
HETATM   11  N   UNL     1     -41.965 -54.318  14.068  1.00  0.00    -0.335 N 
HETATM   12  C   UNL     1     -43.071 -53.733  13.504  1.00  0.00     0.118 A 
ENDROOT
BRANCH  11  13
HETATM   13  C   UNL     1     -40.616 -54.387  13.536  1.00  0.00     0.164 C 
BRANCH  13  14
HETATM   14  C   UNL     1     -39.534 -54.565  14.605  1.00  0.00     0.160 C 
BRANCH  14  15
HETATM   15  O   UNL     1     -38.563 -55.514  14.139  1.00  0.00    -0.392 OA
HETATM   16  H   UNL     1     -38.209 -55.224  13.279  1.00  0.00     0.210 HD
ENDBRANCH  14  15
BRANCH  14  17
HETATM   17  C   UNL     1     -38.868 -53.208  14.900  1.00  0.00     0.209 C 
BRANCH  17  18
HETATM   18  O   UNL     1     -38.436 -52.615  13.673  1.00  0.00    -0.349 OA
BRANCH  18  19
HETATM   19  C   UNL     1     -38.422 -51.248  13.642  1.00  0.00     0.069 A 
HETATM   20  C   UNL     1     -38.951 -50.620  14.774  1.00  0.00     0.038 A 
HETATM   21  C   UNL     1     -38.983 -49.225  14.863  1.00  0.00     0.026 A 
HETATM   22  C   UNL     1     -38.465 -48.456  13.825  1.00  0.00     0.034 A 
HETATM   23 CL   UNL     1     -38.503 -46.740  13.928  1.00  0.00    -0.084 Cl
HETATM   24  C   UNL     1     -37.911 -49.071  12.703  1.00  0.00     0.026 A 
HETATM   25  C   UNL     1     -37.889 -50.468  12.613  1.00  0.00     0.038 A 
ENDBRANCH  18  19
ENDBRANCH  17  18
ENDBRANCH  14  17
ENDBRANCH  13  14
ENDBRANCH  11  13
BRANCH   1  26
HETATM   26  N   UNL     1     -42.311 -52.373  11.617  1.00  0.00    -0.281 NA
HETATM   27  C   UNL     1     -41.730 -51.141  12.138  1.00  0.00     0.114 C 
HETATM   28  H   UNL     1     -41.606 -53.083  11.449  1.00  0.00     0.128 HD
ENDBRANCH   1  26
TORSDOF 7
ENDMDL
