MODEL 1
REMARK VINA RESULT:      -6.1      0.000      0.000
REMARK  3 active torsions:
REMARK  status: ('A' for Active; 'I' for Inactive)
REMARK    1  A    between atoms: C_8  and  N_9 
REMARK       I    between atoms: N_9  and  C_10 
REMARK       I    between atoms: C_10  and  N_12 
REMARK    2  A    between atoms: N_12  and  C_13 
REMARK    3  A    between atoms: C_16  and  O_17 
ROOT
HETATM    1  N   UNL     1     -44.726 -54.764  15.045  1.00  0.00    -0.295 N 
HETATM    2  C   UNL     1     -43.365 -54.865  15.150  1.00  0.00     0.322 C 
HETATM    3  O   UNL     1     -42.852 -55.946  15.426  1.00  0.00    -0.247 OA
HETATM    4  N   UNL     1     -42.663 -53.745  14.823  1.00  0.00    -0.338 N 
HETATM    5  H   UNL     1     -45.203 -55.650  15.107  1.00  0.00     0.172 HD
HETATM    6  H   UNL     1     -43.215 -52.894  14.918  1.00  0.00     0.164 HD
ENDROOT
BRANCH   1   7
HETATM    7  C   UNL     1     -45.470 -53.611  14.779  1.00  0.00     0.109 A 
HETATM    8  N   UNL     1     -45.827 -52.819  15.816  1.00  0.00    -0.346 N 
HETATM    9  C   UNL     1     -46.519 -51.690  15.567  1.00  0.00     0.007 A 
ATOM     10  HN  UNL     1     -45.576 -53.073  16.772  1.00  0.00     0.167 HD
HETATM   11  C   UNL     1     -46.861 -51.302  14.281  1.00  0.00     0.031 A 
HETATM   12  C   UNL     1     -46.885 -50.877  16.769  1.00  0.00     0.068 C 
HETATM   13  C   UNL     1     -46.493 -52.120  13.209  1.00  0.00    -0.057 A 
HETATM   14  C   UNL     1     -46.804 -51.717  11.798  1.00  0.00     0.048 C 
HETATM   15  C   UNL     1     -45.805 -53.309  13.469  1.00  0.00     0.055 A 
ENDBRANCH   1   7
BRANCH   4  16
HETATM   16  C   UNL     1     -41.222 -53.622  14.718  1.00  0.00     0.086 C 
HETATM   17  C   UNL     1     -40.810 -52.151  14.912  1.00  0.00     0.028 C 
HETATM   18  C   UNL     1     -41.253 -51.246  13.754  1.00  0.00     0.034 C 
HETATM   19  C   UNL     1     -40.853 -51.788  12.381  1.00  0.00     0.118 C 
HETATM   20  C   UNL     1     -41.209 -53.263  12.203  1.00  0.00     0.034 C 
HETATM   21  C   UNL     1     -40.705 -54.126  13.364  1.00  0.00     0.028 C 
BRANCH  19  22
HETATM   22  O   UNL     1     -39.454 -51.592  12.176  1.00  0.00    -0.396 OA
HETATM   23  H   UNL     1     -39.232 -51.839  11.264  1.00  0.00     0.210 HD
ENDBRANCH  19  22
ENDBRANCH   4  16
TORSDOF 3
ENDMDL
MODEL 2
REMARK VINA RESULT:      -6.1      2.878      4.246
REMARK  3 active torsions:
REMARK  status: ('A' for Active; 'I' for Inactive)
REMARK    1  A    between atoms: C_8  and  N_9 
REMARK       I    between atoms: N_9  and  C_10 
REMARK       I    between atoms: C_10  and  N_12 
REMARK    2  A    between atoms: N_12  and  C_13 
REMARK    3  A    between atoms: C_16  and  O_17 
ROOT
HETATM    1  N   UNL     1     -42.996 -52.717  12.741  1.00  0.00    -0.295 N 
HETATM    2  C   UNL     1     -41.929 -51.970  12.320  1.00  0.00     0.322 C 
HETATM    3  O   UNL     1     -40.856 -52.517  12.078  1.00  0.00    -0.247 OA
HETATM    4  N   UNL     1     -42.183 -50.651  12.095  1.00  0.00    -0.338 N 
HETATM    5  H   UNL     1     -42.828 -53.711  12.716  1.00  0.00     0.172 HD
HETATM    6  H   UNL     1     -42.991 -50.313  12.617  1.00  0.00     0.164 HD
ENDROOT
BRANCH   1   7
HETATM    7  C   UNL     1     -44.266 -52.253  13.095  1.00  0.00     0.109 A 
HETATM    8  N   UNL     1     -45.223 -52.197  12.140  1.00  0.00    -0.346 N 
HETATM    9  C   UNL     1     -46.458 -51.780  12.477  1.00  0.00     0.007 A 
ATOM     10  HN  UNL     1     -45.012 -52.468  11.179  1.00  0.00     0.167 HD
HETATM   11  C   UNL     1     -46.788 -51.423  13.776  1.00  0.00     0.031 A 
HETATM   12  C   UNL     1     -47.454 -51.737  11.361  1.00  0.00     0.068 C 
HETATM   13  C   UNL     1     -45.801 -51.480  14.763  1.00  0.00    -0.057 A 
HETATM   14  C   UNL     1     -46.124 -51.146  16.189  1.00  0.00     0.048 C 
HETATM   15  C   UNL     1     -44.509 -51.880  14.407  1.00  0.00     0.055 A 
ENDBRANCH   1   7
BRANCH   4  16
HETATM   16  C   UNL     1     -41.276 -49.676  11.523  1.00  0.00     0.086 C 
HETATM   17  C   UNL     1     -40.358 -49.110  12.622  1.00  0.00     0.028 C 
HETATM   18  C   UNL     1     -41.107 -48.234  13.637  1.00  0.00     0.034 C 
HETATM   19  C   UNL     1     -41.965 -47.152  12.979  1.00  0.00     0.118 C 
HETATM   20  C   UNL     1     -42.836 -47.698  11.849  1.00  0.00     0.034 C 
HETATM   21  C   UNL     1     -42.032 -48.527  10.843  1.00  0.00     0.028 C 
BRANCH  19  22
HETATM   22  O   UNL     1     -41.126 -46.105  12.491  1.00  0.00    -0.396 OA
HETATM   23  H   UNL     1     -40.198 -46.350  12.640  1.00  0.00     0.210 HD
ENDBRANCH  19  22
ENDBRANCH   4  16
TORSDOF 3
ENDMDL
MODEL 3
REMARK VINA RESULT:      -6.0      3.718      6.008
REMARK  3 active torsions:
REMARK  status: ('A' for Active; 'I' for Inactive)
REMARK    1  A    between atoms: C_8  and  N_9 
REMARK       I    between atoms: N_9  and  C_10 
REMARK       I    between atoms: C_10  and  N_12 
REMARK    2  A    between atoms: N_12  and  C_13 
REMARK    3  A    between atoms: C_16  and  O_17 
ROOT
HETATM    1  N   UNL     1     -41.325 -50.665  11.897  1.00  0.00    -0.295 N 
HETATM    2  C   UNL     1     -41.942 -51.853  12.181  1.00  0.00     0.322 C 
HETATM    3  O   UNL     1     -41.296 -52.898  12.167  1.00  0.00    -0.247 OA
HETATM    4  N   UNL     1     -43.244 -51.763  12.571  1.00  0.00    -0.338 N 
HETATM    5  H   UNL     1     -40.324 -50.744  11.797  1.00  0.00     0.172 HD
HETATM    6  H   UNL     1     -43.694 -50.910  12.243  1.00  0.00     0.164 HD
ENDROOT
BRANCH   1   7
HETATM    7  C   UNL     1     -41.914 -49.400  11.830  1.00  0.00     0.109 A 
HETATM    8  N   UNL     1     -42.289 -48.925  10.620  1.00  0.00    -0.346 N 
HETATM    9  C   UNL     1     -42.886 -47.719  10.548  1.00  0.00     0.007 A 
ATOM     10  HN  UNL     1     -42.123 -49.472   9.775  1.00  0.00     0.167 HD
HETATM   11  C   UNL     1     -43.146 -46.956  11.676  1.00  0.00     0.031 A 
HETATM   12  C   UNL     1     -43.258 -47.262   9.173  1.00  0.00     0.068 C 
HETATM   13  C   UNL     1     -42.759 -47.445  12.927  1.00  0.00    -0.057 A 
HETATM   14  C   UNL     1     -43.060 -46.673  14.177  1.00  0.00     0.048 C 
HETATM   15  C   UNL     1     -42.109 -48.681  12.999  1.00  0.00     0.055 A 
ENDBRANCH   1   7
BRANCH   4  16
HETATM   16  C   UNL     1     -44.084 -52.842  13.055  1.00  0.00     0.086 C 
HETATM   17  C   UNL     1     -45.493 -52.717  12.446  1.00  0.00     0.028 C 
HETATM   18  C   UNL     1     -46.268 -51.501  12.973  1.00  0.00     0.034 C 
HETATM   19  C   UNL     1     -46.282 -51.414  14.500  1.00  0.00     0.118 C 
HETATM   20  C   UNL     1     -44.894 -51.594  15.113  1.00  0.00     0.034 C 
HETATM   21  C   UNL     1     -44.183 -52.843  14.586  1.00  0.00     0.028 C 
BRANCH  19  22
HETATM   22  O   UNL     1     -47.182 -52.387  15.029  1.00  0.00    -0.396 OA
HETATM   23  H   UNL     1     -47.287 -52.233  15.982  1.00  0.00     0.210 HD
ENDBRANCH  19  22
ENDBRANCH   4  16
TORSDOF 3
ENDMDL
MODEL 4
REMARK VINA RESULT:      -5.9      6.041      8.568
REMARK  3 active torsions:
REMARK  status: ('A' for Active; 'I' for Inactive)
REMARK    1  A    between atoms: C_8  and  N_9 
REMARK       I    between atoms: N_9  and  C_10 
REMARK       I    between atoms: C_10  and  N_12 
REMARK    2  A    between atoms: N_12  and  C_13 
REMARK    3  A    between atoms: C_16  and  O_17 
ROOT
HETATM    1  N   UNL     1     -41.641 -49.227  10.733  1.00  0.00    -0.295 N 
HETATM    2  C   UNL     1     -41.927 -48.008  10.182  1.00  0.00     0.322 C 
HETATM    3  O   UNL     1     -42.946 -47.862   9.512  1.00  0.00    -0.247 OA
HETATM    4  N   UNL     1     -41.084 -46.994  10.522  1.00  0.00    -0.338 N 
HETATM    5  H   UNL     1     -42.378 -49.905  10.619  1.00  0.00     0.172 HD
HETATM    6  H   UNL     1     -40.164 -47.328  10.809  1.00  0.00     0.164 HD
ENDROOT
BRANCH   1   7
HETATM    7  C   UNL     1     -40.513 -49.573  11.483  1.00  0.00     0.109 A 
HETATM    8  N   UNL     1     -39.336 -49.745  10.838  1.00  0.00    -0.346 N 
HETATM    9  C   UNL     1     -38.237 -50.049  11.556  1.00  0.00     0.007 A 
ATOM     10  HN  UNL     1     -39.281 -49.645   9.825  1.00  0.00     0.167 HD
HETATM   11  C   UNL     1     -38.268 -50.174  12.937  1.00  0.00     0.031 A 
HETATM   12  C   UNL     1     -36.979 -50.233  10.767  1.00  0.00     0.068 C 
HETATM   13  C   UNL     1     -39.484 -49.997  13.603  1.00  0.00    -0.057 A 
HETATM   14  C   UNL     1     -39.555 -50.079  15.099  1.00  0.00     0.048 C 
HETATM   15  C   UNL     1     -40.631 -49.715  12.856  1.00  0.00     0.055 A 
ENDBRANCH   1   7
BRANCH   4  16
HETATM   16  C   UNL     1     -41.233 -45.590  10.191  1.00  0.00     0.086 C 
HETATM   17  C   UNL     1     -39.899 -44.856  10.421  1.00  0.00     0.028 C 
HETATM   18  C   UNL     1     -39.518 -44.755  11.905  1.00  0.00     0.034 C 
HETATM   19  C   UNL     1     -40.646 -44.203  12.779  1.00  0.00     0.118 C 
HETATM   20  C   UNL     1     -41.985 -44.889  12.514  1.00  0.00     0.034 C 
HETATM   21  C   UNL     1     -42.336 -44.924  11.024  1.00  0.00     0.028 C 
BRANCH  19  22
HETATM   22  O   UNL     1     -40.766 -42.795  12.575  1.00  0.00    -0.396 OA
HETATM   23  H   UNL     1     -40.638 -42.343  13.424  1.00  0.00     0.210 HD
ENDBRANCH  19  22
ENDBRANCH   4  16
TORSDOF 3
ENDMDL
MODEL 5
REMARK VINA RESULT:      -5.5      2.091      3.983
REMARK  3 active torsions:
REMARK  status: ('A' for Active; 'I' for Inactive)
REMARK    1  A    between atoms: C_8  and  N_9 
REMARK       I    between atoms: N_9  and  C_10 
REMARK       I    between atoms: C_10  and  N_12 
REMARK    2  A    between atoms: N_12  and  C_13 
REMARK    3  A    between atoms: C_16  and  O_17 
ROOT
HETATM    1  N   UNL     1     -42.843 -49.854  13.239  1.00  0.00    -0.295 N 
HETATM    2  C   UNL     1     -41.686 -50.516  12.931  1.00  0.00     0.322 C 
HETATM    3  O   UNL     1     -40.687 -49.882  12.600  1.00  0.00    -0.247 OA
HETATM    4  N   UNL     1     -41.707 -51.864  13.125  1.00  0.00    -0.338 N 
HETATM    5  H   UNL     1     -42.740 -48.851  13.267  1.00  0.00     0.172 HD
HETATM    6  H   UNL     1     -42.651 -52.249  13.099  1.00  0.00     0.164 HD
ENDROOT
BRANCH   1   7
HETATM    7  C   UNL     1     -44.072 -50.418  13.593  1.00  0.00     0.109 A 
HETATM    8  N   UNL     1     -44.879 -50.879  12.609  1.00  0.00    -0.346 N 
HETATM    9  C   UNL     1     -46.052 -51.451  12.941  1.00  0.00     0.007 A 
ATOM     10  HN  UNL     1     -44.602 -50.794  11.631  1.00  0.00     0.167 HD
HETATM   11  C   UNL     1     -46.453 -51.601  14.261  1.00  0.00     0.031 A 
HETATM   12  C   UNL     1     -46.890 -51.923  11.795  1.00  0.00     0.068 C 
HETATM   13  C   UNL     1     -45.621 -51.125  15.277  1.00  0.00    -0.057 A 
HETATM   14  C   UNL     1     -45.994 -51.306  16.719  1.00  0.00     0.048 C 
HETATM   15  C   UNL     1     -44.419 -50.500  14.932  1.00  0.00     0.055 A 
ENDBRANCH   1   7
BRANCH   4  16
HETATM   16  C   UNL     1     -40.588 -52.778  13.008  1.00  0.00     0.086 C 
HETATM   17  C   UNL     1     -41.096 -54.231  13.037  1.00  0.00     0.028 C 
HETATM   18  C   UNL     1     -41.652 -54.644  14.408  1.00  0.00     0.034 C 
HETATM   19  C   UNL     1     -40.696 -54.337  15.561  1.00  0.00     0.118 C 
HETATM   20  C   UNL     1     -40.143 -52.913  15.505  1.00  0.00     0.034 C 
HETATM   21  C   UNL     1     -39.563 -52.569  14.130  1.00  0.00     0.028 C 
BRANCH  19  22
HETATM   22  O   UNL     1     -39.624 -55.280  15.561  1.00  0.00    -0.396 OA
HETATM   23  H   UNL     1     -39.401 -55.502  16.479  1.00  0.00     0.210 HD
ENDBRANCH  19  22
ENDBRANCH   4  16
TORSDOF 3
ENDMDL
MODEL 6
REMARK VINA RESULT:      -5.4      6.399      8.431
REMARK  3 active torsions:
REMARK  status: ('A' for Active; 'I' for Inactive)
REMARK    1  A    between atoms: C_8  and  N_9 
REMARK       I    between atoms: N_9  and  C_10 
REMARK       I    between atoms: C_10  and  N_12 
REMARK    2  A    between atoms: N_12  and  C_13 
REMARK    3  A    between atoms: C_16  and  O_17 
ROOT
HETATM    1  N   UNL     1     -42.985 -47.283   9.926  1.00  0.00    -0.295 N 
HETATM    2  C   UNL     1     -42.856 -45.921   9.949  1.00  0.00     0.322 C 
HETATM    3  O   UNL     1     -43.348 -45.244   9.049  1.00  0.00    -0.247 OA
HETATM    4  N   UNL     1     -42.265 -45.402  11.060  1.00  0.00    -0.338 N 
HETATM    5  H   UNL     1     -43.588 -47.620   9.191  1.00  0.00     0.172 HD
HETATM    6  H   UNL     1     -41.664 -46.075  11.536  1.00  0.00     0.164 HD
ENDROOT
BRANCH   1   7
HETATM    7  C   UNL     1     -42.457 -48.198  10.841  1.00  0.00     0.109 A 
HETATM    8  N   UNL     1     -43.295 -48.773  11.735  1.00  0.00    -0.346 N 
HETATM    9  C   UNL     1     -42.802 -49.679  12.602  1.00  0.00     0.007 A 
ATOM     10  HN  UNL     1     -44.284 -48.525  11.752  1.00  0.00     0.167 HD
HETATM   11  C   UNL     1     -41.467 -50.056  12.597  1.00  0.00     0.031 A 
HETATM   12  C   UNL     1     -43.790 -50.258  13.565  1.00  0.00     0.068 C 
HETATM   13  C   UNL     1     -40.602 -49.463  11.674  1.00  0.00    -0.057 A 
HETATM   14  C   UNL     1     -39.161 -49.873  11.603  1.00  0.00     0.048 C 
HETATM   15  C   UNL     1     -41.106 -48.498  10.796  1.00  0.00     0.055 A 
ENDBRANCH   1   7
BRANCH   4  16
HETATM   16  C   UNL     1     -42.127 -43.999  11.399  1.00  0.00     0.086 C 
HETATM   17  C   UNL     1     -40.678 -43.543  11.149  1.00  0.00     0.028 C 
HETATM   18  C   UNL     1     -39.676 -44.167  12.131  1.00  0.00     0.034 C 
HETATM   19  C   UNL     1     -40.093 -44.012  13.594  1.00  0.00     0.118 C 
HETATM   20  C   UNL     1     -41.548 -44.410  13.837  1.00  0.00     0.034 C 
HETATM   21  C   UNL     1     -42.508 -43.726  12.860  1.00  0.00     0.028 C 
BRANCH  19  22
HETATM   22  O   UNL     1     -39.874 -42.666  14.016  1.00  0.00    -0.396 OA
HETATM   23  H   UNL     1     -39.030 -42.620  14.495  1.00  0.00     0.210 HD
ENDBRANCH  19  22
ENDBRANCH   4  16
TORSDOF 3
ENDMDL
MODEL 7
REMARK VINA RESULT:      -5.1     14.986     17.299
REMARK  3 active torsions:
REMARK  status: ('A' for Active; 'I' for Inactive)
REMARK    1  A    between atoms: C_8  and  N_9 
REMARK       I    between atoms: N_9  and  C_10 
REMARK       I    between atoms: C_10  and  N_12 
REMARK    2  A    between atoms: N_12  and  C_13 
REMARK    3  A    between atoms: C_16  and  O_17 
ROOT
HETATM    1  N   UNL     1     -48.848 -52.112  -1.540  1.00  0.00    -0.295 N 
HETATM    2  C   UNL     1     -48.451 -50.980  -0.881  1.00  0.00     0.322 C 
HETATM    3  O   UNL     1     -47.268 -50.824  -0.590  1.00  0.00    -0.247 OA
HETATM    4  N   UNL     1     -49.417 -50.040  -0.688  1.00  0.00    -0.338 N 
HETATM    5  H   UNL     1     -48.082 -52.699  -1.833  1.00  0.00     0.172 HD
HETATM    6  H   UNL     1     -50.357 -50.434  -0.703  1.00  0.00     0.164 HD
ENDROOT
BRANCH   1   7
HETATM    7  C   UNL     1     -50.150 -52.464  -1.908  1.00  0.00     0.109 A 
HETATM    8  N   UNL     1     -50.569 -52.169  -3.161  1.00  0.00    -0.346 N 
HETATM    9  C   UNL     1     -51.811 -52.531  -3.535  1.00  0.00     0.007 A 
ATOM     10  HN  UNL     1     -49.953 -51.680  -3.811  1.00  0.00     0.167 HD
HETATM   11  C   UNL     1     -52.669 -53.213  -2.686  1.00  0.00     0.031 A 
HETATM   12  C   UNL     1     -52.201 -52.157  -4.931  1.00  0.00     0.068 C 
HETATM   13  C   UNL     1     -52.237 -53.518  -1.392  1.00  0.00    -0.057 A 
HETATM   14  C   UNL     1     -53.115 -54.293  -0.455  1.00  0.00     0.048 C 
HETATM   15  C   UNL     1     -50.961 -53.113  -0.992  1.00  0.00     0.055 A 
ENDBRANCH   1   7
BRANCH   4  16
HETATM   16  C   UNL     1     -49.238 -48.708  -0.144  1.00  0.00     0.086 C 
HETATM   17  C   UNL     1     -49.058 -48.789   1.383  1.00  0.00     0.028 C 
HETATM   18  C   UNL     1     -50.337 -49.220   2.115  1.00  0.00     0.034 C 
HETATM   19  C   UNL     1     -51.564 -48.401   1.715  1.00  0.00     0.118 C 
HETATM   20  C   UNL     1     -51.716 -48.269   0.200  1.00  0.00     0.034 C 
HETATM   21  C   UNL     1     -50.426 -47.794  -0.474  1.00  0.00     0.028 C 
BRANCH  19  22
HETATM   22  O   UNL     1     -51.496 -47.108   2.316  1.00  0.00    -0.396 OA
HETATM   23  H   UNL     1     -50.625 -47.001   2.732  1.00  0.00     0.210 HD
ENDBRANCH  19  22
ENDBRANCH   4  16
TORSDOF 3
ENDMDL
MODEL 8
REMARK VINA RESULT:      -5.1      2.668      5.739
REMARK  3 active torsions:
REMARK  status: ('A' for Active; 'I' for Inactive)
REMARK    1  A    between atoms: C_8  and  N_9 
REMARK       I    between atoms: N_9  and  C_10 
REMARK       I    between atoms: C_10  and  N_12 
REMARK    2  A    between atoms: N_12  and  C_13 
REMARK    3  A    between atoms: C_16  and  O_17 
ROOT
HETATM    1  N   UNL     1     -42.916 -53.003  17.454  1.00  0.00    -0.295 N 
HETATM    2  C   UNL     1     -44.235 -53.023  17.090  1.00  0.00     0.322 C 
HETATM    3  O   UNL     1     -45.062 -52.398  17.748  1.00  0.00    -0.247 OA
HETATM    4  N   UNL     1     -44.515 -53.670  15.925  1.00  0.00    -0.338 N 
HETATM    5  H   UNL     1     -42.715 -52.365  18.208  1.00  0.00     0.172 HD
HETATM    6  H   UNL     1     -43.809 -54.364  15.681  1.00  0.00     0.164 HD
ENDROOT
BRANCH   1   7
HETATM    7  C   UNL     1     -41.859 -53.685  16.845  1.00  0.00     0.109 A 
HETATM    8  N   UNL     1     -41.640 -54.976  17.187  1.00  0.00    -0.346 N 
HETATM    9  C   UNL     1     -40.642 -55.650  16.584  1.00  0.00     0.007 A 
ATOM     10  HN  UNL     1     -42.220 -55.430  17.892  1.00  0.00     0.167 HD
HETATM   11  C   UNL     1     -39.844 -55.072  15.607  1.00  0.00     0.031 A 
HETATM   12  C   UNL     1     -40.458 -57.068  17.027  1.00  0.00     0.068 C 
HETATM   13  C   UNL     1     -40.071 -53.740  15.253  1.00  0.00    -0.057 A 
HETATM   14  C   UNL     1     -39.261 -53.088  14.172  1.00  0.00     0.048 C 
HETATM   15  C   UNL     1     -41.083 -53.028  15.904  1.00  0.00     0.055 A 
ENDBRANCH   1   7
BRANCH   4  16
HETATM   16  C   UNL     1     -45.796 -53.724  15.246  1.00  0.00     0.086 C 
HETATM   17  C   UNL     1     -45.711 -54.692  14.051  1.00  0.00     0.028 C 
HETATM   18  C   UNL     1     -44.816 -54.169  12.918  1.00  0.00     0.034 C 
HETATM   19  C   UNL     1     -45.160 -52.742  12.490  1.00  0.00     0.118 C 
HETATM   20  C   UNL     1     -45.301 -51.789  13.676  1.00  0.00     0.034 C 
HETATM   21  C   UNL     1     -46.238 -52.339  14.755  1.00  0.00     0.028 C 
BRANCH  19  22
HETATM   22  O   UNL     1     -46.362 -52.749  11.719  1.00  0.00    -0.396 OA
HETATM   23  H   UNL     1     -47.097 -53.030  12.287  1.00  0.00     0.210 HD
ENDBRANCH  19  22
ENDBRANCH   4  16
TORSDOF 3
ENDMDL
MODEL 9
REMARK VINA RESULT:      -5.0      2.549      3.654
REMARK  3 active torsions:
REMARK  status: ('A' for Active; 'I' for Inactive)
REMARK    1  A    between atoms: C_8  and  N_9 
REMARK       I    between atoms: N_9  and  C_10 
REMARK       I    between atoms: C_10  and  N_12 
REMARK    2  A    between atoms: N_12  and  C_13 
REMARK    3  A    between atoms: C_16  and  O_17 
ROOT
HETATM    1  N   UNL     1     -44.241 -50.350  15.509  1.00  0.00    -0.295 N 
HETATM    2  C   UNL     1     -43.133 -49.561  15.358  1.00  0.00     0.322 C 
HETATM    3  O   UNL     1     -42.906 -48.664  16.165  1.00  0.00    -0.247 OA
HETATM    4  N   UNL     1     -42.287 -49.918  14.352  1.00  0.00    -0.338 N 
HETATM    5  H   UNL     1     -44.743 -50.182  16.367  1.00  0.00     0.172 HD
HETATM    6  H   UNL     1     -42.752 -50.455  13.621  1.00  0.00     0.164 HD
ENDROOT
BRANCH   1   7
HETATM    7  C   UNL     1     -44.667 -51.381  14.667  1.00  0.00     0.109 A 
HETATM    8  N   UNL     1     -44.246 -52.641  14.925  1.00  0.00    -0.346 N 
HETATM    9  C   UNL     1     -44.674 -53.646  14.137  1.00  0.00     0.007 A 
ATOM     10  HN  UNL     1     -43.614 -52.826  15.703  1.00  0.00     0.167 HD
HETATM   11  C   UNL     1     -45.548 -53.436  13.081  1.00  0.00     0.031 A 
HETATM   12  C   UNL     1     -44.153 -55.006  14.482  1.00  0.00     0.068 C 
HETATM   13  C   UNL     1     -45.984 -52.135  12.814  1.00  0.00    -0.057 A 
HETATM   14  C   UNL     1     -46.963 -51.868  11.710  1.00  0.00     0.048 C 
HETATM   15  C   UNL     1     -45.513 -51.087  13.610  1.00  0.00     0.055 A 
ENDBRANCH   1   7
BRANCH   4  16
HETATM   16  C   UNL     1     -40.988 -49.343  14.063  1.00  0.00     0.086 C 
HETATM   17  C   UNL     1     -41.101 -48.372  12.873  1.00  0.00     0.028 C 
HETATM   18  C   UNL     1     -41.394 -49.084  11.544  1.00  0.00     0.034 C 
HETATM   19  C   UNL     1     -40.440 -50.245  11.262  1.00  0.00     0.118 C 
HETATM   20  C   UNL     1     -40.279 -51.181  12.459  1.00  0.00     0.034 C 
HETATM   21  C   UNL     1     -39.945 -50.423  13.748  1.00  0.00     0.028 C 
BRANCH  19  22
HETATM   22  O   UNL     1     -39.167 -49.735  10.863  1.00  0.00    -0.396 OA
HETATM   23  H   UNL     1     -38.560 -49.781  11.619  1.00  0.00     0.210 HD
ENDBRANCH  19  22
ENDBRANCH   4  16
TORSDOF 3
ENDMDL
