MODEL 1
REMARK VINA RESULT:      -6.0      0.000      0.000
REMARK  5 active torsions:
REMARK  status: ('A' for Active; 'I' for Inactive)
REMARK    1  A    between atoms: C_2  and  C_3 
REMARK    2  A    between atoms: C_2  and  N_10 
REMARK    3  A    between atoms: C_3  and  N_4 
REMARK       I    between atoms: N_10  and  C_11 
REMARK    4  A    between atoms: C_11  and  C_13 
REMARK    5  A    between atoms: C_13  and  C_14 
ROOT
HETATM    1  N   UNL     1     -42.077 -52.713  14.574  1.00  0.00    -0.355 N 
HETATM    2  C   UNL     1     -41.466 -52.346  13.396  1.00  0.00     0.222 C 
HETATM    3  O   UNL     1     -41.524 -52.991  12.353  1.00  0.00    -0.273 OA
HETATM    4  H   UNL     1     -41.856 -52.187  15.416  1.00  0.00     0.162 HD
ENDROOT
BRANCH   2   5
HETATM    5  C   UNL     1     -40.722 -51.022  13.440  1.00  0.00     0.149 C 
BRANCH   5   6
HETATM    6  C   UNL     1     -41.345 -50.037  12.503  1.00  0.00     0.041 A 
HETATM    7  C   UNL     1     -42.528 -49.400  12.631  1.00  0.00     0.018 A 
HETATM    8  C   UNL     1     -43.456 -49.554  13.813  1.00  0.00     0.069 C 
HETATM    9  N   UNL     1     -43.029 -48.515  11.698  1.00  0.00    -0.349 N 
HETATM   10  C   UNL     1     -42.333 -48.294  10.633  1.00  0.00     0.080 A 
ATOM     11  HN  UNL     1     -43.925 -48.050  11.846  1.00  0.00     0.167 HD
HETATM   12  C   UNL     1     -42.819 -47.353   9.575  1.00  0.00     0.089 C 
HETATM   13  N   UNL     1     -41.133 -48.889  10.394  1.00  0.00    -0.313 N 
HETATM   14  C   UNL     1     -40.550 -49.728  11.289  1.00  0.00     0.255 A 
HETATM   15  H   UNL     1     -40.597 -48.674   9.565  1.00  0.00     0.170 HD
HETATM   16  O   UNL     1     -39.430 -50.189  11.097  1.00  0.00    -0.268 OA
ENDBRANCH   5   6
ENDBRANCH   2   5
BRANCH   1  17
HETATM   17  C   UNL     1     -42.960 -53.869  14.774  1.00  0.00     0.108 C 
HETATM   18  C   UNL     1     -42.345 -55.040  15.550  1.00  0.00     0.034 C 
BRANCH  17  19
HETATM   19  C   UNL     1     -44.299 -53.449  15.442  1.00  0.00     0.296 C 
BRANCH  19  20
HETATM   20  N   UNL     1     -45.548 -53.882  14.771  1.00  0.00     0.090 N 
HETATM   21  C   UNL     1     -45.378 -53.891  13.304  1.00  0.00     0.272 C 
HETATM   22  C   UNL     1     -45.293 -52.494  12.675  1.00  0.00     0.030 C 
HETATM   23  C   UNL     1     -46.463 -51.604  13.080  1.00  0.00     0.003 C 
HETATM   24  C   UNL     1     -46.766 -51.677  14.575  1.00  0.00     0.030 C 
HETATM   25  C   UNL     1     -46.750 -53.109  15.111  1.00  0.00     0.272 C 
ENDBRANCH  19  20
ENDBRANCH  17  19
ENDBRANCH   1  17
TORSDOF 5
ENDMDL
MODEL 2
REMARK VINA RESULT:      -5.8      2.086      3.564
REMARK  5 active torsions:
REMARK  status: ('A' for Active; 'I' for Inactive)
REMARK    1  A    between atoms: C_2  and  C_3 
REMARK    2  A    between atoms: C_2  and  N_10 
REMARK    3  A    between atoms: C_3  and  N_4 
REMARK       I    between atoms: N_10  and  C_11 
REMARK    4  A    between atoms: C_11  and  C_13 
REMARK    5  A    between atoms: C_13  and  C_14 
ROOT
HETATM    1  N   UNL     1     -40.464 -50.574  13.243  1.00  0.00    -0.355 N 
HETATM    2  C   UNL     1     -39.971 -49.480  12.569  1.00  0.00     0.222 C 
HETATM    3  O   UNL     1     -39.081 -49.527  11.725  1.00  0.00    -0.273 OA
HETATM    4  H   UNL     1     -41.101 -50.415  14.020  1.00  0.00     0.162 HD
ENDROOT
BRANCH   2   5
HETATM    5  C   UNL     1     -40.644 -48.159  12.902  1.00  0.00     0.149 C 
BRANCH   5   6
HETATM    6  C   UNL     1     -41.500 -47.703  11.763  1.00  0.00     0.041 A 
HETATM    7  C   UNL     1     -41.206 -46.786  10.816  1.00  0.00     0.018 A 
HETATM    8  C   UNL     1     -39.889 -46.053  10.719  1.00  0.00     0.069 C 
HETATM    9  N   UNL     1     -42.074 -46.417   9.809  1.00  0.00    -0.349 N 
HETATM   10  C   UNL     1     -43.240 -46.969   9.777  1.00  0.00     0.080 A 
ATOM     11  HN  UNL     1     -41.801 -45.727   9.110  1.00  0.00     0.167 HD
HETATM   12  C   UNL     1     -44.237 -46.610   8.718  1.00  0.00     0.089 C 
HETATM   13  N   UNL     1     -43.648 -47.896  10.687  1.00  0.00    -0.313 N 
HETATM   14  C   UNL     1     -42.831 -48.349  11.673  1.00  0.00     0.255 A 
HETATM   15  H   UNL     1     -44.557 -48.332  10.619  1.00  0.00     0.170 HD
HETATM   16  O   UNL     1     -43.184 -49.246  12.431  1.00  0.00    -0.268 OA
ENDBRANCH   5   6
ENDBRANCH   2   5
BRANCH   1  17
HETATM   17  C   UNL     1     -40.086 -51.975  13.022  1.00  0.00     0.108 C 
HETATM   18  C   UNL     1     -39.091 -52.556  14.033  1.00  0.00     0.034 C 
BRANCH  17  19
HETATM   19  C   UNL     1     -41.339 -52.892  12.942  1.00  0.00     0.296 C 
BRANCH  19  20
HETATM   20  N   UNL     1     -42.543 -52.449  13.686  1.00  0.00     0.090 N 
HETATM   21  C   UNL     1     -42.608 -53.099  15.011  1.00  0.00     0.272 C 
HETATM   22  C   UNL     1     -42.950 -54.594  14.959  1.00  0.00     0.030 C 
HETATM   23  C   UNL     1     -44.216 -54.871  14.155  1.00  0.00     0.003 C 
HETATM   24  C   UNL     1     -44.256 -54.101  12.837  1.00  0.00     0.030 C 
HETATM   25  C   UNL     1     -43.823 -52.643  12.992  1.00  0.00     0.272 C 
ENDBRANCH  19  20
ENDBRANCH  17  19
ENDBRANCH   1  17
TORSDOF 5
ENDMDL
MODEL 3
REMARK VINA RESULT:      -5.8      2.090      2.771
REMARK  5 active torsions:
REMARK  status: ('A' for Active; 'I' for Inactive)
REMARK    1  A    between atoms: C_2  and  C_3 
REMARK    2  A    between atoms: C_2  and  N_10 
REMARK    3  A    between atoms: C_3  and  N_4 
REMARK       I    between atoms: N_10  and  C_11 
REMARK    4  A    between atoms: C_11  and  C_13 
REMARK    5  A    between atoms: C_13  and  C_14 
ROOT
HETATM    1  N   UNL     1     -40.768 -52.240  14.093  1.00  0.00    -0.355 N 
HETATM    2  C   UNL     1     -39.403 -52.214  13.925  1.00  0.00     0.222 C 
HETATM    3  O   UNL     1     -38.740 -53.140  13.467  1.00  0.00    -0.273 OA
HETATM    4  H   UNL     1     -41.206 -51.480  14.608  1.00  0.00     0.162 HD
ENDROOT
BRANCH   2   5
HETATM    5  C   UNL     1     -38.730 -50.906  14.307  1.00  0.00     0.149 C 
BRANCH   5   6
HETATM    6  C   UNL     1     -39.115 -49.817  13.355  1.00  0.00     0.041 A 
HETATM    7  C   UNL     1     -38.572 -49.533  12.152  1.00  0.00     0.018 A 
HETATM    8  C   UNL     1     -37.452 -50.322  11.515  1.00  0.00     0.069 C 
HETATM    9  N   UNL     1     -38.987 -48.491  11.350  1.00  0.00    -0.349 N 
HETATM   10  C   UNL     1     -39.941 -47.734  11.778  1.00  0.00     0.080 A 
ATOM     11  HN  UNL     1     -38.552 -48.324  10.442  1.00  0.00     0.167 HD
HETATM   12  C   UNL     1     -40.436 -46.579  10.965  1.00  0.00     0.089 C 
HETATM   13  N   UNL     1     -40.553 -47.920  12.980  1.00  0.00    -0.313 N 
HETATM   14  C   UNL     1     -40.237 -48.955  13.800  1.00  0.00     0.255 A 
HETATM   15  H   UNL     1     -41.316 -47.328  13.277  1.00  0.00     0.170 HD
HETATM   16  O   UNL     1     -40.855 -49.159  14.839  1.00  0.00    -0.268 OA
ENDBRANCH   5   6
ENDBRANCH   2   5
BRANCH   1  17
HETATM   17  C   UNL     1     -41.674 -53.322  13.688  1.00  0.00     0.108 C 
HETATM   18  C   UNL     1     -41.807 -54.479  14.686  1.00  0.00     0.034 C 
BRANCH  17  19
HETATM   19  C   UNL     1     -43.086 -52.775  13.337  1.00  0.00     0.296 C 
BRANCH  19  20
HETATM   20  N   UNL     1     -44.227 -53.314  14.116  1.00  0.00     0.090 N 
HETATM   21  C   UNL     1     -45.340 -53.691  13.221  1.00  0.00     0.272 C 
HETATM   22  C   UNL     1     -46.075 -52.497  12.599  1.00  0.00     0.030 C 
HETATM   23  C   UNL     1     -46.539 -51.491  13.648  1.00  0.00     0.003 C 
HETATM   24  C   UNL     1     -45.460 -51.183  14.683  1.00  0.00     0.030 C 
HETATM   25  C   UNL     1     -44.740 -52.438  15.177  1.00  0.00     0.272 C 
ENDBRANCH  19  20
ENDBRANCH  17  19
ENDBRANCH   1  17
TORSDOF 5
ENDMDL
MODEL 4
REMARK VINA RESULT:      -5.7      1.782      1.876
REMARK  5 active torsions:
REMARK  status: ('A' for Active; 'I' for Inactive)
REMARK    1  A    between atoms: C_2  and  C_3 
REMARK    2  A    between atoms: C_2  and  N_10 
REMARK    3  A    between atoms: C_3  and  N_4 
REMARK       I    between atoms: N_10  and  C_11 
REMARK    4  A    between atoms: C_11  and  C_13 
REMARK    5  A    between atoms: C_13  and  C_14 
ROOT
HETATM    1  N   UNL     1     -41.122 -53.265  14.564  1.00  0.00    -0.355 N 
HETATM    2  C   UNL     1     -40.314 -52.889  13.516  1.00  0.00     0.222 C 
HETATM    3  O   UNL     1     -40.477 -53.240  12.351  1.00  0.00    -0.273 OA
HETATM    4  H   UNL     1     -40.825 -53.036  15.510  1.00  0.00     0.162 HD
ENDROOT
BRANCH   2   5
HETATM    5  C   UNL     1     -39.187 -51.936  13.879  1.00  0.00     0.149 C 
BRANCH   5   6
HETATM    6  C   UNL     1     -39.422 -50.587  13.277  1.00  0.00     0.041 A 
HETATM    7  C   UNL     1     -40.293 -49.637  13.677  1.00  0.00     0.018 A 
HETATM    8  C   UNL     1     -41.200 -49.764  14.879  1.00  0.00     0.069 C 
HETATM    9  N   UNL     1     -40.451 -48.423  13.042  1.00  0.00    -0.349 N 
HETATM   10  C   UNL     1     -39.735 -48.186  11.995  1.00  0.00     0.080 A 
ATOM     11  HN  UNL     1     -41.116 -47.732  13.390  1.00  0.00     0.167 HD
HETATM   12  C   UNL     1     -39.860 -46.893  11.249  1.00  0.00     0.089 C 
HETATM   13  N   UNL     1     -38.834 -49.075  11.495  1.00  0.00    -0.313 N 
HETATM   14  C   UNL     1     -38.584 -50.266  12.097  1.00  0.00     0.255 A 
HETATM   15  H   UNL     1     -38.266 -48.850  10.690  1.00  0.00     0.170 HD
HETATM   16  O   UNL     1     -37.709 -51.019  11.683  1.00  0.00    -0.268 OA
ENDBRANCH   5   6
ENDBRANCH   2   5
BRANCH   1  17
HETATM   17  C   UNL     1     -42.348 -54.068  14.473  1.00  0.00     0.108 C 
HETATM   18  C   UNL     1     -42.443 -55.240  15.458  1.00  0.00     0.034 C 
BRANCH  17  19
HETATM   19  C   UNL     1     -43.616 -53.179  14.601  1.00  0.00     0.296 C 
BRANCH  19  20
HETATM   20  N   UNL     1     -44.850 -53.673  13.945  1.00  0.00     0.090 N 
HETATM   21  C   UNL     1     -45.164 -52.867  12.747  1.00  0.00     0.272 C 
HETATM   22  C   UNL     1     -45.662 -51.450  13.057  1.00  0.00     0.030 C 
HETATM   23  C   UNL     1     -46.833 -51.449  14.034  1.00  0.00     0.003 C 
HETATM   24  C   UNL     1     -46.611 -52.384  15.220  1.00  0.00     0.030 C 
HETATM   25  C   UNL     1     -46.041 -53.741  14.802  1.00  0.00     0.272 C 
ENDBRANCH  19  20
ENDBRANCH  17  19
ENDBRANCH   1  17
TORSDOF 5
ENDMDL
MODEL 5
REMARK VINA RESULT:      -5.6      2.397      2.935
REMARK  5 active torsions:
REMARK  status: ('A' for Active; 'I' for Inactive)
REMARK    1  A    between atoms: C_2  and  C_3 
REMARK    2  A    between atoms: C_2  and  N_10 
REMARK    3  A    between atoms: C_3  and  N_4 
REMARK       I    between atoms: N_10  and  C_11 
REMARK    4  A    between atoms: C_11  and  C_13 
REMARK    5  A    between atoms: C_13  and  C_14 
ROOT
HETATM    1  N   UNL     1     -41.402 -51.529  11.737  1.00  0.00    -0.355 N 
HETATM    2  C   UNL     1     -40.393 -50.921  12.450  1.00  0.00     0.222 C 
HETATM    3  O   UNL     1     -40.162 -51.125  13.639  1.00  0.00    -0.273 OA
HETATM    4  H   UNL     1     -41.599 -51.191  10.798  1.00  0.00     0.162 HD
ENDROOT
BRANCH   2   5
HETATM    5  C   UNL     1     -39.511 -49.979  11.648  1.00  0.00     0.149 C 
BRANCH   5   6
HETATM    6  C   UNL     1     -39.783 -48.556  12.022  1.00  0.00     0.041 A 
HETATM    7  C   UNL     1     -39.143 -47.801  12.941  1.00  0.00     0.018 A 
HETATM    8  C   UNL     1     -37.968 -48.273  13.764  1.00  0.00     0.069 C 
HETATM    9  N   UNL     1     -39.480 -46.495  13.230  1.00  0.00    -0.349 N 
HETATM   10  C   UNL     1     -40.473 -45.967  12.596  1.00  0.00     0.080 A 
ATOM     11  HN  UNL     1     -38.959 -45.962  13.926  1.00  0.00     0.167 HD
HETATM   12  C   UNL     1     -40.900 -44.557  12.865  1.00  0.00     0.089 C 
HETATM   13  N   UNL     1     -41.196 -46.638  11.659  1.00  0.00    -0.313 N 
HETATM   14  C   UNL     1     -40.891 -47.907  11.282  1.00  0.00     0.255 A 
HETATM   15  H   UNL     1     -41.950 -46.190  11.158  1.00  0.00     0.170 HD
HETATM   16  O   UNL     1     -41.498 -48.467  10.376  1.00  0.00    -0.268 OA
ENDBRANCH   5   6
ENDBRANCH   2   5
BRANCH   1  17
HETATM   17  C   UNL     1     -42.311 -52.570  12.230  1.00  0.00     0.108 C 
HETATM   18  C   UNL     1     -41.635 -53.778  12.888  1.00  0.00     0.034 C 
BRANCH  17  19
HETATM   19  C   UNL     1     -43.373 -51.979  13.199  1.00  0.00     0.296 C 
BRANCH  19  20
HETATM   20  N   UNL     1     -44.373 -52.922  13.754  1.00  0.00     0.090 N 
HETATM   21  C   UNL     1     -45.575 -52.975  12.897  1.00  0.00     0.272 C 
HETATM   22  C   UNL     1     -46.444 -51.712  12.957  1.00  0.00     0.030 C 
HETATM   23  C   UNL     1     -46.813 -51.331  14.387  1.00  0.00     0.003 C 
HETATM   24  C   UNL     1     -45.623 -51.404  15.341  1.00  0.00     0.030 C 
HETATM   25  C   UNL     1     -44.784 -52.667  15.141  1.00  0.00     0.272 C 
ENDBRANCH  19  20
ENDBRANCH  17  19
ENDBRANCH   1  17
TORSDOF 5
ENDMDL
MODEL 6
REMARK VINA RESULT:      -5.5      3.283      6.114
REMARK  5 active torsions:
REMARK  status: ('A' for Active; 'I' for Inactive)
REMARK    1  A    between atoms: C_2  and  C_3 
REMARK    2  A    between atoms: C_2  and  N_10 
REMARK    3  A    between atoms: C_3  and  N_4 
REMARK       I    between atoms: N_10  and  C_11 
REMARK    4  A    between atoms: C_11  and  C_13 
REMARK    5  A    between atoms: C_13  and  C_14 
ROOT
HETATM    1  N   UNL     1     -41.022 -54.421  15.293  1.00  0.00    -0.355 N 
HETATM    2  C   UNL     1     -42.340 -54.067  15.467  1.00  0.00     0.222 C 
HETATM    3  O   UNL     1     -42.722 -53.117  16.145  1.00  0.00    -0.273 OA
HETATM    4  H   UNL     1     -40.816 -55.302  14.829  1.00  0.00     0.162 HD
ENDROOT
BRANCH   2   5
HETATM    5  C   UNL     1     -43.343 -54.919  14.706  1.00  0.00     0.149 C 
BRANCH   5   6
HETATM    6  C   UNL     1     -44.237 -54.059  13.869  1.00  0.00     0.041 A 
HETATM    7  C   UNL     1     -43.891 -53.246  12.848  1.00  0.00     0.018 A 
HETATM    8  C   UNL     1     -42.482 -53.081  12.329  1.00  0.00     0.069 C 
HETATM    9  N   UNL     1     -44.791 -52.474  12.143  1.00  0.00    -0.349 N 
HETATM   10  C   UNL     1     -46.035 -52.520  12.487  1.00  0.00     0.080 A 
ATOM     11  HN  UNL     1     -44.482 -51.883  11.371  1.00  0.00     0.167 HD
HETATM   12  C   UNL     1     -47.065 -51.702  11.773  1.00  0.00     0.089 C 
HETATM   13  N   UNL     1     -46.494 -53.295  13.508  1.00  0.00    -0.313 N 
HETATM   14  C   UNL     1     -45.678 -54.122  14.211  1.00  0.00     0.255 A 
HETATM   15  H   UNL     1     -47.477 -53.332  13.736  1.00  0.00     0.170 HD
HETATM   16  O   UNL     1     -46.121 -54.876  15.071  1.00  0.00    -0.268 OA
ENDBRANCH   5   6
ENDBRANCH   2   5
BRANCH   1  17
HETATM   17  C   UNL     1     -39.852 -53.697  15.805  1.00  0.00     0.108 C 
HETATM   18  C   UNL     1     -38.828 -54.551  16.562  1.00  0.00     0.034 C 
BRANCH  17  19
HETATM   19  C   UNL     1     -39.135 -52.910  14.672  1.00  0.00     0.296 C 
BRANCH  19  20
HETATM   20  N   UNL     1     -39.714 -51.598  14.296  1.00  0.00     0.090 N 
HETATM   21  C   UNL     1     -39.197 -51.154  12.985  1.00  0.00     0.272 C 
HETATM   22  C   UNL     1     -37.727 -50.719  13.006  1.00  0.00     0.030 C 
HETATM   23  C   UNL     1     -37.447 -49.674  14.083  1.00  0.00     0.003 C 
HETATM   24  C   UNL     1     -38.089 -50.025  15.423  1.00  0.00     0.030 C 
HETATM   25  C   UNL     1     -39.529 -50.520  15.275  1.00  0.00     0.272 C 
ENDBRANCH  19  20
ENDBRANCH  17  19
ENDBRANCH   1  17
TORSDOF 5
ENDMDL
MODEL 7
REMARK VINA RESULT:      -5.4      2.408      6.216
REMARK  5 active torsions:
REMARK  status: ('A' for Active; 'I' for Inactive)
REMARK    1  A    between atoms: C_2  and  C_3 
REMARK    2  A    between atoms: C_2  and  N_10 
REMARK    3  A    between atoms: C_3  and  N_4 
REMARK       I    between atoms: N_10  and  C_11 
REMARK    4  A    between atoms: C_11  and  C_13 
REMARK    5  A    between atoms: C_13  and  C_14 
ROOT
HETATM    1  N   UNL     1     -42.661 -53.868  14.301  1.00  0.00    -0.355 N 
HETATM    2  C   UNL     1     -43.515 -53.589  13.259  1.00  0.00     0.222 C 
HETATM    3  O   UNL     1     -43.196 -52.980  12.242  1.00  0.00    -0.273 OA
HETATM    4  H   UNL     1     -43.053 -54.254  15.157  1.00  0.00     0.162 HD
ENDROOT
BRANCH   2   5
HETATM    5  C   UNL     1     -44.924 -54.136  13.415  1.00  0.00     0.149 C 
BRANCH   5   6
HETATM    6  C   UNL     1     -45.739 -53.250  14.303  1.00  0.00     0.041 A 
HETATM    7  C   UNL     1     -46.437 -52.146  13.962  1.00  0.00     0.018 A 
HETATM    8  C   UNL     1     -46.550 -51.609  12.554  1.00  0.00     0.069 C 
HETATM    9  N   UNL     1     -47.148 -51.379  14.861  1.00  0.00    -0.349 N 
HETATM   10  C   UNL     1     -47.134 -51.728  16.104  1.00  0.00     0.080 A 
ATOM     11  HN  UNL     1     -47.670 -50.559  14.553  1.00  0.00     0.167 HD
HETATM   12  C   UNL     1     -47.875 -50.937  17.138  1.00  0.00     0.089 C 
HETATM   13  N   UNL     1     -46.455 -52.814  16.563  1.00  0.00    -0.313 N 
HETATM   14  C   UNL     1     -45.778 -53.648  15.730  1.00  0.00     0.255 A 
HETATM   15  H   UNL     1     -46.486 -53.080  17.537  1.00  0.00     0.170 HD
HETATM   16  O   UNL     1     -45.242 -54.669  16.147  1.00  0.00    -0.268 OA
ENDBRANCH   5   6
ENDBRANCH   2   5
BRANCH   1  17
HETATM   17  C   UNL     1     -41.224 -53.572  14.352  1.00  0.00     0.108 C 
HETATM   18  C   UNL     1     -40.364 -54.297  13.310  1.00  0.00     0.034 C 
BRANCH  17  19
HETATM   19  C   UNL     1     -40.960 -52.042  14.269  1.00  0.00     0.296 C 
BRANCH  19  20
HETATM   20  N   UNL     1     -39.981 -51.585  13.254  1.00  0.00     0.090 N 
HETATM   21  C   UNL     1     -38.800 -50.978  13.901  1.00  0.00     0.272 C 
HETATM   22  C   UNL     1     -39.070 -49.611  14.542  1.00  0.00     0.030 C 
HETATM   23  C   UNL     1     -39.717 -48.632  13.567  1.00  0.00     0.003 C 
HETATM   24  C   UNL     1     -40.855 -49.264  12.768  1.00  0.00     0.030 C 
HETATM   25  C   UNL     1     -40.504 -50.656  12.243  1.00  0.00     0.272 C 
ENDBRANCH  19  20
ENDBRANCH  17  19
ENDBRANCH   1  17
TORSDOF 5
ENDMDL
MODEL 8
REMARK VINA RESULT:      -5.3      2.609      6.422
REMARK  5 active torsions:
REMARK  status: ('A' for Active; 'I' for Inactive)
REMARK    1  A    between atoms: C_2  and  C_3 
REMARK    2  A    between atoms: C_2  and  N_10 
REMARK    3  A    between atoms: C_3  and  N_4 
REMARK       I    between atoms: N_10  and  C_11 
REMARK    4  A    between atoms: C_11  and  C_13 
REMARK    5  A    between atoms: C_13  and  C_14 
ROOT
HETATM    1  N   UNL     1     -39.915 -50.706  11.874  1.00  0.00    -0.355 N 
HETATM    2  C   UNL     1     -40.333 -51.903  12.408  1.00  0.00     0.222 C 
HETATM    3  O   UNL     1     -39.680 -52.578  13.199  1.00  0.00    -0.273 OA
HETATM    4  H   UNL     1     -40.465 -50.294  11.124  1.00  0.00     0.162 HD
ENDROOT
BRANCH   2   5
HETATM    5  C   UNL     1     -41.725 -52.347  11.989  1.00  0.00     0.149 C 
BRANCH   5   6
HETATM    6  C   UNL     1     -42.712 -52.092  13.085  1.00  0.00     0.041 A 
HETATM    7  C   UNL     1     -43.158 -52.957  14.020  1.00  0.00     0.018 A 
HETATM    8  C   UNL     1     -42.693 -54.389  14.149  1.00  0.00     0.069 C 
HETATM    9  N   UNL     1     -44.088 -52.632  14.985  1.00  0.00    -0.349 N 
HETATM   10  C   UNL     1     -44.571 -51.435  14.987  1.00  0.00     0.080 A 
ATOM     11  HN  UNL     1     -44.385 -53.319  15.679  1.00  0.00     0.167 HD
HETATM   12  C   UNL     1     -45.590 -51.014  16.000  1.00  0.00     0.089 C 
HETATM   13  N   UNL     1     -44.203 -50.484  14.085  1.00  0.00    -0.313 N 
HETATM   14  C   UNL     1     -43.254 -50.713  13.141  1.00  0.00     0.255 A 
HETATM   15  H   UNL     1     -44.576 -49.547  14.129  1.00  0.00     0.170 HD
HETATM   16  O   UNL     1     -42.872 -49.822  12.390  1.00  0.00    -0.268 OA
ENDBRANCH   5   6
ENDBRANCH   2   5
BRANCH   1  17
HETATM   17  C   UNL     1     -38.678 -49.989  12.208  1.00  0.00     0.108 C 
HETATM   18  C   UNL     1     -37.410 -50.511  11.522  1.00  0.00     0.034 C 
BRANCH  17  19
HETATM   19  C   UNL     1     -38.821 -48.464  11.943  1.00  0.00     0.296 C 
BRANCH  19  20
HETATM   20  N   UNL     1     -40.123 -47.843  12.286  1.00  0.00     0.090 N 
HETATM   21  C   UNL     1     -40.691 -47.141  11.117  1.00  0.00     0.272 C 
HETATM   22  C   UNL     1     -39.952 -45.850  10.741  1.00  0.00     0.030 C 
HETATM   23  C   UNL     1     -39.805 -44.901  11.926  1.00  0.00     0.003 C 
HETATM   24  C   UNL     1     -39.357 -45.615  13.199  1.00  0.00     0.030 C 
HETATM   25  C   UNL     1     -40.106 -46.927  13.434  1.00  0.00     0.272 C 
ENDBRANCH  19  20
ENDBRANCH  17  19
ENDBRANCH   1  17
TORSDOF 5
ENDMDL
MODEL 9
REMARK VINA RESULT:      -5.3      2.436      4.346
REMARK  5 active torsions:
REMARK  status: ('A' for Active; 'I' for Inactive)
REMARK    1  A    between atoms: C_2  and  C_3 
REMARK    2  A    between atoms: C_2  and  N_10 
REMARK    3  A    between atoms: C_3  and  N_4 
REMARK       I    between atoms: N_10  and  C_11 
REMARK    4  A    between atoms: C_11  and  C_13 
REMARK    5  A    between atoms: C_13  and  C_14 
ROOT
HETATM    1  N   UNL     1     -43.398 -49.542  13.446  1.00  0.00    -0.355 N 
HETATM    2  C   UNL     1     -42.884 -48.451  14.109  1.00  0.00     0.222 C 
HETATM    3  O   UNL     1     -43.010 -48.246  15.313  1.00  0.00    -0.273 OA
HETATM    4  H   UNL     1     -43.360 -49.551  12.430  1.00  0.00     0.162 HD
ENDROOT
BRANCH   2   5
HETATM    5  C   UNL     1     -42.078 -47.493  13.248  1.00  0.00     0.149 C 
BRANCH   5   6
HETATM    6  C   UNL     1     -40.803 -48.135  12.798  1.00  0.00     0.041 A 
HETATM    7  C   UNL     1     -39.645 -48.252  13.481  1.00  0.00     0.018 A 
HETATM    8  C   UNL     1     -39.435 -47.763  14.895  1.00  0.00     0.069 C 
HETATM    9  N   UNL     1     -38.511 -48.850  12.972  1.00  0.00    -0.349 N 
HETATM   10  C   UNL     1     -38.554 -49.311  11.767  1.00  0.00     0.080 A 
ATOM     11  HN  UNL     1     -37.661 -48.924  13.532  1.00  0.00     0.167 HD
HETATM   12  C   UNL     1     -37.358 -49.964  11.145  1.00  0.00     0.089 C 
HETATM   13  N   UNL     1     -39.664 -49.237  10.983  1.00  0.00    -0.313 N 
HETATM   14  C   UNL     1     -40.833 -48.713  11.433  1.00  0.00     0.255 A 
HETATM   15  H   UNL     1     -39.677 -49.632  10.054  1.00  0.00     0.170 HD
HETATM   16  O   UNL     1     -41.848 -48.730  10.745  1.00  0.00    -0.268 OA
ENDBRANCH   5   6
ENDBRANCH   2   5
BRANCH   1  17
HETATM   17  C   UNL     1     -44.101 -50.678  14.054  1.00  0.00     0.108 C 
HETATM   18  C   UNL     1     -45.348 -51.160  13.302  1.00  0.00     0.034 C 
BRANCH  17  19
HETATM   19  C   UNL     1     -43.141 -51.877  14.288  1.00  0.00     0.296 C 
BRANCH  19  20
HETATM   20  N   UNL     1     -42.828 -52.725  13.113  1.00  0.00     0.090 N 
HETATM   21  C   UNL     1     -42.601 -54.126  13.524  1.00  0.00     0.272 C 
HETATM   22  C   UNL     1     -41.286 -54.351  14.283  1.00  0.00     0.030 C 
HETATM   23  C   UNL     1     -40.080 -53.805  13.526  1.00  0.00     0.003 C 
HETATM   24  C   UNL     1     -40.326 -52.409  12.957  1.00  0.00     0.030 C 
HETATM   25  C   UNL     1     -41.696 -52.276  12.291  1.00  0.00     0.272 C 
ENDBRANCH  19  20
ENDBRANCH  17  19
ENDBRANCH   1  17
TORSDOF 5
ENDMDL
