MODEL 1
REMARK VINA RESULT:      -5.9      0.000      0.000
REMARK  6 active torsions:
REMARK  status: ('A' for Active; 'I' for Inactive)
REMARK    1  A    between atoms: C_2  and  C_3 
REMARK    2  A    between atoms: C_2  and  N_10 
REMARK    3  A    between atoms: C_3  and  N_4 
REMARK    4  A    between atoms: N_10  and  C_11 
REMARK    5  A    between atoms: C_11  and  C_12 
REMARK       I    between atoms: C_12  and  N_14 
REMARK    6  A    between atoms: N_14  and  C_15 
ROOT
HETATM    1  N   UNL     1     -43.695 -47.339  11.250  1.00  0.00     0.098 N 
HETATM    2  H   UNL     1     -44.496 -47.762  10.770  1.00  0.00     0.317 HD
ENDROOT
BRANCH   1   3
HETATM    3  C   UNL     1     -43.123 -46.312  10.343  1.00  0.00     0.236 C 
HETATM    4  C   UNL     1     -41.602 -46.525  10.382  1.00  0.00     0.044 C 
BRANCH   3   5
HETATM    5  C   UNL     1     -43.660 -46.403   8.898  1.00  0.00     0.183 C 
BRANCH   5   6
HETATM    6  N   UNL     1     -44.920 -47.112   8.777  1.00  0.00    -0.302 N 
HETATM    7  C   UNL     1     -46.130 -46.719   9.273  1.00  0.00     0.111 A 
HETATM    8  C   UNL     1     -47.035 -47.675   8.875  1.00  0.00     0.037 A 
HETATM    9  C   UNL     1     -46.273 -48.602   8.141  1.00  0.00     0.108 A 
HETATM   10  N   UNL     1     -44.983 -48.260   8.074  1.00  0.00    -0.310 N 
ATOM     11  HN  UNL     1     -44.224 -48.751   7.601  1.00  0.00     0.186 HD
ENDBRANCH   5   6
ENDBRANCH   3   5
ENDBRANCH   1   3
BRANCH   1  12
HETATM   12  C   UNL     1     -42.751 -48.442  11.552  1.00  0.00     0.372 C 
BRANCH  12  13
HETATM   13  C   UNL     1     -43.163 -49.111  12.875  1.00  0.00     0.246 C 
HETATM   14  O   UNL     1     -42.995 -48.587  13.969  1.00  0.00    -0.272 OA
HETATM   15  N   UNL     1     -43.813 -50.311  12.673  1.00  0.00    -0.355 N 
HETATM   16  H   UNL     1     -43.717 -50.669  11.727  1.00  0.00     0.162 HD
BRANCH  15  17
HETATM   17  C   UNL     1     -44.352 -51.164  13.726  1.00  0.00     0.088 C 
HETATM   18  C   UNL     1     -43.693 -52.547  13.661  1.00  0.00     0.051 C 
HETATM   19  C   UNL     1     -44.167 -53.312  12.428  1.00  0.00     0.169 C 
HETATM   20  O   UNL     1     -45.590 -53.418  12.406  1.00  0.00    -0.391 OA
HETATM   21  C   UNL     1     -46.230 -52.141  12.380  1.00  0.00     0.169 C 
HETATM   22  C   UNL     1     -45.871 -51.340  13.622  1.00  0.00     0.051 C 
ENDBRANCH  15  17
ENDBRANCH  12  13
ENDBRANCH   1  12
TORSDOF 6
ENDMDL
MODEL 2
REMARK VINA RESULT:      -5.7      2.301      6.774
REMARK  6 active torsions:
REMARK  status: ('A' for Active; 'I' for Inactive)
REMARK    1  A    between atoms: C_2  and  C_3 
REMARK    2  A    between atoms: C_2  and  N_10 
REMARK    3  A    between atoms: C_3  and  N_4 
REMARK    4  A    between atoms: N_10  and  C_11 
REMARK    5  A    between atoms: C_11  and  C_12 
REMARK       I    between atoms: C_12  and  N_14 
REMARK    6  A    between atoms: N_14  and  C_15 
ROOT
HETATM    1  N   UNL     1     -44.564 -50.483  12.607  1.00  0.00     0.098 N 
HETATM    2  H   UNL     1     -45.384 -49.870  12.660  1.00  0.00     0.317 HD
ENDROOT
BRANCH   1   3
HETATM    3  C   UNL     1     -44.894 -51.734  13.334  1.00  0.00     0.236 C 
HETATM    4  C   UNL     1     -46.421 -51.725  13.502  1.00  0.00     0.044 C 
BRANCH   3   5
HETATM    5  C   UNL     1     -44.423 -53.010  12.604  1.00  0.00     0.183 C 
BRANCH   5   6
HETATM    6  N   UNL     1     -43.031 -53.348  12.841  1.00  0.00    -0.302 N 
HETATM    7  C   UNL     1     -42.539 -54.119  13.855  1.00  0.00     0.111 A 
HETATM    8  C   UNL     1     -41.182 -54.201  13.646  1.00  0.00     0.037 A 
HETATM    9  C   UNL     1     -40.954 -53.450  12.479  1.00  0.00     0.108 A 
HETATM   10  N   UNL     1     -42.082 -52.932  11.981  1.00  0.00    -0.310 N 
ATOM     11  HN  UNL     1     -42.196 -52.357  11.145  1.00  0.00     0.186 HD
ENDBRANCH   5   6
ENDBRANCH   3   5
ENDBRANCH   1   3
BRANCH   1  12
HETATM   12  C   UNL     1     -43.438 -49.734  13.215  1.00  0.00     0.372 C 
BRANCH  12  13
HETATM   13  C   UNL     1     -42.423 -49.369  12.119  1.00  0.00     0.246 C 
HETATM   14  O   UNL     1     -41.330 -49.911  12.013  1.00  0.00    -0.272 OA
HETATM   15  N   UNL     1     -42.922 -48.436  11.233  1.00  0.00    -0.355 N 
HETATM   16  H   UNL     1     -43.767 -47.977  11.564  1.00  0.00     0.162 HD
BRANCH  15  17
HETATM   17  C   UNL     1     -42.213 -47.915  10.070  1.00  0.00     0.088 C 
HETATM   18  C   UNL     1     -41.489 -46.616  10.445  1.00  0.00     0.051 C 
HETATM   19  C   UNL     1     -42.489 -45.488  10.677  1.00  0.00     0.169 C 
HETATM   20  O   UNL     1     -43.324 -45.300   9.535  1.00  0.00    -0.391 OA
HETATM   21  C   UNL     1     -44.078 -46.471   9.214  1.00  0.00     0.169 C 
HETATM   22  C   UNL     1     -43.148 -47.631   8.889  1.00  0.00     0.051 C 
ENDBRANCH  15  17
ENDBRANCH  12  13
ENDBRANCH   1  12
TORSDOF 6
ENDMDL
MODEL 3
REMARK VINA RESULT:      -5.6      2.354      3.280
REMARK  6 active torsions:
REMARK  status: ('A' for Active; 'I' for Inactive)
REMARK    1  A    between atoms: C_2  and  C_3 
REMARK    2  A    between atoms: C_2  and  N_10 
REMARK    3  A    between atoms: C_3  and  N_4 
REMARK    4  A    between atoms: N_10  and  C_11 
REMARK    5  A    between atoms: C_11  and  C_12 
REMARK       I    between atoms: C_12  and  N_14 
REMARK    6  A    between atoms: N_14  and  C_15 
ROOT
HETATM    1  N   UNL     1     -42.304 -50.126  11.690  1.00  0.00     0.098 N 
HETATM    2  H   UNL     1     -41.577 -50.788  11.401  1.00  0.00     0.317 HD
ENDROOT
BRANCH   1   3
HETATM    3  C   UNL     1     -41.654 -48.805  11.880  1.00  0.00     0.236 C 
HETATM    4  C   UNL     1     -40.287 -49.104  12.515  1.00  0.00     0.044 C 
BRANCH   3   5
HETATM    5  C   UNL     1     -41.495 -48.004  10.570  1.00  0.00     0.183 C 
BRANCH   5   6
HETATM    6  N   UNL     1     -42.733 -47.816   9.836  1.00  0.00    -0.302 N 
HETATM    7  C   UNL     1     -43.926 -47.389  10.344  1.00  0.00     0.111 A 
HETATM    8  C   UNL     1     -44.791 -47.318   9.277  1.00  0.00     0.037 A 
HETATM    9  C   UNL     1     -44.024 -47.721   8.169  1.00  0.00     0.108 A 
HETATM   10  N   UNL     1     -42.765 -48.020   8.505  1.00  0.00    -0.310 N 
ATOM     11  HN  UNL     1     -42.007 -48.329   7.896  1.00  0.00     0.186 HD
ENDBRANCH   5   6
ENDBRANCH   3   5
ENDBRANCH   1   3
BRANCH   1  12
HETATM   12  C   UNL     1     -42.900 -50.668  12.935  1.00  0.00     0.372 C 
BRANCH  12  13
HETATM   13  C   UNL     1     -42.709 -52.194  12.963  1.00  0.00     0.246 C 
HETATM   14  O   UNL     1     -41.679 -52.745  12.597  1.00  0.00    -0.272 OA
HETATM   15  N   UNL     1     -43.788 -52.846  13.524  1.00  0.00    -0.355 N 
HETATM   16  H   UNL     1     -44.612 -52.258  13.616  1.00  0.00     0.162 HD
BRANCH  15  17
HETATM   17  C   UNL     1     -43.892 -54.287  13.721  1.00  0.00     0.088 C 
HETATM   18  C   UNL     1     -45.364 -54.713  13.659  1.00  0.00     0.051 C 
HETATM   19  C   UNL     1     -46.120 -54.220  14.890  1.00  0.00     0.169 C 
HETATM   20  O   UNL     1     -45.501 -54.680  16.090  1.00  0.00    -0.391 OA
HETATM   21  C   UNL     1     -44.152 -54.225  16.216  1.00  0.00     0.169 C 
HETATM   22  C   UNL     1     -43.306 -54.743  15.062  1.00  0.00     0.051 C 
ENDBRANCH  15  17
ENDBRANCH  12  13
ENDBRANCH   1  12
TORSDOF 6
ENDMDL
MODEL 4
REMARK VINA RESULT:      -5.5      1.682      3.467
REMARK  6 active torsions:
REMARK  status: ('A' for Active; 'I' for Inactive)
REMARK    1  A    between atoms: C_2  and  C_3 
REMARK    2  A    between atoms: C_2  and  N_10 
REMARK    3  A    between atoms: C_3  and  N_4 
REMARK    4  A    between atoms: N_10  and  C_11 
REMARK    5  A    between atoms: C_11  and  C_12 
REMARK       I    between atoms: C_12  and  N_14 
REMARK    6  A    between atoms: N_14  and  C_15 
ROOT
HETATM    1  N   UNL     1     -43.187 -48.543  10.835  1.00  0.00     0.098 N 
HETATM    2  H   UNL     1     -43.558 -49.331  10.294  1.00  0.00     0.317 HD
ENDROOT
BRANCH   1   3
HETATM    3  C   UNL     1     -42.829 -47.471   9.873  1.00  0.00     0.236 C 
HETATM    4  C   UNL     1     -43.813 -47.619   8.702  1.00  0.00     0.044 C 
BRANCH   3   5
HETATM    5  C   UNL     1     -42.897 -46.053  10.480  1.00  0.00     0.183 C 
BRANCH   5   6
HETATM    6  N   UNL     1     -41.615 -45.377  10.550  1.00  0.00    -0.302 N 
HETATM    7  C   UNL     1     -41.345 -44.203  11.195  1.00  0.00     0.111 A 
HETATM    8  C   UNL     1     -39.998 -43.979  11.030  1.00  0.00     0.037 A 
HETATM    9  C   UNL     1     -39.544 -45.076  10.275  1.00  0.00     0.108 A 
HETATM   10  N   UNL     1     -40.527 -45.934   9.985  1.00  0.00    -0.310 N 
ATOM     11  HN  UNL     1     -40.467 -46.807   9.459  1.00  0.00     0.186 HD
ENDBRANCH   5   6
ENDBRANCH   3   5
ENDBRANCH   1   3
BRANCH   1  12
HETATM   12  C   UNL     1     -42.023 -49.062  11.592  1.00  0.00     0.372 C 
BRANCH  12  13
HETATM   13  C   UNL     1     -42.518 -49.730  12.886  1.00  0.00     0.246 C 
HETATM   14  O   UNL     1     -42.015 -49.518  13.982  1.00  0.00    -0.272 OA
HETATM   15  N   UNL     1     -43.634 -50.514  12.676  1.00  0.00    -0.355 N 
HETATM   16  H   UNL     1     -43.812 -50.708  11.694  1.00  0.00     0.162 HD
BRANCH  15  17
HETATM   17  C   UNL     1     -44.354 -51.249  13.709  1.00  0.00     0.088 C 
HETATM   18  C   UNL     1     -43.799 -52.675  13.811  1.00  0.00     0.051 C 
HETATM   19  C   UNL     1     -44.187 -53.493  12.582  1.00  0.00     0.169 C 
HETATM   20  O   UNL     1     -45.601 -53.503  12.397  1.00  0.00    -0.391 OA
HETATM   21  C   UNL     1     -46.135 -52.190  12.213  1.00  0.00     0.169 C 
HETATM   22  C   UNL     1     -45.860 -51.327  13.436  1.00  0.00     0.051 C 
ENDBRANCH  15  17
ENDBRANCH  12  13
ENDBRANCH   1  12
TORSDOF 6
ENDMDL
MODEL 5
REMARK VINA RESULT:      -5.5      2.301      5.698
REMARK  6 active torsions:
REMARK  status: ('A' for Active; 'I' for Inactive)
REMARK    1  A    between atoms: C_2  and  C_3 
REMARK    2  A    between atoms: C_2  and  N_10 
REMARK    3  A    between atoms: C_3  and  N_4 
REMARK    4  A    between atoms: N_10  and  C_11 
REMARK    5  A    between atoms: C_11  and  C_12 
REMARK       I    between atoms: C_12  and  N_14 
REMARK    6  A    between atoms: N_14  and  C_15 
ROOT
HETATM    1  N   UNL     1     -43.244 -49.291  12.080  1.00  0.00     0.098 N 
HETATM    2  H   UNL     1     -44.177 -49.461  12.469  1.00  0.00     0.317 HD
ENDROOT
BRANCH   1   3
HETATM    3  C   UNL     1     -42.372 -50.413  12.508  1.00  0.00     0.236 C 
HETATM    4  C   UNL     1     -41.047 -49.768  12.940  1.00  0.00     0.044 C 
BRANCH   3   5
HETATM    5  C   UNL     1     -42.976 -51.260  13.649  1.00  0.00     0.183 C 
BRANCH   5   6
HETATM    6  N   UNL     1     -44.378 -51.587  13.465  1.00  0.00    -0.302 N 
HETATM    7  C   UNL     1     -45.422 -51.175  14.243  1.00  0.00     0.111 A 
HETATM    8  C   UNL     1     -46.557 -51.690  13.661  1.00  0.00     0.037 A 
HETATM    9  C   UNL     1     -46.093 -52.395  12.536  1.00  0.00     0.108 A 
HETATM   10  N   UNL     1     -44.764 -52.330  12.409  1.00  0.00    -0.310 N 
ATOM     11  HN  UNL     1     -44.179 -52.744  11.683  1.00  0.00     0.186 HD
ENDBRANCH   5   6
ENDBRANCH   3   5
ENDBRANCH   1   3
BRANCH   1  12
HETATM   12  C   UNL     1     -42.801 -47.975  12.603  1.00  0.00     0.372 C 
BRANCH  12  13
HETATM   13  C   UNL     1     -43.050 -46.897  11.536  1.00  0.00     0.246 C 
HETATM   14  O   UNL     1     -42.418 -45.849  11.485  1.00  0.00    -0.272 OA
HETATM   15  N   UNL     1     -43.992 -47.288  10.606  1.00  0.00    -0.355 N 
HETATM   16  H   UNL     1     -44.528 -48.103  10.893  1.00  0.00     0.162 HD
BRANCH  15  17
HETATM   17  C   UNL     1     -44.419 -46.500   9.457  1.00  0.00     0.088 C 
HETATM   18  C   UNL     1     -45.839 -46.910   9.046  1.00  0.00     0.051 C 
HETATM   19  C   UNL     1     -45.840 -48.305   8.428  1.00  0.00     0.169 C 
HETATM   20  O   UNL     1     -44.943 -48.377   7.321  1.00  0.00    -0.391 OA
HETATM   21  C   UNL     1     -43.595 -48.083   7.693  1.00  0.00     0.169 C 
HETATM   22  C   UNL     1     -43.491 -46.670   8.248  1.00  0.00     0.051 C 
ENDBRANCH  15  17
ENDBRANCH  12  13
ENDBRANCH   1  12
TORSDOF 6
ENDMDL
MODEL 6
REMARK VINA RESULT:      -5.4      3.516      5.478
REMARK  6 active torsions:
REMARK  status: ('A' for Active; 'I' for Inactive)
REMARK    1  A    between atoms: C_2  and  C_3 
REMARK    2  A    between atoms: C_2  and  N_10 
REMARK    3  A    between atoms: C_3  and  N_4 
REMARK    4  A    between atoms: N_10  and  C_11 
REMARK    5  A    between atoms: C_11  and  C_12 
REMARK       I    between atoms: C_12  and  N_14 
REMARK    6  A    between atoms: N_14  and  C_15 
ROOT
HETATM    1  N   UNL     1     -42.355 -49.504  11.435  1.00  0.00     0.098 N 
HETATM    2  H   UNL     1     -42.515 -50.221  10.719  1.00  0.00     0.317 HD
ENDROOT
BRANCH   1   3
HETATM    3  C   UNL     1     -41.101 -48.793  11.080  1.00  0.00     0.236 C 
HETATM    4  C   UNL     1     -41.540 -47.418  10.554  1.00  0.00     0.044 C 
BRANCH   3   5
HETATM    5  C   UNL     1     -40.121 -48.649  12.264  1.00  0.00     0.183 C 
BRANCH   5   6
HETATM    6  N   UNL     1     -38.942 -49.489  12.163  1.00  0.00    -0.302 N 
HETATM    7  C   UNL     1     -38.351 -50.193  13.173  1.00  0.00     0.111 A 
HETATM    8  C   UNL     1     -37.302 -50.874  12.600  1.00  0.00     0.037 A 
HETATM    9  C   UNL     1     -37.346 -50.517  11.241  1.00  0.00     0.108 A 
HETATM   10  N   UNL     1     -38.349 -49.677  10.968  1.00  0.00    -0.310 N 
ATOM     11  HN  UNL     1     -38.605 -49.273  10.067  1.00  0.00     0.186 HD
ENDBRANCH   5   6
ENDBRANCH   3   5
ENDBRANCH   1   3
BRANCH   1  12
HETATM   12  C   UNL     1     -42.276 -50.215  12.734  1.00  0.00     0.372 C 
BRANCH  12  13
HETATM   13  C   UNL     1     -42.140 -51.725  12.477  1.00  0.00     0.246 C 
HETATM   14  O   UNL     1     -41.234 -52.210  11.811  1.00  0.00    -0.272 OA
HETATM   15  N   UNL     1     -43.094 -52.459  13.152  1.00  0.00    -0.355 N 
HETATM   16  H   UNL     1     -43.856 -51.893  13.515  1.00  0.00     0.162 HD
BRANCH  15  17
HETATM   17  C   UNL     1     -43.205 -53.913  13.136  1.00  0.00     0.088 C 
HETATM   18  C   UNL     1     -44.684 -54.319  13.114  1.00  0.00     0.051 C 
HETATM   19  C   UNL     1     -45.346 -54.015  14.454  1.00  0.00     0.169 C 
HETATM   20  O   UNL     1     -44.653 -54.653  15.525  1.00  0.00    -0.391 OA
HETATM   21  C   UNL     1     -43.292 -54.228  15.623  1.00  0.00     0.169 C 
HETATM   22  C   UNL     1     -42.535 -54.568  14.349  1.00  0.00     0.051 C 
ENDBRANCH  15  17
ENDBRANCH  12  13
ENDBRANCH   1  12
TORSDOF 6
ENDMDL
MODEL 7
REMARK VINA RESULT:      -5.4      3.822      5.681
REMARK  6 active torsions:
REMARK  status: ('A' for Active; 'I' for Inactive)
REMARK    1  A    between atoms: C_2  and  C_3 
REMARK    2  A    between atoms: C_2  and  N_10 
REMARK    3  A    between atoms: C_3  and  N_4 
REMARK    4  A    between atoms: N_10  and  C_11 
REMARK    5  A    between atoms: C_11  and  C_12 
REMARK       I    between atoms: C_12  and  N_14 
REMARK    6  A    between atoms: N_14  and  C_15 
ROOT
HETATM    1  N   UNL     1     -41.839 -52.939  14.606  1.00  0.00     0.098 N 
HETATM    2  H   UNL     1     -42.690 -52.627  14.128  1.00  0.00     0.317 HD
ENDROOT
BRANCH   1   3
HETATM    3  C   UNL     1     -40.714 -52.805  13.647  1.00  0.00     0.236 C 
HETATM    4  C   UNL     1     -39.941 -54.130  13.725  1.00  0.00     0.044 C 
BRANCH   3   5
HETATM    5  C   UNL     1     -41.171 -52.512  12.202  1.00  0.00     0.183 C 
BRANCH   5   6
HETATM    6  N   UNL     1     -41.332 -51.100  11.906  1.00  0.00    -0.302 N 
HETATM    7  C   UNL     1     -42.245 -50.249  12.460  1.00  0.00     0.111 A 
HETATM    8  C   UNL     1     -41.992 -49.012  11.914  1.00  0.00     0.037 A 
HETATM    9  C   UNL     1     -40.907 -49.221  11.044  1.00  0.00     0.108 A 
HETATM   10  N   UNL     1     -40.497 -50.494  11.041  1.00  0.00    -0.310 N 
ATOM     11  HN  UNL     1     -39.731 -50.908  10.508  1.00  0.00     0.186 HD
ENDBRANCH   5   6
ENDBRANCH   3   5
ENDBRANCH   1   3
BRANCH   1  12
HETATM   12  C   UNL     1     -42.081 -54.339  15.030  1.00  0.00     0.372 C 
BRANCH  12  13
HETATM   13  C   UNL     1     -43.502 -54.755  14.613  1.00  0.00     0.246 C 
HETATM   14  O   UNL     1     -43.965 -55.867  14.836  1.00  0.00    -0.272 OA
HETATM   15  N   UNL     1     -44.208 -53.712  14.050  1.00  0.00    -0.355 N 
HETATM   16  H   UNL     1     -43.623 -52.921  13.792  1.00  0.00     0.162 HD
BRANCH  15  17
HETATM   17  C   UNL     1     -45.588 -53.783  13.585  1.00  0.00     0.088 C 
HETATM   18  C   UNL     1     -45.846 -52.674  12.557  1.00  0.00     0.051 C 
HETATM   19  C   UNL     1     -45.861 -51.306  13.233  1.00  0.00     0.169 C 
HETATM   20  O   UNL     1     -46.822 -51.265  14.286  1.00  0.00    -0.391 OA
HETATM   21  C   UNL     1     -46.556 -52.232  15.304  1.00  0.00     0.169 C 
HETATM   22  C   UNL     1     -46.602 -53.639  14.726  1.00  0.00     0.051 C 
ENDBRANCH  15  17
ENDBRANCH  12  13
ENDBRANCH   1  12
TORSDOF 6
ENDMDL
MODEL 8
REMARK VINA RESULT:      -5.3      3.190      4.608
REMARK  6 active torsions:
REMARK  status: ('A' for Active; 'I' for Inactive)
REMARK    1  A    between atoms: C_2  and  C_3 
REMARK    2  A    between atoms: C_2  and  N_10 
REMARK    3  A    between atoms: C_3  and  N_4 
REMARK    4  A    between atoms: N_10  and  C_11 
REMARK    5  A    between atoms: C_11  and  C_12 
REMARK       I    between atoms: C_12  and  N_14 
REMARK    6  A    between atoms: N_14  and  C_15 
ROOT
HETATM    1  N   UNL     1     -41.784 -49.900  11.350  1.00  0.00     0.098 N 
HETATM    2  H   UNL     1     -42.020 -50.316  10.442  1.00  0.00     0.317 HD
ENDROOT
BRANCH   1   3
HETATM    3  C   UNL     1     -41.598 -48.443  11.137  1.00  0.00     0.236 C 
HETATM    4  C   UNL     1     -42.810 -47.769  11.799  1.00  0.00     0.044 C 
BRANCH   3   5
HETATM    5  C   UNL     1     -40.274 -47.901  11.719  1.00  0.00     0.183 C 
BRANCH   5   6
HETATM    6  N   UNL     1     -40.054 -46.488  11.474  1.00  0.00    -0.302 N 
HETATM    7  C   UNL     1     -39.857 -45.517  12.414  1.00  0.00     0.111 A 
HETATM    8  C   UNL     1     -39.645 -44.350  11.718  1.00  0.00     0.037 A 
HETATM    9  C   UNL     1     -39.730 -44.722  10.364  1.00  0.00     0.108 A 
HETATM   10  N   UNL     1     -39.974 -46.027  10.210  1.00  0.00    -0.310 N 
ATOM     11  HN  UNL     1     -40.075 -46.552   9.341  1.00  0.00     0.186 HD
ENDBRANCH   5   6
ENDBRANCH   3   5
ENDBRANCH   1   3
BRANCH   1  12
HETATM   12  C   UNL     1     -40.555 -50.583  11.820  1.00  0.00     0.372 C 
BRANCH  12  13
HETATM   13  C   UNL     1     -40.907 -52.017  12.251  1.00  0.00     0.246 C 
HETATM   14  O   UNL     1     -40.062 -52.878  12.461  1.00  0.00    -0.272 OA
HETATM   15  N   UNL     1     -42.262 -52.185  12.453  1.00  0.00    -0.355 N 
HETATM   16  H   UNL     1     -42.823 -51.427  12.075  1.00  0.00     0.162 HD
BRANCH  15  17
HETATM   17  C   UNL     1     -42.900 -53.418  12.896  1.00  0.00     0.088 C 
HETATM   18  C   UNL     1     -44.363 -53.439  12.434  1.00  0.00     0.051 C 
HETATM   19  C   UNL     1     -45.188 -52.416  13.210  1.00  0.00     0.169 C 
HETATM   20  O   UNL     1     -45.090 -52.639  14.616  1.00  0.00    -0.391 OA
HETATM   21  C   UNL     1     -43.745 -52.541  15.090  1.00  0.00     0.169 C 
HETATM   22  C   UNL     1     -42.866 -53.586  14.419  1.00  0.00     0.051 C 
ENDBRANCH  15  17
ENDBRANCH  12  13
ENDBRANCH   1  12
TORSDOF 6
ENDMDL
MODEL 9
REMARK VINA RESULT:      -5.2      4.770      7.151
REMARK  6 active torsions:
REMARK  status: ('A' for Active; 'I' for Inactive)
REMARK    1  A    between atoms: C_2  and  C_3 
REMARK    2  A    between atoms: C_2  and  N_10 
REMARK    3  A    between atoms: C_3  and  N_4 
REMARK    4  A    between atoms: N_10  and  C_11 
REMARK    5  A    between atoms: C_11  and  C_12 
REMARK       I    between atoms: C_12  and  N_14 
REMARK    6  A    between atoms: N_14  and  C_15 
ROOT
HETATM    1  N   UNL     1     -42.831 -52.929  13.608  1.00  0.00     0.098 N 
HETATM    2  H   UNL     1     -42.323 -52.763  14.483  1.00  0.00     0.317 HD
ENDROOT
BRANCH   1   3
HETATM    3  C   UNL     1     -43.298 -54.338  13.625  1.00  0.00     0.236 C 
HETATM    4  C   UNL     1     -43.005 -54.855  15.041  1.00  0.00     0.044 C 
BRANCH   3   5
HETATM    5  C   UNL     1     -44.794 -54.493  13.275  1.00  0.00     0.183 C 
BRANCH   5   6
HETATM    6  N   UNL     1     -45.551 -53.256  13.348  1.00  0.00    -0.302 N 
HETATM    7  C   UNL     1     -46.064 -52.678  14.474  1.00  0.00     0.111 A 
HETATM    8  C   UNL     1     -46.654 -51.505  14.065  1.00  0.00     0.037 A 
HETATM    9  C   UNL     1     -46.441 -51.465  12.675  1.00  0.00     0.108 A 
HETATM   10  N   UNL     1     -45.762 -52.529  12.234  1.00  0.00    -0.310 N 
ATOM     11  HN  UNL     1     -45.473 -52.740  11.279  1.00  0.00     0.186 HD
ENDBRANCH   5   6
ENDBRANCH   3   5
ENDBRANCH   1   3
BRANCH   1  12
HETATM   12  C   UNL     1     -41.881 -52.642  12.507  1.00  0.00     0.372 C 
BRANCH  12  13
HETATM   13  C   UNL     1     -40.442 -52.820  13.021  1.00  0.00     0.246 C 
HETATM   14  O   UNL     1     -39.924 -53.917  13.187  1.00  0.00    -0.272 OA
HETATM   15  N   UNL     1     -39.791 -51.615  13.182  1.00  0.00    -0.355 N 
HETATM   16  H   UNL     1     -40.415 -50.813  13.161  1.00  0.00     0.162 HD
BRANCH  15  17
HETATM   17  C   UNL     1     -38.410 -51.456  13.623  1.00  0.00     0.088 C 
HETATM   18  C   UNL     1     -38.358 -50.513  14.832  1.00  0.00     0.051 C 
HETATM   19  C   UNL     1     -38.671 -49.080  14.411  1.00  0.00     0.169 C 
HETATM   20  O   UNL     1     -37.787 -48.644  13.379  1.00  0.00    -0.391 OA
HETATM   21  C   UNL     1     -37.878 -49.455  12.206  1.00  0.00     0.169 C 
HETATM   22  C   UNL     1     -37.501 -50.894  12.524  1.00  0.00     0.051 C 
ENDBRANCH  15  17
ENDBRANCH  12  13
ENDBRANCH   1  12
TORSDOF 6
ENDMDL
