MODEL 1
REMARK VINA RESULT:      -6.0      0.000      0.000
REMARK  4 active torsions:
REMARK  status: ('A' for Active; 'I' for Inactive)
REMARK    1  A    between atoms: N_5  and  C_6 
REMARK    2  A    between atoms: C_6  and  C_7 
REMARK       I    between atoms: C_7  and  N_9 
REMARK    3  A    between atoms: N_9  and  C_10 
REMARK    4  A    between atoms: C_10  and  C_11 
ROOT
HETATM    1  C   UNL     1     -47.601 -51.538  16.816  1.00  0.00     0.050 C 
HETATM    2  C   UNL     1     -46.818 -52.126  15.669  1.00  0.00    -0.034 C 
HETATM    3  C   UNL     1     -46.793 -51.365  14.434  1.00  0.00     0.025 C 
HETATM    4  C   UNL     1     -46.050 -51.776  13.399  1.00  0.00     0.095 C 
HETATM    5  N   UNL     1     -45.337 -52.957  13.459  1.00  0.00    -0.315 N 
HETATM    6  C   UNL     1     -45.409 -53.812  14.556  1.00  0.00     0.269 C 
HETATM    7  O   UNL     1     -44.896 -54.930  14.556  1.00  0.00    -0.266 OA
HETATM    8  C   UNL     1     -46.138 -53.290  15.754  1.00  0.00     0.118 C 
HETATM    9  C   UNL     1     -46.027 -54.025  16.963  1.00  0.00     0.105 C 
HETATM   10  N   UNL     1     -45.926 -54.556  17.991  1.00  0.00    -0.191 NA
ENDROOT
BRANCH   5  11
HETATM   11  C   UNL     1     -44.487 -53.356  12.341  1.00  0.00     0.234 C 
BRANCH  11  12
HETATM   12  C   UNL     1     -43.018 -53.047  12.602  1.00  0.00     0.235 C 
HETATM   13  O   UNL     1     -42.582 -51.899  12.569  1.00  0.00    -0.272 OA
HETATM   14  N   UNL     1     -42.224 -54.153  12.838  1.00  0.00    -0.357 N 
HETATM   15  H   UNL     1     -42.539 -55.039  12.438  1.00  0.00     0.162 HD
BRANCH  14  16
HETATM   16  C   UNL     1     -40.792 -53.973  13.008  1.00  0.00     0.154 C 
BRANCH  16  17
HETATM   17  C   UNL     1     -40.349 -53.966  14.470  1.00  0.00     0.139 C 
HETATM   18  C   UNL     1     -38.986 -54.617  14.659  1.00  0.00     0.035 C 
HETATM   19  C   UNL     1     -39.122 -55.475  15.900  1.00  0.00     0.029 C 
HETATM   20  C   UNL     1     -40.517 -55.185  16.411  1.00  0.00     0.168 C 
HETATM   21  O   UNL     1     -41.260 -54.737  15.274  1.00  0.00    -0.384 OA
ENDBRANCH  16  17
ENDBRANCH  14  16
ENDBRANCH  11  12
ENDBRANCH   5  11
TORSDOF 4
ENDMDL
MODEL 2
REMARK VINA RESULT:      -6.0      2.306      3.811
REMARK  4 active torsions:
REMARK  status: ('A' for Active; 'I' for Inactive)
REMARK    1  A    between atoms: N_5  and  C_6 
REMARK    2  A    between atoms: C_6  and  C_7 
REMARK       I    between atoms: C_7  and  N_9 
REMARK    3  A    between atoms: N_9  and  C_10 
REMARK    4  A    between atoms: C_10  and  C_11 
ROOT
HETATM    1  C   UNL     1     -47.493 -51.530  16.607  1.00  0.00     0.050 C 
HETATM    2  C   UNL     1     -46.654 -52.214  15.558  1.00  0.00    -0.034 C 
HETATM    3  C   UNL     1     -46.497 -51.525  14.291  1.00  0.00     0.025 C 
HETATM    4  C   UNL     1     -45.699 -52.025  13.340  1.00  0.00     0.095 C 
HETATM    5  N   UNL     1     -45.049 -53.230  13.518  1.00  0.00    -0.315 N 
HETATM    6  C   UNL     1     -45.246 -54.020  14.649  1.00  0.00     0.269 C 
HETATM    7  O   UNL     1     -44.789 -55.157  14.747  1.00  0.00    -0.266 OA
HETATM    8  C   UNL     1     -46.039 -53.400  15.757  1.00  0.00     0.118 C 
HETATM    9  C   UNL     1     -46.055 -54.071  17.007  1.00  0.00     0.105 C 
HETATM   10  N   UNL     1     -46.059 -54.548  18.066  1.00  0.00    -0.191 NA
ENDROOT
BRANCH   5  11
HETATM   11  C   UNL     1     -44.137 -53.728  12.493  1.00  0.00     0.234 C 
BRANCH  11  12
HETATM   12  C   UNL     1     -42.720 -53.202  12.686  1.00  0.00     0.235 C 
HETATM   13  O   UNL     1     -42.012 -53.575  13.618  1.00  0.00    -0.272 OA
HETATM   14  N   UNL     1     -42.318 -52.259  11.759  1.00  0.00    -0.357 N 
HETATM   15  H   UNL     1     -43.055 -51.708  11.314  1.00  0.00     0.162 HD
BRANCH  14  16
HETATM   16  C   UNL     1     -41.017 -51.630  11.909  1.00  0.00     0.154 C 
BRANCH  16  17
HETATM   17  C   UNL     1     -41.092 -50.114  12.095  1.00  0.00     0.139 C 
HETATM   18  C   UNL     1     -42.513 -49.638  12.357  1.00  0.00     0.035 C 
HETATM   19  C   UNL     1     -42.677 -48.389  11.517  1.00  0.00     0.029 C 
HETATM   20  C   UNL     1     -41.312 -48.161  10.906  1.00  0.00     0.168 C 
HETATM   21  O   UNL     1     -40.674 -49.441  10.894  1.00  0.00    -0.384 OA
ENDBRANCH  16  17
ENDBRANCH  14  16
ENDBRANCH  11  12
ENDBRANCH   5  11
TORSDOF 4
ENDMDL
MODEL 3
REMARK VINA RESULT:      -5.8      3.899      6.172
REMARK  4 active torsions:
REMARK  status: ('A' for Active; 'I' for Inactive)
REMARK    1  A    between atoms: N_5  and  C_6 
REMARK    2  A    between atoms: C_6  and  C_7 
REMARK       I    between atoms: C_7  and  N_9 
REMARK    3  A    between atoms: N_9  and  C_10 
REMARK    4  A    between atoms: C_10  and  C_11 
ROOT
HETATM    1  C   UNL     1     -42.691 -55.695  16.187  1.00  0.00     0.050 C 
HETATM    2  C   UNL     1     -42.360 -54.808  15.014  1.00  0.00    -0.034 C 
HETATM    3  C   UNL     1     -40.976 -54.393  14.875  1.00  0.00     0.025 C 
HETATM    4  C   UNL     1     -40.586 -53.677  13.814  1.00  0.00     0.095 C 
HETATM    5  N   UNL     1     -41.495 -53.269  12.857  1.00  0.00    -0.315 N 
HETATM    6  C   UNL     1     -42.861 -53.510  12.981  1.00  0.00     0.269 C 
HETATM    7  O   UNL     1     -43.689 -53.024  12.212  1.00  0.00    -0.266 OA
HETATM    8  C   UNL     1     -43.273 -54.414  14.099  1.00  0.00     0.118 C 
HETATM    9  C   UNL     1     -44.616 -54.874  14.111  1.00  0.00     0.105 C 
HETATM   10  N   UNL     1     -45.686 -55.325  14.140  1.00  0.00    -0.191 NA
ENDROOT
BRANCH   5  11
HETATM   11  C   UNL     1     -41.037 -52.539  11.679  1.00  0.00     0.234 C 
BRANCH  11  12
HETATM   12  C   UNL     1     -40.902 -51.046  11.949  1.00  0.00     0.235 C 
HETATM   13  O   UNL     1     -39.853 -50.553  12.354  1.00  0.00    -0.272 OA
HETATM   14  N   UNL     1     -42.052 -50.309  11.737  1.00  0.00    -0.357 N 
HETATM   15  H   UNL     1     -42.940 -50.807  11.825  1.00  0.00     0.162 HD
BRANCH  14  16
HETATM   16  C   UNL     1     -42.053 -48.891  12.052  1.00  0.00     0.154 C 
BRANCH  16  17
HETATM   17  C   UNL     1     -41.818 -47.996  10.835  1.00  0.00     0.139 C 
HETATM   18  C   UNL     1     -40.699 -46.992  11.068  1.00  0.00     0.035 C 
HETATM   19  C   UNL     1     -41.208 -45.686  10.492  1.00  0.00     0.029 C 
HETATM   20  C   UNL     1     -42.541 -46.040   9.869  1.00  0.00     0.168 C 
HETATM   21  O   UNL     1     -42.992 -47.210  10.557  1.00  0.00    -0.384 OA
ENDBRANCH  16  17
ENDBRANCH  14  16
ENDBRANCH  11  12
ENDBRANCH   5  11
TORSDOF 4
ENDMDL
MODEL 4
REMARK VINA RESULT:      -5.6      3.462      4.906
REMARK  4 active torsions:
REMARK  status: ('A' for Active; 'I' for Inactive)
REMARK    1  A    between atoms: N_5  and  C_6 
REMARK    2  A    between atoms: C_6  and  C_7 
REMARK       I    between atoms: C_7  and  N_9 
REMARK    3  A    between atoms: N_9  and  C_10 
REMARK    4  A    between atoms: C_10  and  C_11 
ROOT
HETATM    1  C   UNL     1     -42.644 -55.695  16.104  1.00  0.00     0.050 C 
HETATM    2  C   UNL     1     -42.378 -54.779  14.937  1.00  0.00    -0.034 C 
HETATM    3  C   UNL     1     -41.010 -54.328  14.755  1.00  0.00     0.025 C 
HETATM    4  C   UNL     1     -40.677 -53.583  13.695  1.00  0.00     0.095 C 
HETATM    5  N   UNL     1     -41.629 -53.180  12.781  1.00  0.00    -0.315 N 
HETATM    6  C   UNL     1     -42.984 -53.457  12.949  1.00  0.00     0.269 C 
HETATM    7  O   UNL     1     -43.851 -52.977  12.220  1.00  0.00    -0.266 OA
HETATM    8  C   UNL     1     -43.333 -54.391  14.064  1.00  0.00     0.118 C 
HETATM    9  C   UNL     1     -44.663 -54.884  14.116  1.00  0.00     0.105 C 
HETATM   10  N   UNL     1     -45.720 -55.361  14.175  1.00  0.00    -0.191 NA
ENDROOT
BRANCH   5  11
HETATM   11  C   UNL     1     -41.233 -52.417  11.600  1.00  0.00     0.234 C 
BRANCH  11  12
HETATM   12  C   UNL     1     -40.824 -50.993  11.952  1.00  0.00     0.235 C 
HETATM   13  O   UNL     1     -41.605 -50.205  12.479  1.00  0.00    -0.272 OA
HETATM   14  N   UNL     1     -39.530 -50.655  11.600  1.00  0.00    -0.357 N 
HETATM   15  H   UNL     1     -39.115 -51.172  10.822  1.00  0.00     0.162 HD
BRANCH  14  16
HETATM   16  C   UNL     1     -39.073 -49.292  11.810  1.00  0.00     0.154 C 
BRANCH  16  17
HETATM   17  C   UNL     1     -37.870 -49.192  12.748  1.00  0.00     0.139 C 
HETATM   18  C   UNL     1     -37.555 -50.520  13.420  1.00  0.00     0.035 C 
HETATM   19  C   UNL     1     -37.257 -50.176  14.865  1.00  0.00     0.029 C 
HETATM   20  C   UNL     1     -37.313 -48.665  14.914  1.00  0.00     0.168 C 
HETATM   21  O   UNL     1     -38.147 -48.272  13.820  1.00  0.00    -0.384 OA
ENDBRANCH  16  17
ENDBRANCH  14  16
ENDBRANCH  11  12
ENDBRANCH   5  11
TORSDOF 4
ENDMDL
MODEL 5
REMARK VINA RESULT:      -5.5      7.313      8.775
REMARK  4 active torsions:
REMARK  status: ('A' for Active; 'I' for Inactive)
REMARK    1  A    between atoms: N_5  and  C_6 
REMARK    2  A    between atoms: C_6  and  C_7 
REMARK       I    between atoms: C_7  and  N_9 
REMARK    3  A    between atoms: N_9  and  C_10 
REMARK    4  A    between atoms: C_10  and  C_11 
ROOT
HETATM    1  C   UNL     1     -40.235 -42.590  12.382  1.00  0.00     0.050 C 
HETATM    2  C   UNL     1     -40.788 -43.791  11.656  1.00  0.00    -0.034 C 
HETATM    3  C   UNL     1     -39.949 -44.974  11.613  1.00  0.00     0.025 C 
HETATM    4  C   UNL     1     -40.402 -46.107  11.062  1.00  0.00     0.095 C 
HETATM    5  N   UNL     1     -41.650 -46.164  10.476  1.00  0.00    -0.315 N 
HETATM    6  C   UNL     1     -42.467 -45.041  10.358  1.00  0.00     0.269 C 
HETATM    7  O   UNL     1     -43.511 -45.050   9.709  1.00  0.00    -0.266 OA
HETATM    8  C   UNL     1     -42.010 -43.814  11.082  1.00  0.00     0.118 C 
HETATM    9  C   UNL     1     -42.925 -42.734  11.185  1.00  0.00     0.105 C 
HETATM   10  N   UNL     1     -43.651 -41.842  11.348  1.00  0.00    -0.191 NA
ENDROOT
BRANCH   5  11
HETATM   11  C   UNL     1     -42.147 -47.425   9.935  1.00  0.00     0.234 C 
BRANCH  11  12
HETATM   12  C   UNL     1     -42.018 -48.566  10.935  1.00  0.00     0.235 C 
HETATM   13  O   UNL     1     -42.741 -48.645  11.925  1.00  0.00    -0.272 OA
HETATM   14  N   UNL     1     -41.011 -49.471  10.659  1.00  0.00    -0.357 N 
HETATM   15  H   UNL     1     -40.221 -49.127  10.111  1.00  0.00     0.162 HD
BRANCH  14  16
HETATM   16  C   UNL     1     -40.747 -50.546  11.601  1.00  0.00     0.154 C 
BRANCH  16  17
HETATM   17  C   UNL     1     -39.474 -50.337  12.421  1.00  0.00     0.139 C 
HETATM   18  C   UNL     1     -38.559 -49.290  11.803  1.00  0.00     0.035 C 
HETATM   19  C   UNL     1     -37.162 -49.865  11.914  1.00  0.00     0.029 C 
HETATM   20  C   UNL     1     -37.343 -51.156  12.681  1.00  0.00     0.168 C 
HETATM   21  O   UNL     1     -38.700 -51.550  12.462  1.00  0.00    -0.384 OA
ENDBRANCH  16  17
ENDBRANCH  14  16
ENDBRANCH  11  12
ENDBRANCH   5  11
TORSDOF 4
ENDMDL
MODEL 6
REMARK VINA RESULT:      -5.5      1.704      2.190
REMARK  4 active torsions:
REMARK  status: ('A' for Active; 'I' for Inactive)
REMARK    1  A    between atoms: N_5  and  C_6 
REMARK    2  A    between atoms: C_6  and  C_7 
REMARK       I    between atoms: C_7  and  N_9 
REMARK    3  A    between atoms: N_9  and  C_10 
REMARK    4  A    between atoms: C_10  and  C_11 
ROOT
HETATM    1  C   UNL     1     -46.126 -51.239  15.664  1.00  0.00     0.050 C 
HETATM    2  C   UNL     1     -45.129 -51.643  14.608  1.00  0.00    -0.034 C 
HETATM    3  C   UNL     1     -44.144 -50.649  14.222  1.00  0.00     0.025 C 
HETATM    4  C   UNL     1     -43.173 -50.958  13.354  1.00  0.00     0.095 C 
HETATM    5  N   UNL     1     -43.115 -52.206  12.766  1.00  0.00    -0.315 N 
HETATM    6  C   UNL     1     -44.094 -53.174  12.980  1.00  0.00     0.269 C 
HETATM    7  O   UNL     1     -44.128 -54.228  12.347  1.00  0.00    -0.266 OA
HETATM    8  C   UNL     1     -45.103 -52.868  14.041  1.00  0.00     0.118 C 
HETATM    9  C   UNL     1     -45.962 -53.920  14.453  1.00  0.00     0.105 C 
HETATM   10  N   UNL     1     -46.653 -54.758  14.867  1.00  0.00    -0.191 NA
ENDROOT
BRANCH   5  11
HETATM   11  C   UNL     1     -42.014 -52.541  11.868  1.00  0.00     0.234 C 
BRANCH  11  12
HETATM   12  C   UNL     1     -40.713 -52.782  12.624  1.00  0.00     0.235 C 
HETATM   13  O   UNL     1     -39.801 -51.959  12.623  1.00  0.00    -0.272 OA
HETATM   14  N   UNL     1     -40.634 -54.000  13.273  1.00  0.00    -0.357 N 
HETATM   15  H   UNL     1     -41.199 -54.761  12.892  1.00  0.00     0.162 HD
BRANCH  14  16
HETATM   16  C   UNL     1     -39.399 -54.363  13.947  1.00  0.00     0.154 C 
BRANCH  16  17
HETATM   17  C   UNL     1     -39.567 -54.576  15.452  1.00  0.00     0.139 C 
HETATM   18  C   UNL     1     -38.517 -55.520  16.018  1.00  0.00     0.035 C 
HETATM   19  C   UNL     1     -39.268 -56.429  16.968  1.00  0.00     0.029 C 
HETATM   20  C   UNL     1     -40.681 -55.888  16.973  1.00  0.00     0.168 C 
HETATM   21  O   UNL     1     -40.835 -55.196  15.731  1.00  0.00    -0.384 OA
ENDBRANCH  16  17
ENDBRANCH  14  16
ENDBRANCH  11  12
ENDBRANCH   5  11
TORSDOF 4
ENDMDL
MODEL 7
REMARK VINA RESULT:      -5.4      2.187      3.794
REMARK  4 active torsions:
REMARK  status: ('A' for Active; 'I' for Inactive)
REMARK    1  A    between atoms: N_5  and  C_6 
REMARK    2  A    between atoms: C_6  and  C_7 
REMARK       I    between atoms: C_7  and  N_9 
REMARK    3  A    between atoms: N_9  and  C_10 
REMARK    4  A    between atoms: C_10  and  C_11 
ROOT
HETATM    1  C   UNL     1     -47.110 -51.243  15.060  1.00  0.00     0.050 C 
HETATM    2  C   UNL     1     -45.986 -52.243  14.954  1.00  0.00    -0.034 C 
HETATM    3  C   UNL     1     -45.371 -52.672  16.197  1.00  0.00     0.025 C 
HETATM    4  C   UNL     1     -44.426 -53.620  16.194  1.00  0.00     0.095 C 
HETATM    5  N   UNL     1     -43.975 -54.172  15.012  1.00  0.00    -0.315 N 
HETATM    6  C   UNL     1     -44.416 -53.725  13.768  1.00  0.00     0.269 C 
HETATM    7  O   UNL     1     -43.912 -54.107  12.713  1.00  0.00    -0.266 OA
HETATM    8  C   UNL     1     -45.557 -52.757  13.781  1.00  0.00     0.118 C 
HETATM    9  C   UNL     1     -46.188 -52.469  12.543  1.00  0.00     0.105 C 
HETATM   10  N   UNL     1     -46.775 -52.238  11.568  1.00  0.00    -0.191 NA
ENDROOT
BRANCH   5  11
HETATM   11  C   UNL     1     -42.987 -55.246  15.036  1.00  0.00     0.234 C 
BRANCH  11  12
HETATM   12  C   UNL     1     -41.562 -54.709  15.092  1.00  0.00     0.235 C 
HETATM   13  O   UNL     1     -40.934 -54.648  16.146  1.00  0.00    -0.272 OA
HETATM   14  N   UNL     1     -41.057 -54.271  13.883  1.00  0.00    -0.357 N 
HETATM   15  H   UNL     1     -41.736 -53.959  13.186  1.00  0.00     0.162 HD
BRANCH  14  16
HETATM   16  C   UNL     1     -39.740 -53.658  13.846  1.00  0.00     0.154 C 
BRANCH  16  17
HETATM   17  C   UNL     1     -39.779 -52.143  13.646  1.00  0.00     0.139 C 
HETATM   18  C   UNL     1     -40.972 -51.706  12.808  1.00  0.00     0.035 C 
HETATM   19  C   UNL     1     -40.428 -50.663  11.853  1.00  0.00     0.029 C 
HETATM   20  C   UNL     1     -38.984 -50.486  12.268  1.00  0.00     0.168 C 
HETATM   21  O   UNL     1     -38.616 -51.703  12.922  1.00  0.00    -0.384 OA
ENDBRANCH  16  17
ENDBRANCH  14  16
ENDBRANCH  11  12
ENDBRANCH   5  11
TORSDOF 4
ENDMDL
MODEL 8
REMARK VINA RESULT:      -5.3      3.498      4.263
REMARK  4 active torsions:
REMARK  status: ('A' for Active; 'I' for Inactive)
REMARK    1  A    between atoms: N_5  and  C_6 
REMARK    2  A    between atoms: C_6  and  C_7 
REMARK       I    between atoms: C_7  and  N_9 
REMARK    3  A    between atoms: N_9  and  C_10 
REMARK    4  A    between atoms: C_10  and  C_11 
ROOT
HETATM    1  C   UNL     1     -46.556 -51.371  15.440  1.00  0.00     0.050 C 
HETATM    2  C   UNL     1     -45.460 -51.725  14.468  1.00  0.00    -0.034 C 
HETATM    3  C   UNL     1     -44.538 -50.665  14.104  1.00  0.00     0.025 C 
HETATM    4  C   UNL     1     -43.489 -50.920  13.314  1.00  0.00     0.095 C 
HETATM    5  N   UNL     1     -43.287 -52.179  12.782  1.00  0.00    -0.315 N 
HETATM    6  C   UNL     1     -44.193 -53.219  12.974  1.00  0.00     0.269 C 
HETATM    7  O   UNL     1     -44.097 -54.295  12.385  1.00  0.00    -0.266 OA
HETATM    8  C   UNL     1     -45.294 -52.964  13.955  1.00  0.00     0.118 C 
HETATM    9  C   UNL     1     -46.087 -54.071  14.355  1.00  0.00     0.105 C 
HETATM   10  N   UNL     1     -46.731 -54.949  14.759  1.00  0.00    -0.191 NA
ENDROOT
BRANCH   5  11
HETATM   11  C   UNL     1     -42.104 -52.449  11.972  1.00  0.00     0.234 C 
BRANCH  11  12
HETATM   12  C   UNL     1     -40.817 -52.071  12.695  1.00  0.00     0.235 C 
HETATM   13  O   UNL     1     -40.590 -52.435  13.846  1.00  0.00    -0.272 OA
HETATM   14  N   UNL     1     -39.957 -51.268  11.971  1.00  0.00    -0.357 N 
HETATM   15  H   UNL     1     -40.375 -50.680  11.247  1.00  0.00     0.162 HD
BRANCH  14  16
HETATM   16  C   UNL     1     -38.744 -50.778  12.604  1.00  0.00     0.154 C 
BRANCH  16  17
HETATM   17  C   UNL     1     -38.555 -49.267  12.470  1.00  0.00     0.139 C 
HETATM   18  C   UNL     1     -37.806 -48.676  13.656  1.00  0.00     0.035 C 
HETATM   19  C   UNL     1     -38.542 -47.397  13.996  1.00  0.00     0.029 C 
HETATM   20  C   UNL     1     -39.602 -47.273  12.923  1.00  0.00     0.168 C 
HETATM   21  O   UNL     1     -39.831 -48.603  12.449  1.00  0.00    -0.384 OA
ENDBRANCH  16  17
ENDBRANCH  14  16
ENDBRANCH  11  12
ENDBRANCH   5  11
TORSDOF 4
ENDMDL
MODEL 9
REMARK VINA RESULT:      -5.3      3.487      5.343
REMARK  4 active torsions:
REMARK  status: ('A' for Active; 'I' for Inactive)
REMARK    1  A    between atoms: N_5  and  C_6 
REMARK    2  A    between atoms: C_6  and  C_7 
REMARK       I    between atoms: C_7  and  N_9 
REMARK    3  A    between atoms: N_9  and  C_10 
REMARK    4  A    between atoms: C_10  and  C_11 
ROOT
HETATM    1  C   UNL     1     -45.781 -54.507  14.898  1.00  0.00     0.050 C 
HETATM    2  C   UNL     1     -44.485 -54.196  14.193  1.00  0.00    -0.034 C 
HETATM    3  C   UNL     1     -44.580 -53.496  12.925  1.00  0.00     0.025 C 
HETATM    4  C   UNL     1     -43.474 -53.108  12.280  1.00  0.00     0.095 C 
HETATM    5  N   UNL     1     -42.220 -53.409  12.773  1.00  0.00    -0.315 N 
HETATM    6  C   UNL     1     -42.038 -54.189  13.913  1.00  0.00     0.269 C 
HETATM    7  O   UNL     1     -40.930 -54.583  14.272  1.00  0.00    -0.266 OA
HETATM    8  C   UNL     1     -43.272 -54.513  14.695  1.00  0.00     0.118 C 
HETATM    9  C   UNL     1     -43.102 -55.093  15.979  1.00  0.00     0.105 C 
HETATM   10  N   UNL     1     -43.021 -55.518  17.057  1.00  0.00    -0.191 NA
ENDROOT
BRANCH   5  11
HETATM   11  C   UNL     1     -41.027 -52.925  12.084  1.00  0.00     0.234 C 
BRANCH  11  12
HETATM   12  C   UNL     1     -40.791 -51.439  12.327  1.00  0.00     0.235 C 
HETATM   13  O   UNL     1     -40.895 -50.941  13.445  1.00  0.00    -0.272 OA
HETATM   14  N   UNL     1     -40.490 -50.705  11.196  1.00  0.00    -0.357 N 
HETATM   15  H   UNL     1     -40.833 -51.070  10.306  1.00  0.00     0.162 HD
BRANCH  14  16
HETATM   16  C   UNL     1     -40.336 -49.264  11.308  1.00  0.00     0.154 C 
BRANCH  16  17
HETATM   17  C   UNL     1     -41.592 -48.486  10.918  1.00  0.00     0.139 C 
HETATM   18  C   UNL     1     -41.286 -47.033  10.585  1.00  0.00     0.035 C 
HETATM   19  C   UNL     1     -42.387 -46.231  11.248  1.00  0.00     0.029 C 
HETATM   20  C   UNL     1     -43.316 -47.272  11.831  1.00  0.00     0.168 C 
HETATM   21  O   UNL     1     -42.517 -48.443  12.020  1.00  0.00    -0.384 OA
ENDBRANCH  16  17
ENDBRANCH  14  16
ENDBRANCH  11  12
ENDBRANCH   5  11
TORSDOF 4
ENDMDL
