MODEL 1
REMARK VINA RESULT:      -5.6      0.000      0.000
REMARK  6 active torsions:
REMARK  status: ('A' for Active; 'I' for Inactive)
REMARK    1  A    between atoms: O_2  and  C_3 
REMARK    2  A    between atoms: C_3  and  C_4 
REMARK    3  A    between atoms: C_4  and  N_5 
REMARK    4  A    between atoms: C_6  and  S_7 
REMARK    5  A    between atoms: S_7  and  C_8 
REMARK    6  A    between atoms: C_8  and  C_9 
REMARK       I    between atoms: C_9  and  N_11 
ROOT
HETATM    1  N   UNL     1     -41.550 -46.805  11.424  1.00  0.00    -0.324 N 
HETATM    2  C   UNL     1     -42.057 -47.520  10.353  1.00  0.00     0.148 A 
HETATM    3  N   UNL     1     -41.507 -48.700  10.234  1.00  0.00    -0.335 N 
ATOM      4  HN  UNL     1     -41.736 -49.423   9.552  1.00  0.00     0.168 HD
HETATM    5  C   UNL     1     -40.556 -48.757  11.221  1.00  0.00     0.062 A 
HETATM    6  C   UNL     1     -39.609 -49.759  11.484  1.00  0.00     0.055 A 
HETATM    7  C   UNL     1     -38.752 -49.617  12.576  1.00  0.00     0.036 A 
HETATM    8 CL   UNL     1     -37.556 -50.813  12.896  1.00  0.00    -0.084 Cl
HETATM    9  C   UNL     1     -38.850 -48.520  13.421  1.00  0.00     0.026 A 
HETATM   10  C   UNL     1     -39.779 -47.511  13.171  1.00  0.00     0.034 A 
HETATM   11  C   UNL     1     -40.610 -47.618  12.039  1.00  0.00     0.063 A 
ENDROOT
BRANCH   2  12
HETATM   12  S   UNL     1     -43.234 -46.867   9.256  1.00  0.00    -0.084 SA
BRANCH  12  13
HETATM   13  C   UNL     1     -44.758 -47.653   9.844  1.00  0.00     0.184 C 
BRANCH  13  14
HETATM   14  C   UNL     1     -45.949 -47.083   9.112  1.00  0.00     0.225 C 
HETATM   15  O   UNL     1     -46.956 -47.728   8.828  1.00  0.00    -0.273 OA
HETATM   16  N   UNL     1     -45.850 -45.767   8.753  1.00  0.00    -0.369 N 
HETATM   17  H   UNL     1     -44.944 -45.305   8.727  1.00  0.00     0.159 HD
HETATM   18  H   UNL     1     -46.596 -45.384   8.184  1.00  0.00     0.159 HD
ENDBRANCH  13  14
ENDBRANCH  12  13
ENDBRANCH   2  12
BRANCH   1  19
HETATM   19  C   UNL     1     -41.912 -45.429  11.743  1.00  0.00     0.157 C 
BRANCH  19  20
HETATM   20  C   UNL     1     -40.830 -44.393  11.497  1.00  0.00     0.187 C 
BRANCH  20  21
HETATM   21  O   UNL     1     -40.543 -44.169  10.119  1.00  0.00    -0.394 OA
HETATM   22  C   UNL     1     -39.287 -44.773   9.798  1.00  0.00     0.201 C 
ENDBRANCH  20  21
ENDBRANCH  19  20
ENDBRANCH   1  19
TORSDOF 6
ENDMDL
MODEL 2
REMARK VINA RESULT:      -5.5      3.554      5.760
REMARK  6 active torsions:
REMARK  status: ('A' for Active; 'I' for Inactive)
REMARK    1  A    between atoms: O_2  and  C_3 
REMARK    2  A    between atoms: C_3  and  C_4 
REMARK    3  A    between atoms: C_4  and  N_5 
REMARK    4  A    between atoms: C_6  and  S_7 
REMARK    5  A    between atoms: S_7  and  C_8 
REMARK    6  A    between atoms: C_8  and  C_9 
REMARK       I    between atoms: C_9  and  N_11 
ROOT
HETATM    1  N   UNL     1     -41.412 -46.344  10.489  1.00  0.00    -0.324 N 
HETATM    2  C   UNL     1     -41.233 -47.497  11.232  1.00  0.00     0.148 A 
HETATM    3  N   UNL     1     -42.283 -48.275  11.209  1.00  0.00    -0.335 N 
ATOM      4  HN  UNL     1     -42.383 -49.193  11.644  1.00  0.00     0.168 HD
HETATM    5  C   UNL     1     -43.221 -47.595  10.476  1.00  0.00     0.062 A 
HETATM    6  C   UNL     1     -44.560 -47.928  10.219  1.00  0.00     0.055 A 
HETATM    7  C   UNL     1     -45.328 -47.091   9.408  1.00  0.00     0.036 A 
HETATM    8 CL   UNL     1     -46.983 -47.459   9.110  1.00  0.00    -0.084 Cl
HETATM    9  C   UNL     1     -44.775 -45.959   8.827  1.00  0.00     0.026 A 
HETATM   10  C   UNL     1     -43.449 -45.607   9.077  1.00  0.00     0.034 A 
HETATM   11  C   UNL     1     -42.682 -46.415   9.939  1.00  0.00     0.063 A 
ENDROOT
BRANCH   2  12
HETATM   12  S   UNL     1     -39.794 -47.812  12.151  1.00  0.00    -0.084 SA
BRANCH  12  13
HETATM   13  C   UNL     1     -40.147 -49.456  12.830  1.00  0.00     0.184 C 
BRANCH  13  14
HETATM   14  C   UNL     1     -39.332 -50.500  12.104  1.00  0.00     0.225 C 
HETATM   15  O   UNL     1     -39.204 -51.661  12.486  1.00  0.00    -0.273 OA
HETATM   16  N   UNL     1     -38.709 -50.078  10.962  1.00  0.00    -0.369 N 
HETATM   17  H   UNL     1     -38.574 -49.085  10.785  1.00  0.00     0.159 HD
HETATM   18  H   UNL     1     -38.086 -50.733  10.505  1.00  0.00     0.159 HD
ENDBRANCH  13  14
ENDBRANCH  12  13
ENDBRANCH   2  12
BRANCH   1  19
HETATM   19  C   UNL     1     -40.445 -45.255  10.409  1.00  0.00     0.157 C 
BRANCH  19  20
HETATM   20  C   UNL     1     -40.743 -44.048  11.281  1.00  0.00     0.187 C 
BRANCH  20  21
HETATM   21  O   UNL     1     -41.461 -43.014  10.614  1.00  0.00    -0.394 OA
HETATM   22  C   UNL     1     -42.715 -42.813  11.275  1.00  0.00     0.201 C 
ENDBRANCH  20  21
ENDBRANCH  19  20
ENDBRANCH   1  19
TORSDOF 6
ENDMDL
MODEL 3
REMARK VINA RESULT:      -5.4      4.650      6.389
REMARK  6 active torsions:
REMARK  status: ('A' for Active; 'I' for Inactive)
REMARK    1  A    between atoms: O_2  and  C_3 
REMARK    2  A    between atoms: C_3  and  C_4 
REMARK    3  A    between atoms: C_4  and  N_5 
REMARK    4  A    between atoms: C_6  and  S_7 
REMARK    5  A    between atoms: S_7  and  C_8 
REMARK    6  A    between atoms: C_8  and  C_9 
REMARK       I    between atoms: C_9  and  N_11 
ROOT
HETATM    1  N   UNL     1     -42.463 -49.868  12.781  1.00  0.00    -0.324 N 
HETATM    2  C   UNL     1     -41.424 -50.422  12.053  1.00  0.00     0.148 A 
HETATM    3  N   UNL     1     -41.592 -51.699  11.833  1.00  0.00    -0.335 N 
ATOM      4  HN  UNL     1     -40.989 -52.319  11.292  1.00  0.00     0.168 HD
HETATM    5  C   UNL     1     -42.753 -52.028  12.485  1.00  0.00     0.062 A 
HETATM    6  C   UNL     1     -43.349 -53.288  12.656  1.00  0.00     0.055 A 
HETATM    7  C   UNL     1     -44.564 -53.381  13.336  1.00  0.00     0.036 A 
HETATM    8 CL   UNL     1     -45.295 -54.918  13.592  1.00  0.00    -0.084 Cl
HETATM    9  C   UNL     1     -45.203 -52.244  13.811  1.00  0.00     0.026 A 
HETATM   10  C   UNL     1     -44.623 -50.986  13.659  1.00  0.00     0.034 A 
HETATM   11  C   UNL     1     -43.370 -50.888  13.023  1.00  0.00     0.063 A 
ENDROOT
BRANCH   2  12
HETATM   12  S   UNL     1     -40.023 -49.516  11.571  1.00  0.00    -0.084 SA
BRANCH  12  13
HETATM   13  C   UNL     1     -38.751 -50.200  12.668  1.00  0.00     0.184 C 
BRANCH  13  14
HETATM   14  C   UNL     1     -37.585 -50.705  11.853  1.00  0.00     0.225 C 
HETATM   15  O   UNL     1     -36.824 -51.599  12.220  1.00  0.00    -0.273 OA
HETATM   16  N   UNL     1     -37.397 -50.094  10.644  1.00  0.00    -0.369 N 
HETATM   17  H   UNL     1     -37.825 -49.192  10.449  1.00  0.00     0.159 HD
HETATM   18  H   UNL     1     -36.570 -50.353  10.117  1.00  0.00     0.159 HD
ENDBRANCH  13  14
ENDBRANCH  12  13
ENDBRANCH   2  12
BRANCH   1  19
HETATM   19  C   UNL     1     -42.498 -48.488  13.249  1.00  0.00     0.157 C 
BRANCH  19  20
HETATM   20  C   UNL     1     -42.923 -47.456  12.219  1.00  0.00     0.187 C 
BRANCH  20  21
HETATM   21  O   UNL     1     -43.647 -47.998  11.118  1.00  0.00    -0.394 OA
HETATM   22  C   UNL     1     -42.987 -47.638   9.901  1.00  0.00     0.201 C 
ENDBRANCH  20  21
ENDBRANCH  19  20
ENDBRANCH   1  19
TORSDOF 6
ENDMDL
MODEL 4
REMARK VINA RESULT:      -5.4      4.276      5.851
REMARK  6 active torsions:
REMARK  status: ('A' for Active; 'I' for Inactive)
REMARK    1  A    between atoms: O_2  and  C_3 
REMARK    2  A    between atoms: C_3  and  C_4 
REMARK    3  A    between atoms: C_4  and  N_5 
REMARK    4  A    between atoms: C_6  and  S_7 
REMARK    5  A    between atoms: S_7  and  C_8 
REMARK    6  A    between atoms: C_8  and  C_9 
REMARK       I    between atoms: C_9  and  N_11 
ROOT
HETATM    1  N   UNL     1     -40.046 -47.855  11.965  1.00  0.00    -0.324 N 
HETATM    2  C   UNL     1     -40.109 -49.144  11.465  1.00  0.00     0.148 A 
HETATM    3  N   UNL     1     -41.019 -49.276  10.536  1.00  0.00    -0.335 N 
ATOM      4  HN  UNL     1     -41.230 -50.113   9.991  1.00  0.00     0.168 HD
HETATM    5  C   UNL     1     -41.628 -48.050  10.450  1.00  0.00     0.062 A 
HETATM    6  C   UNL     1     -42.736 -47.661   9.680  1.00  0.00     0.055 A 
HETATM    7  C   UNL     1     -43.166 -46.335   9.726  1.00  0.00     0.036 A 
HETATM    8 CL   UNL     1     -44.546 -45.843   8.821  1.00  0.00    -0.084 Cl
HETATM    9  C   UNL     1     -42.494 -45.394  10.493  1.00  0.00     0.026 A 
HETATM   10  C   UNL     1     -41.398 -45.763  11.271  1.00  0.00     0.034 A 
HETATM   11  C   UNL     1     -40.989 -47.111  11.274  1.00  0.00     0.063 A 
ENDROOT
BRANCH   2  12
HETATM   12  S   UNL     1     -39.135 -50.443  12.081  1.00  0.00    -0.084 SA
BRANCH  12  13
HETATM   13  C   UNL     1     -40.346 -51.378  13.054  1.00  0.00     0.184 C 
BRANCH  13  14
HETATM   14  C   UNL     1     -40.614 -52.712  12.398  1.00  0.00     0.225 C 
HETATM   15  O   UNL     1     -40.244 -53.791  12.857  1.00  0.00    -0.273 OA
HETATM   16  N   UNL     1     -41.306 -52.665  11.220  1.00  0.00    -0.369 N 
HETATM   17  H   UNL     1     -41.374 -51.796  10.695  1.00  0.00     0.159 HD
HETATM   18  H   UNL     1     -41.422 -53.536  10.715  1.00  0.00     0.159 HD
ENDBRANCH  13  14
ENDBRANCH  12  13
ENDBRANCH   2  12
BRANCH   1  19
HETATM   19  C   UNL     1     -39.189 -47.439  13.069  1.00  0.00     0.157 C 
BRANCH  19  20
HETATM   20  C   UNL     1     -39.783 -47.603  14.458  1.00  0.00     0.187 C 
BRANCH  20  21
HETATM   21  O   UNL     1     -39.050 -48.486  15.302  1.00  0.00    -0.394 OA
HETATM   22  C   UNL     1     -37.658 -48.393  14.982  1.00  0.00     0.201 C 
ENDBRANCH  20  21
ENDBRANCH  19  20
ENDBRANCH   1  19
TORSDOF 6
ENDMDL
MODEL 5
REMARK VINA RESULT:      -5.4      5.323      6.694
REMARK  6 active torsions:
REMARK  status: ('A' for Active; 'I' for Inactive)
REMARK    1  A    between atoms: O_2  and  C_3 
REMARK    2  A    between atoms: C_3  and  C_4 
REMARK    3  A    between atoms: C_4  and  N_5 
REMARK    4  A    between atoms: C_6  and  S_7 
REMARK    5  A    between atoms: S_7  and  C_8 
REMARK    6  A    between atoms: C_8  and  C_9 
REMARK       I    between atoms: C_9  and  N_11 
ROOT
HETATM    1  N   UNL     1     -41.170 -51.733  13.719  1.00  0.00    -0.324 N 
HETATM    2  C   UNL     1     -41.357 -51.318  12.412  1.00  0.00     0.148 A 
HETATM    3  N   UNL     1     -42.410 -51.862  11.860  1.00  0.00    -0.335 N 
ATOM      4  HN  UNL     1     -42.778 -51.688  10.924  1.00  0.00     0.168 HD
HETATM    5  C   UNL     1     -42.914 -52.717  12.807  1.00  0.00     0.062 A 
HETATM    6  C   UNL     1     -43.982 -53.623  12.707  1.00  0.00     0.055 A 
HETATM    7  C   UNL     1     -44.343 -54.376  13.825  1.00  0.00     0.036 A 
HETATM    8 CL   UNL     1     -45.623 -55.522  13.716  1.00  0.00    -0.084 Cl
HETATM    9  C   UNL     1     -43.685 -54.215  15.036  1.00  0.00     0.026 A 
HETATM   10  C   UNL     1     -42.618 -53.326  15.152  1.00  0.00     0.034 A 
HETATM   11  C   UNL     1     -42.209 -52.602  14.015  1.00  0.00     0.063 A 
ENDROOT
BRANCH   2  12
HETATM   12  S   UNL     1     -40.254 -50.257  11.593  1.00  0.00    -0.084 SA
BRANCH  12  13
HETATM   13  C   UNL     1     -40.974 -48.632  11.953  1.00  0.00     0.184 C 
BRANCH  13  14
HETATM   14  C   UNL     1     -42.126 -48.359  11.015  1.00  0.00     0.225 C 
HETATM   15  O   UNL     1     -43.285 -48.183  11.382  1.00  0.00    -0.273 OA
HETATM   16  N   UNL     1     -41.811 -48.325   9.685  1.00  0.00    -0.369 N 
HETATM   17  H   UNL     1     -40.942 -48.734   9.349  1.00  0.00     0.159 HD
HETATM   18  H   UNL     1     -42.579 -48.231   9.030  1.00  0.00     0.159 HD
ENDBRANCH  13  14
ENDBRANCH  12  13
ENDBRANCH   2  12
BRANCH   1  19
HETATM   19  C   UNL     1     -40.030 -51.361  14.547  1.00  0.00     0.157 C 
BRANCH  19  20
HETATM   20  C   UNL     1     -38.995 -52.451  14.766  1.00  0.00     0.187 C 
BRANCH  20  21
HETATM   21  O   UNL     1     -38.845 -53.340  13.663  1.00  0.00    -0.394 OA
HETATM   22  C   UNL     1     -39.134 -54.674  14.093  1.00  0.00     0.201 C 
ENDBRANCH  20  21
ENDBRANCH  19  20
ENDBRANCH   1  19
TORSDOF 6
ENDMDL
MODEL 6
REMARK VINA RESULT:      -5.3      6.314      8.607
REMARK  6 active torsions:
REMARK  status: ('A' for Active; 'I' for Inactive)
REMARK    1  A    between atoms: O_2  and  C_3 
REMARK    2  A    between atoms: C_3  and  C_4 
REMARK    3  A    between atoms: C_4  and  N_5 
REMARK    4  A    between atoms: C_6  and  S_7 
REMARK    5  A    between atoms: S_7  and  C_8 
REMARK    6  A    between atoms: C_8  and  C_9 
REMARK       I    between atoms: C_9  and  N_11 
ROOT
HETATM    1  N   UNL     1     -40.449 -53.136  13.953  1.00  0.00    -0.324 N 
HETATM    2  C   UNL     1     -40.172 -51.782  14.033  1.00  0.00     0.148 A 
HETATM    3  N   UNL     1     -41.229 -51.042  13.829  1.00  0.00    -0.335 N 
ATOM      4  HN  UNL     1     -41.290 -50.024  13.873  1.00  0.00     0.168 HD
HETATM    5  C   UNL     1     -42.239 -51.925  13.544  1.00  0.00     0.062 A 
HETATM    6  C   UNL     1     -43.563 -51.664  13.153  1.00  0.00     0.055 A 
HETATM    7  C   UNL     1     -44.435 -52.733  12.946  1.00  0.00     0.036 A 
HETATM    8 CL   UNL     1     -46.051 -52.441  12.429  1.00  0.00    -0.084 Cl
HETATM    9  C   UNL     1     -44.022 -54.041  13.155  1.00  0.00     0.026 A 
HETATM   10  C   UNL     1     -42.710 -54.320  13.534  1.00  0.00     0.034 A 
HETATM   11  C   UNL     1     -41.806 -53.251  13.692  1.00  0.00     0.063 A 
ENDROOT
BRANCH   2  12
HETATM   12  S   UNL     1     -38.571 -51.162  14.293  1.00  0.00    -0.084 SA
BRANCH  12  13
HETATM   13  C   UNL     1     -38.378 -50.046  12.877  1.00  0.00     0.184 C 
BRANCH  13  14
HETATM   14  C   UNL     1     -37.464 -50.670  11.849  1.00  0.00     0.225 C 
HETATM   15  O   UNL     1     -36.789 -51.678  12.049  1.00  0.00    -0.273 OA
HETATM   16  N   UNL     1     -37.411 -50.034  10.639  1.00  0.00    -0.369 N 
HETATM   17  H   UNL     1     -37.731 -49.073  10.547  1.00  0.00     0.159 HD
HETATM   18  H   UNL     1     -36.740 -50.380   9.963  1.00  0.00     0.159 HD
ENDBRANCH  13  14
ENDBRANCH  12  13
ENDBRANCH   2  12
BRANCH   1  19
HETATM   19  C   UNL     1     -39.447 -54.190  14.047  1.00  0.00     0.157 C 
BRANCH  19  20
HETATM   20  C   UNL     1     -39.296 -54.832  15.415  1.00  0.00     0.187 C 
BRANCH  20  21
HETATM   21  O   UNL     1     -38.340 -55.887  15.460  1.00  0.00    -0.394 OA
HETATM   22  C   UNL     1     -37.927 -56.088  16.815  1.00  0.00     0.201 C 
ENDBRANCH  20  21
ENDBRANCH  19  20
ENDBRANCH   1  19
TORSDOF 6
ENDMDL
MODEL 7
REMARK VINA RESULT:      -5.2      6.326      8.422
REMARK  6 active torsions:
REMARK  status: ('A' for Active; 'I' for Inactive)
REMARK    1  A    between atoms: O_2  and  C_3 
REMARK    2  A    between atoms: C_3  and  C_4 
REMARK    3  A    between atoms: C_4  and  N_5 
REMARK    4  A    between atoms: C_6  and  S_7 
REMARK    5  A    between atoms: S_7  and  C_8 
REMARK    6  A    between atoms: C_8  and  C_9 
REMARK       I    between atoms: C_9  and  N_11 
ROOT
HETATM    1  N   UNL     1     -42.111 -53.432  13.901  1.00  0.00    -0.324 N 
HETATM    2  C   UNL     1     -40.943 -52.976  13.316  1.00  0.00     0.148 A 
HETATM    3  N   UNL     1     -39.881 -53.578  13.783  1.00  0.00    -0.335 N 
ATOM      4  HN  UNL     1     -38.914 -53.447  13.486  1.00  0.00     0.168 HD
HETATM    5  C   UNL     1     -40.345 -54.424  14.758  1.00  0.00     0.062 A 
HETATM    6  C   UNL     1     -39.623 -55.238  15.645  1.00  0.00     0.055 A 
HETATM    7  C   UNL     1     -40.316 -56.052  16.542  1.00  0.00     0.036 A 
HETATM    8 CL   UNL     1     -39.453 -57.029  17.666  1.00  0.00    -0.084 Cl
HETATM    9  C   UNL     1     -41.703 -56.091  16.543  1.00  0.00     0.026 A 
HETATM   10  C   UNL     1     -42.437 -55.285  15.675  1.00  0.00     0.034 A 
HETATM   11  C   UNL     1     -41.748 -54.419  14.804  1.00  0.00     0.063 A 
ENDROOT
BRANCH   2  12
HETATM   12  S   UNL     1     -40.912 -51.688  12.152  1.00  0.00    -0.084 SA
BRANCH  12  13
HETATM   13  C   UNL     1     -39.668 -50.580  12.868  1.00  0.00     0.184 C 
BRANCH  13  14
HETATM   14  C   UNL     1     -38.380 -50.675  12.085  1.00  0.00     0.225 C 
HETATM   15  O   UNL     1     -37.427 -51.379  12.411  1.00  0.00    -0.273 OA
HETATM   16  N   UNL     1     -38.314 -49.904  10.957  1.00  0.00    -0.369 N 
HETATM   17  H   UNL     1     -38.956 -49.126  10.824  1.00  0.00     0.159 HD
HETATM   18  H   UNL     1     -37.430 -49.881  10.462  1.00  0.00     0.159 HD
ENDBRANCH  13  14
ENDBRANCH  12  13
ENDBRANCH   2  12
BRANCH   1  19
HETATM   19  C   UNL     1     -43.435 -52.878  13.641  1.00  0.00     0.157 C 
BRANCH  19  20
HETATM   20  C   UNL     1     -44.171 -53.471  12.453  1.00  0.00     0.187 C 
BRANCH  20  21
HETATM   21  O   UNL     1     -44.948 -54.623  12.767  1.00  0.00    -0.394 OA
HETATM   22  C   UNL     1     -45.684 -54.379  13.969  1.00  0.00     0.201 C 
ENDBRANCH  20  21
ENDBRANCH  19  20
ENDBRANCH   1  19
TORSDOF 6
ENDMDL
MODEL 8
REMARK VINA RESULT:      -5.0      4.405      5.388
REMARK  6 active torsions:
REMARK  status: ('A' for Active; 'I' for Inactive)
REMARK    1  A    between atoms: O_2  and  C_3 
REMARK    2  A    between atoms: C_3  and  C_4 
REMARK    3  A    between atoms: C_4  and  N_5 
REMARK    4  A    between atoms: C_6  and  S_7 
REMARK    5  A    between atoms: S_7  and  C_8 
REMARK    6  A    between atoms: C_8  and  C_9 
REMARK       I    between atoms: C_9  and  N_11 
ROOT
HETATM    1  N   UNL     1     -41.757 -50.584  12.334  1.00  0.00    -0.324 N 
HETATM    2  C   UNL     1     -42.712 -49.585  12.415  1.00  0.00     0.148 A 
HETATM    3  N   UNL     1     -43.876 -50.036  12.802  1.00  0.00    -0.335 N 
ATOM      4  HN  UNL     1     -44.724 -49.494  12.973  1.00  0.00     0.168 HD
HETATM    5  C   UNL     1     -43.714 -51.392  12.929  1.00  0.00     0.062 A 
HETATM    6  C   UNL     1     -44.671 -52.376  13.226  1.00  0.00     0.055 A 
HETATM    7  C   UNL     1     -44.267 -53.707  13.339  1.00  0.00     0.036 A 
HETATM    8 CL   UNL     1     -45.428 -54.936  13.663  1.00  0.00    -0.084 Cl
HETATM    9  C   UNL     1     -42.934 -54.061  13.196  1.00  0.00     0.026 A 
HETATM   10  C   UNL     1     -41.971 -53.100  12.893  1.00  0.00     0.034 A 
HETATM   11  C   UNL     1     -42.377 -51.762  12.722  1.00  0.00     0.063 A 
ENDROOT
BRANCH   2  12
HETATM   12  S   UNL     1     -42.393 -47.939  11.964  1.00  0.00    -0.084 SA
BRANCH  12  13
HETATM   13  C   UNL     1     -42.195 -48.084  10.168  1.00  0.00     0.184 C 
BRANCH  13  14
HETATM   14  C   UNL     1     -43.413 -47.530   9.468  1.00  0.00     0.225 C 
HETATM   15  O   UNL     1     -44.533 -47.481   9.971  1.00  0.00    -0.273 OA
HETATM   16  N   UNL     1     -43.210 -47.077   8.194  1.00  0.00    -0.369 N 
HETATM   17  H   UNL     1     -42.383 -47.358   7.671  1.00  0.00     0.159 HD
HETATM   18  H   UNL     1     -44.027 -46.783   7.671  1.00  0.00     0.159 HD
ENDBRANCH  13  14
ENDBRANCH  12  13
ENDBRANCH   2  12
BRANCH   1  19
HETATM   19  C   UNL     1     -40.398 -50.389  11.843  1.00  0.00     0.157 C 
BRANCH  19  20
HETATM   20  C   UNL     1     -39.306 -50.444  12.897  1.00  0.00     0.187 C 
BRANCH  20  21
HETATM   21  O   UNL     1     -38.455 -51.581  12.793  1.00  0.00    -0.394 OA
HETATM   22  C   UNL     1     -37.105 -51.142  12.618  1.00  0.00     0.201 C 
ENDBRANCH  20  21
ENDBRANCH  19  20
ENDBRANCH   1  19
TORSDOF 6
ENDMDL
MODEL 9
REMARK VINA RESULT:      -4.8      1.810      1.927
REMARK  6 active torsions:
REMARK  status: ('A' for Active; 'I' for Inactive)
REMARK    1  A    between atoms: O_2  and  C_3 
REMARK    2  A    between atoms: C_3  and  C_4 
REMARK    3  A    between atoms: C_4  and  N_5 
REMARK    4  A    between atoms: C_6  and  S_7 
REMARK    5  A    between atoms: S_7  and  C_8 
REMARK    6  A    between atoms: C_8  and  C_9 
REMARK       I    between atoms: C_9  and  N_11 
ROOT
HETATM    1  N   UNL     1     -42.054 -47.796  12.683  1.00  0.00    -0.324 N 
HETATM    2  C   UNL     1     -42.520 -48.242  11.459  1.00  0.00     0.148 A 
HETATM    3  N   UNL     1     -41.765 -49.178  10.947  1.00  0.00    -0.335 N 
ATOM      4  HN  UNL     1     -41.917 -49.690  10.078  1.00  0.00     0.168 HD
HETATM    5  C   UNL     1     -40.724 -49.325  11.828  1.00  0.00     0.062 A 
HETATM    6  C   UNL     1     -39.577 -50.128  11.722  1.00  0.00     0.055 A 
HETATM    7  C   UNL     1     -38.656 -50.143  12.770  1.00  0.00     0.036 A 
HETATM    8 CL   UNL     1     -37.223 -51.088  12.646  1.00  0.00    -0.084 Cl
HETATM    9  C   UNL     1     -38.879 -49.407  13.925  1.00  0.00     0.026 A 
HETATM   10  C   UNL     1     -40.008 -48.598  14.046  1.00  0.00     0.034 A 
HETATM   11  C   UNL     1     -40.915 -48.532  12.970  1.00  0.00     0.063 A 
ENDROOT
BRANCH   2  12
HETATM   12  S   UNL     1     -43.909 -47.558  10.673  1.00  0.00    -0.084 SA
BRANCH  12  13
HETATM   13  C   UNL     1     -43.213 -47.056   9.075  1.00  0.00     0.184 C 
BRANCH  13  14
HETATM   14  C   UNL     1     -43.790 -47.908   7.970  1.00  0.00     0.225 C 
HETATM   15  O   UNL     1     -44.985 -48.172   7.857  1.00  0.00    -0.273 OA
HETATM   16  N   UNL     1     -42.887 -48.403   7.070  1.00  0.00    -0.369 N 
HETATM   17  H   UNL     1     -41.895 -48.431   7.296  1.00  0.00     0.159 HD
HETATM   18  H   UNL     1     -43.235 -49.048   6.371  1.00  0.00     0.159 HD
ENDBRANCH  13  14
ENDBRANCH  12  13
ENDBRANCH   2  12
BRANCH   1  19
HETATM   19  C   UNL     1     -42.643 -46.698  13.440  1.00  0.00     0.157 C 
BRANCH  19  20
HETATM   20  C   UNL     1     -42.044 -45.327  13.180  1.00  0.00     0.187 C 
BRANCH  20  21
HETATM   21  O   UNL     1     -40.940 -45.337  12.279  1.00  0.00    -0.394 OA
HETATM   22  C   UNL     1     -41.268 -44.550  11.129  1.00  0.00     0.201 C 
ENDBRANCH  20  21
ENDBRANCH  19  20
ENDBRANCH   1  19
TORSDOF 6
ENDMDL
