MODEL 1
REMARK VINA RESULT:      -5.7      0.000      0.000
REMARK  4 active torsions:
REMARK  status: ('A' for Active; 'I' for Inactive)
REMARK    1  A    between atoms: O_2  and  C_3 
REMARK    2  A    between atoms: C_7  and  N_8 
REMARK       I    between atoms: N_8  and  C_9 
REMARK       I    between atoms: C_9  and  N_11 
REMARK    3  A    between atoms: N_11  and  C_12 
REMARK    4  A    between atoms: C_16  and  C_20 
ROOT
HETATM    1  N   UNL     1     -40.652 -52.636  14.078  1.00  0.00    -0.336 N 
HETATM    2  C   UNL     1     -41.261 -51.957  13.042  1.00  0.00     0.321 C 
HETATM    3  O   UNL     1     -41.832 -52.508  12.113  1.00  0.00    -0.247 OA
HETATM    4  N   UNL     1     -41.036 -50.598  13.124  1.00  0.00    -0.306 N 
HETATM    5  H   UNL     1     -40.801 -52.210  14.984  1.00  0.00     0.164 HD
HETATM    6  H   UNL     1     -40.135 -50.364  13.518  1.00  0.00     0.171 HD
ENDROOT
BRANCH   4   7
HETATM    7  C   UNL     1     -41.581 -49.717  12.164  1.00  0.00     0.067 A 
HETATM    8  C   UNL     1     -42.853 -49.192  12.245  1.00  0.00     0.120 A 
HETATM    9  N   UNL     1     -43.377 -48.341  11.335  1.00  0.00    -0.353 N 
HETATM   10  C   UNL     1     -42.605 -48.010  10.281  1.00  0.00     0.085 A 
ATOM     11  HN  UNL     1     -44.319 -47.964  11.442  1.00  0.00     0.166 HD
HETATM   12  N   UNL     1     -41.348 -48.476  10.111  1.00  0.00    -0.353 N 
HETATM   13  C   UNL     1     -40.865 -49.308  11.060  1.00  0.00     0.120 A 
ATOM     14  HN  UNL     1     -40.788 -48.210   9.301  1.00  0.00     0.166 HD
BRANCH  10  15
HETATM   15  C   UNL     1     -43.176 -47.068   9.248  1.00  0.00     0.053 A 
HETATM   16  C   UNL     1     -44.657 -47.077   8.944  1.00  0.00     0.013 A 
HETATM   17  C   UNL     1     -43.690 -47.619   7.935  1.00  0.00     0.013 A 
ENDBRANCH  10  15
ENDBRANCH   4   7
BRANCH   1  18
HETATM   18  C   UNL     1     -40.639 -54.089  14.029  1.00  0.00     0.115 C 
HETATM   19  C   UNL     1     -41.422 -54.808  15.155  1.00  0.00     0.143 C 
HETATM   20  C   UNL     1     -40.398 -55.083  16.261  1.00  0.00     0.034 C 
HETATM   21  C   UNL     1     -39.016 -54.867  15.657  1.00  0.00     0.005 C 
HETATM   22  C   UNL     1     -39.227 -54.660  14.166  1.00  0.00     0.028 C 
BRANCH  19  23
HETATM   23  O   UNL     1     -42.513 -54.043  15.658  1.00  0.00    -0.389 OA
HETATM   24  C   UNL     1     -43.739 -54.345  15.004  1.00  0.00     0.202 C 
ENDBRANCH  19  23
ENDBRANCH   1  18
TORSDOF 4
ENDMDL
MODEL 2
REMARK VINA RESULT:      -5.6      2.651      3.851
REMARK  4 active torsions:
REMARK  status: ('A' for Active; 'I' for Inactive)
REMARK    1  A    between atoms: O_2  and  C_3 
REMARK    2  A    between atoms: C_7  and  N_8 
REMARK       I    between atoms: N_8  and  C_9 
REMARK       I    between atoms: C_9  and  N_11 
REMARK    3  A    between atoms: N_11  and  C_12 
REMARK    4  A    between atoms: C_16  and  C_20 
ROOT
HETATM    1  N   UNL     1     -43.059 -51.706  12.577  1.00  0.00    -0.336 N 
HETATM    2  C   UNL     1     -42.659 -50.384  12.579  1.00  0.00     0.321 C 
HETATM    3  O   UNL     1     -43.078 -49.551  13.369  1.00  0.00    -0.247 OA
HETATM    4  N   UNL     1     -41.834 -50.101  11.510  1.00  0.00    -0.306 N 
HETATM    5  H   UNL     1     -42.302 -52.357  12.408  1.00  0.00     0.164 HD
HETATM    6  H   UNL     1     -42.053 -50.637  10.681  1.00  0.00     0.171 HD
ENDROOT
BRANCH   4   7
HETATM    7  C   UNL     1     -41.305 -48.804  11.331  1.00  0.00     0.067 A 
HETATM    8  C   UNL     1     -40.234 -48.312  12.046  1.00  0.00     0.120 A 
HETATM    9  N   UNL     1     -39.716 -47.075  11.872  1.00  0.00    -0.353 N 
HETATM   10  C   UNL     1     -40.305 -46.281  10.956  1.00  0.00     0.085 A 
ATOM     11  HN  UNL     1     -38.912 -46.756  12.413  1.00  0.00     0.166 HD
HETATM   12  N   UNL     1     -41.361 -46.671  10.209  1.00  0.00    -0.353 N 
HETATM   13  C   UNL     1     -41.828 -47.924  10.408  1.00  0.00     0.120 A 
ATOM     14  HN  UNL     1     -41.788 -46.047   9.525  1.00  0.00     0.166 HD
BRANCH  10  15
HETATM   15  C   UNL     1     -39.748 -44.892  10.754  1.00  0.00     0.053 A 
HETATM   16  C   UNL     1     -39.405 -44.027  11.947  1.00  0.00     0.013 A 
HETATM   17  C   UNL     1     -40.596 -43.687  11.101  1.00  0.00     0.013 A 
ENDBRANCH  10  15
ENDBRANCH   4   7
BRANCH   1  18
HETATM   18  C   UNL     1     -44.077 -52.115  13.531  1.00  0.00     0.115 C 
HETATM   19  C   UNL     1     -43.593 -53.031  14.681  1.00  0.00     0.143 C 
HETATM   20  C   UNL     1     -43.826 -54.465  14.194  1.00  0.00     0.034 C 
HETATM   21  C   UNL     1     -44.738 -54.383  12.977  1.00  0.00     0.005 C 
HETATM   22  C   UNL     1     -45.188 -52.935  12.874  1.00  0.00     0.028 C 
BRANCH  19  23
HETATM   23  O   UNL     1     -42.225 -52.831  15.022  1.00  0.00    -0.389 OA
HETATM   24  C   UNL     1     -41.441 -54.004  14.841  1.00  0.00     0.202 C 
ENDBRANCH  19  23
ENDBRANCH   1  18
TORSDOF 4
ENDMDL
MODEL 3
REMARK VINA RESULT:      -5.1      2.712      3.535
REMARK  4 active torsions:
REMARK  status: ('A' for Active; 'I' for Inactive)
REMARK    1  A    between atoms: O_2  and  C_3 
REMARK    2  A    between atoms: C_7  and  N_8 
REMARK       I    between atoms: N_8  and  C_9 
REMARK       I    between atoms: C_9  and  N_11 
REMARK    3  A    between atoms: N_11  and  C_12 
REMARK    4  A    between atoms: C_16  and  C_20 
ROOT
HETATM    1  N   UNL     1     -43.033 -51.903  13.453  1.00  0.00    -0.336 N 
HETATM    2  C   UNL     1     -42.307 -50.906  12.831  1.00  0.00     0.321 C 
HETATM    3  O   UNL     1     -41.627 -51.086  11.832  1.00  0.00    -0.247 OA
HETATM    4  N   UNL     1     -42.348 -49.727  13.547  1.00  0.00    -0.306 N 
HETATM    5  H   UNL     1     -43.946 -51.600  13.770  1.00  0.00     0.164 HD
HETATM    6  H   UNL     1     -42.400 -49.865  14.546  1.00  0.00     0.171 HD
ENDROOT
BRANCH   4   7
HETATM    7  C   UNL     1     -41.677 -48.575  13.079  1.00  0.00     0.067 A 
HETATM    8  C   UNL     1     -40.352 -48.303  13.346  1.00  0.00     0.120 A 
HETATM    9  N   UNL     1     -39.701 -47.208  12.893  1.00  0.00    -0.353 N 
HETATM   10  C   UNL     1     -40.408 -46.329  12.156  1.00  0.00     0.085 A 
ATOM     11  HN  UNL     1     -38.715 -47.054  13.102  1.00  0.00     0.166 HD
HETATM   12  N   UNL     1     -41.711 -46.505  11.845  1.00  0.00    -0.353 N 
HETATM   13  C   UNL     1     -42.310 -47.626  12.305  1.00  0.00     0.120 A 
ATOM     14  HN  UNL     1     -42.222 -45.821  11.287  1.00  0.00     0.166 HD
BRANCH  10  15
HETATM   15  C   UNL     1     -39.702 -45.094  11.650  1.00  0.00     0.053 A 
HETATM   16  C   UNL     1     -40.482 -43.999  10.958  1.00  0.00     0.013 A 
HETATM   17  C   UNL     1     -39.560 -44.870  10.159  1.00  0.00     0.013 A 
ENDBRANCH  10  15
ENDBRANCH   4   7
BRANCH   1  18
HETATM   18  C   UNL     1     -42.936 -53.252  12.922  1.00  0.00     0.115 C 
HETATM   19  C   UNL     1     -44.279 -53.990  12.705  1.00  0.00     0.143 C 
HETATM   20  C   UNL     1     -44.530 -54.780  13.994  1.00  0.00     0.034 C 
HETATM   21  C   UNL     1     -43.223 -54.795  14.774  1.00  0.00     0.005 C 
HETATM   22  C   UNL     1     -42.171 -54.188  13.860  1.00  0.00     0.028 C 
BRANCH  19  23
HETATM   23  O   UNL     1     -45.366 -53.110  12.434  1.00  0.00    -0.389 OA
HETATM   24  C   UNL     1     -46.294 -53.043  13.511  1.00  0.00     0.202 C 
ENDBRANCH  19  23
ENDBRANCH   1  18
TORSDOF 4
ENDMDL
MODEL 4
REMARK VINA RESULT:      -5.0      2.194      2.826
REMARK  4 active torsions:
REMARK  status: ('A' for Active; 'I' for Inactive)
REMARK    1  A    between atoms: O_2  and  C_3 
REMARK    2  A    between atoms: C_7  and  N_8 
REMARK       I    between atoms: N_8  and  C_9 
REMARK       I    between atoms: C_9  and  N_11 
REMARK    3  A    between atoms: N_11  and  C_12 
REMARK    4  A    between atoms: C_16  and  C_20 
ROOT
HETATM    1  N   UNL     1     -41.525 -52.156  14.001  1.00  0.00    -0.336 N 
HETATM    2  C   UNL     1     -41.436 -51.179  13.029  1.00  0.00     0.321 C 
HETATM    3  O   UNL     1     -41.490 -51.408  11.830  1.00  0.00    -0.247 OA
HETATM    4  N   UNL     1     -41.155 -49.944  13.576  1.00  0.00    -0.306 N 
HETATM    5  H   UNL     1     -42.082 -51.881  14.800  1.00  0.00     0.164 HD
HETATM    6  H   UNL     1     -40.572 -49.993  14.401  1.00  0.00     0.171 HD
ENDROOT
BRANCH   4   7
HETATM    7  C   UNL     1     -41.030 -48.802  12.754  1.00  0.00     0.067 A 
HETATM    8  C   UNL     1     -39.873 -48.467  12.084  1.00  0.00     0.120 A 
HETATM    9  N   UNL     1     -39.749 -47.381  11.288  1.00  0.00    -0.353 N 
HETATM   10  C   UNL     1     -40.825 -46.577  11.168  1.00  0.00     0.085 A 
ATOM     11  HN  UNL     1     -38.878 -47.179  10.798  1.00  0.00     0.166 HD
HETATM   12  N   UNL     1     -42.001 -46.818  11.788  1.00  0.00    -0.353 N 
HETATM   13  C   UNL     1     -42.077 -47.928  12.556  1.00  0.00     0.120 A 
ATOM     14  HN  UNL     1     -42.797 -46.190  11.681  1.00  0.00     0.166 HD
BRANCH  10  15
HETATM   15  C   UNL     1     -40.704 -45.353  10.292  1.00  0.00     0.053 A 
HETATM   16  C   UNL     1     -39.341 -44.828   9.898  1.00  0.00     0.013 A 
HETATM   17  C   UNL     1     -40.177 -44.061  10.878  1.00  0.00     0.013 A 
ENDBRANCH  10  15
ENDBRANCH   4   7
BRANCH   1  18
HETATM   18  C   UNL     1     -41.633 -53.540  13.570  1.00  0.00     0.115 C 
HETATM   19  C   UNL     1     -42.995 -54.226  13.837  1.00  0.00     0.143 C 
HETATM   20  C   UNL     1     -42.850 -54.918  15.197  1.00  0.00     0.034 C 
HETATM   21  C   UNL     1     -41.365 -54.944  15.532  1.00  0.00     0.005 C 
HETATM   22  C   UNL     1     -40.637 -54.448  14.293  1.00  0.00     0.028 C 
BRANCH  19  23
HETATM   23  O   UNL     1     -44.090 -53.315  13.851  1.00  0.00    -0.389 OA
HETATM   24  C   UNL     1     -44.674 -53.145  12.565  1.00  0.00     0.202 C 
ENDBRANCH  19  23
ENDBRANCH   1  18
TORSDOF 4
ENDMDL
MODEL 5
REMARK VINA RESULT:      -4.9      4.362      4.990
REMARK  4 active torsions:
REMARK  status: ('A' for Active; 'I' for Inactive)
REMARK    1  A    between atoms: O_2  and  C_3 
REMARK    2  A    between atoms: C_7  and  N_8 
REMARK       I    between atoms: N_8  and  C_9 
REMARK       I    between atoms: C_9  and  N_11 
REMARK    3  A    between atoms: N_11  and  C_12 
REMARK    4  A    between atoms: C_16  and  C_20 
ROOT
HETATM    1  N   UNL     1     -37.711 -49.175  14.930  1.00  0.00    -0.336 N 
HETATM    2  C   UNL     1     -38.881 -48.909  14.247  1.00  0.00     0.321 C 
HETATM    3  O   UNL     1     -39.978 -48.848  14.782  1.00  0.00    -0.247 OA
HETATM    4  N   UNL     1     -38.671 -48.848  12.885  1.00  0.00    -0.306 N 
HETATM    5  H   UNL     1     -36.927 -48.615  14.621  1.00  0.00     0.164 HD
HETATM    6  H   UNL     1     -37.943 -49.471  12.563  1.00  0.00     0.171 HD
ENDROOT
BRANCH   4   7
HETATM    7  C   UNL     1     -39.739 -48.577  12.002  1.00  0.00     0.067 A 
HETATM    8  C   UNL     1     -40.704 -49.502  11.665  1.00  0.00     0.120 A 
HETATM    9  N   UNL     1     -41.734 -49.246  10.827  1.00  0.00    -0.353 N 
HETATM   10  C   UNL     1     -41.797 -48.015  10.282  1.00  0.00     0.085 A 
ATOM     11  HN  UNL     1     -42.436 -49.956  10.617  1.00  0.00     0.166 HD
HETATM   12  N   UNL     1     -40.897 -47.043  10.547  1.00  0.00    -0.353 N 
HETATM   13  C   UNL     1     -39.898 -47.344  11.406  1.00  0.00     0.120 A 
ATOM     14  HN  UNL     1     -40.968 -46.121  10.116  1.00  0.00     0.166 HD
BRANCH  10  15
HETATM   15  C   UNL     1     -42.934 -47.713   9.336  1.00  0.00     0.053 A 
HETATM   16  C   UNL     1     -43.402 -46.289   9.136  1.00  0.00     0.013 A 
HETATM   17  C   UNL     1     -44.267 -47.255   9.889  1.00  0.00     0.013 A 
ENDBRANCH  10  15
ENDBRANCH   4   7
BRANCH   1  18
HETATM   18  C   UNL     1     -37.798 -49.454  16.355  1.00  0.00     0.115 C 
HETATM   19  C   UNL     1     -37.258 -48.347  17.293  1.00  0.00     0.143 C 
HETATM   20  C   UNL     1     -35.794 -48.713  17.562  1.00  0.00     0.034 C 
HETATM   21  C   UNL     1     -35.598 -50.152  17.105  1.00  0.00     0.005 C 
HETATM   22  C   UNL     1     -36.979 -50.682  16.754  1.00  0.00     0.028 C 
BRANCH  19  23
HETATM   23  O   UNL     1     -37.355 -47.040  16.736  1.00  0.00    -0.389 OA
HETATM   24  C   UNL     1     -38.496 -46.331  17.204  1.00  0.00     0.202 C 
ENDBRANCH  19  23
ENDBRANCH   1  18
TORSDOF 4
ENDMDL
MODEL 6
REMARK VINA RESULT:      -4.8     14.687     16.210
REMARK  4 active torsions:
REMARK  status: ('A' for Active; 'I' for Inactive)
REMARK    1  A    between atoms: O_2  and  C_3 
REMARK    2  A    between atoms: C_7  and  N_8 
REMARK       I    between atoms: N_8  and  C_9 
REMARK       I    between atoms: C_9  and  N_11 
REMARK    3  A    between atoms: N_11  and  C_12 
REMARK    4  A    between atoms: C_16  and  C_20 
ROOT
HETATM    1  N   UNL     1     -51.589 -51.917  -1.052  1.00  0.00    -0.336 N 
HETATM    2  C   UNL     1     -50.933 -50.991  -0.266  1.00  0.00     0.321 C 
HETATM    3  O   UNL     1     -50.108 -51.288   0.585  1.00  0.00    -0.247 OA
HETATM    4  N   UNL     1     -51.415 -49.715  -0.475  1.00  0.00    -0.306 N 
HETATM    5  H   UNL     1     -51.692 -51.627  -2.017  1.00  0.00     0.164 HD
HETATM    6  H   UNL     1     -52.400 -49.689  -0.696  1.00  0.00     0.171 HD
ENDROOT
BRANCH   4   7
HETATM    7  C   UNL     1     -50.872 -48.615   0.225  1.00  0.00     0.067 A 
HETATM    8  C   UNL     1     -49.639 -48.066  -0.053  1.00  0.00     0.120 A 
HETATM    9  N   UNL     1     -49.117 -47.007   0.607  1.00  0.00    -0.353 N 
HETATM   10  C   UNL     1     -49.851 -46.481   1.607  1.00  0.00     0.085 A 
ATOM     11  HN  UNL     1     -48.206 -46.623   0.357  1.00  0.00     0.166 HD
HETATM   12  N   UNL     1     -51.068 -46.951   1.958  1.00  0.00    -0.353 N 
HETATM   13  C   UNL     1     -51.552 -47.998   1.253  1.00  0.00     0.120 A 
ATOM     14  HN  UNL     1     -51.599 -46.533   2.722  1.00  0.00     0.166 HD
BRANCH  10  15
HETATM   15  C   UNL     1     -49.282 -45.304   2.363  1.00  0.00     0.053 A 
HETATM   16  C   UNL     1     -50.203 -44.305   3.026  1.00  0.00     0.013 A 
HETATM   17  C   UNL     1     -49.436 -43.907   1.801  1.00  0.00     0.013 A 
ENDBRANCH  10  15
ENDBRANCH   4   7
BRANCH   1  18
HETATM   18  C   UNL     1     -51.326 -53.326  -0.814  1.00  0.00     0.115 C 
HETATM   19  C   UNL     1     -50.506 -54.054  -1.908  1.00  0.00     0.143 C 
HETATM   20  C   UNL     1     -51.539 -54.662  -2.862  1.00  0.00     0.034 C 
HETATM   21  C   UNL     1     -52.889 -54.606  -2.159  1.00  0.00     0.005 C 
HETATM   22  C   UNL     1     -52.612 -54.149  -0.736  1.00  0.00     0.028 C 
BRANCH  19  23
HETATM   23  O   UNL     1     -49.618 -53.191  -2.612  1.00  0.00    -0.389 OA
HETATM   24  C   UNL     1     -48.310 -53.182  -2.054  1.00  0.00     0.202 C 
ENDBRANCH  19  23
ENDBRANCH   1  18
TORSDOF 4
ENDMDL
MODEL 7
REMARK VINA RESULT:      -4.7      3.561      7.851
REMARK  4 active torsions:
REMARK  status: ('A' for Active; 'I' for Inactive)
REMARK    1  A    between atoms: O_2  and  C_3 
REMARK    2  A    between atoms: C_7  and  N_8 
REMARK       I    between atoms: N_8  and  C_9 
REMARK       I    between atoms: C_9  and  N_11 
REMARK    3  A    between atoms: N_11  and  C_12 
REMARK    4  A    between atoms: C_16  and  C_20 
ROOT
HETATM    1  N   UNL     1     -41.354 -46.867  12.259  1.00  0.00    -0.336 N 
HETATM    2  C   UNL     1     -42.146 -47.992  12.142  1.00  0.00     0.321 C 
HETATM    3  O   UNL     1     -43.219 -48.008  11.557  1.00  0.00    -0.247 OA
HETATM    4  N   UNL     1     -41.636 -49.049  12.868  1.00  0.00    -0.306 N 
HETATM    5  H   UNL     1     -40.366 -47.054  12.147  1.00  0.00     0.164 HD
HETATM    6  H   UNL     1     -41.161 -48.763  13.713  1.00  0.00     0.171 HD
ENDROOT
BRANCH   4   7
HETATM    7  C   UNL     1     -42.291 -50.301  12.877  1.00  0.00     0.067 A 
HETATM    8  C   UNL     1     -43.366 -50.594  13.687  1.00  0.00     0.120 A 
HETATM    9  N   UNL     1     -44.003 -51.786  13.693  1.00  0.00    -0.353 N 
HETATM   10  C   UNL     1     -43.534 -52.742  12.867  1.00  0.00     0.085 A 
ATOM     11  HN  UNL     1     -44.806 -51.955  14.299  1.00  0.00     0.166 HD
HETATM   12  N   UNL     1     -42.484 -52.553  12.039  1.00  0.00    -0.353 N 
HETATM   13  C   UNL     1     -41.895 -51.336  12.057  1.00  0.00     0.120 A 
ATOM     14  HN  UNL     1     -42.149 -53.296  11.426  1.00  0.00     0.166 HD
BRANCH  10  15
HETATM   15  C   UNL     1     -44.226 -54.085  12.867  1.00  0.00     0.053 A 
HETATM   16  C   UNL     1     -45.497 -54.288  13.660  1.00  0.00     0.013 A 
HETATM   17  C   UNL     1     -44.223 -54.928  14.123  1.00  0.00     0.013 A 
ENDBRANCH  10  15
ENDBRANCH   4   7
BRANCH   1  18
HETATM   18  C   UNL     1     -41.853 -45.619  11.705  1.00  0.00     0.115 C 
HETATM   19  C   UNL     1     -40.817 -44.758  10.942  1.00  0.00     0.143 C 
HETATM   20  C   UNL     1     -40.247 -43.783  11.978  1.00  0.00     0.034 C 
HETATM   21  C   UNL     1     -41.167 -43.826  13.191  1.00  0.00     0.005 C 
HETATM   22  C   UNL     1     -42.366 -44.670  12.789  1.00  0.00     0.028 C 
BRANCH  19  23
HETATM   23  O   UNL     1     -39.775 -45.526  10.348  1.00  0.00    -0.389 OA
HETATM   24  C   UNL     1     -39.001 -44.773   9.423  1.00  0.00     0.202 C 
ENDBRANCH  19  23
ENDBRANCH   1  18
TORSDOF 4
ENDMDL
MODEL 8
REMARK VINA RESULT:      -4.7     14.724     17.392
REMARK  4 active torsions:
REMARK  status: ('A' for Active; 'I' for Inactive)
REMARK    1  A    between atoms: O_2  and  C_3 
REMARK    2  A    between atoms: C_7  and  N_8 
REMARK       I    between atoms: N_8  and  C_9 
REMARK       I    between atoms: C_9  and  N_11 
REMARK    3  A    between atoms: N_11  and  C_12 
REMARK    4  A    between atoms: C_16  and  C_20 
ROOT
HETATM    1  N   UNL     1     -50.502 -50.067  -0.255  1.00  0.00    -0.336 N 
HETATM    2  C   UNL     1     -50.200 -51.406  -0.405  1.00  0.00     0.321 C 
HETATM    3  O   UNL     1     -49.827 -52.123   0.511  1.00  0.00    -0.247 OA
HETATM    4  N   UNL     1     -50.252 -51.793  -1.728  1.00  0.00    -0.306 N 
HETATM    5  H   UNL     1     -51.320 -49.776  -0.776  1.00  0.00     0.164 HD
HETATM    6  H   UNL     1     -49.977 -51.063  -2.371  1.00  0.00     0.171 HD
ENDROOT
BRANCH   4   7
HETATM    7  C   UNL     1     -49.985 -53.129  -2.101  1.00  0.00     0.067 A 
HETATM    8  C   UNL     1     -48.717 -53.616  -2.335  1.00  0.00     0.120 A 
HETATM    9  N   UNL     1     -48.453 -54.896  -2.683  1.00  0.00    -0.353 N 
HETATM   10  C   UNL     1     -49.505 -55.727  -2.824  1.00  0.00     0.085 A 
ATOM     11  HN  UNL     1     -47.497 -55.218  -2.832  1.00  0.00     0.166 HD
HETATM   12  N   UNL     1     -50.784 -55.343  -2.621  1.00  0.00    -0.353 N 
HETATM   13  C   UNL     1     -50.991 -54.058  -2.255  1.00  0.00     0.120 A 
ATOM     14  HN  UNL     1     -51.560 -55.994  -2.739  1.00  0.00     0.166 HD
BRANCH  10  15
HETATM   15  C   UNL     1     -49.232 -57.158  -3.222  1.00  0.00     0.053 A 
HETATM   16  C   UNL     1     -48.006 -57.502  -4.038  1.00  0.00     0.013 A 
HETATM   17  C   UNL     1     -49.362 -57.570  -4.673  1.00  0.00     0.013 A 
ENDBRANCH  10  15
ENDBRANCH   4   7
BRANCH   1  18
HETATM   18  C   UNL     1     -50.310 -49.465   1.055  1.00  0.00     0.115 C 
HETATM   19  C   UNL     1     -51.350 -48.393   1.463  1.00  0.00     0.143 C 
HETATM   20  C   UNL     1     -50.751 -47.051   1.031  1.00  0.00     0.034 C 
HETATM   21  C   UNL     1     -49.279 -47.293   0.723  1.00  0.00     0.005 C 
HETATM   22  C   UNL     1     -48.979 -48.719   1.157  1.00  0.00     0.028 C 
BRANCH  19  23
HETATM   23  O   UNL     1     -52.626 -48.590   0.864  1.00  0.00    -0.389 OA
HETATM   24  C   UNL     1     -53.128 -47.410   0.248  1.00  0.00     0.202 C 
ENDBRANCH  19  23
ENDBRANCH   1  18
TORSDOF 4
ENDMDL
MODEL 9
REMARK VINA RESULT:      -4.7      4.119      8.149
REMARK  4 active torsions:
REMARK  status: ('A' for Active; 'I' for Inactive)
REMARK    1  A    between atoms: O_2  and  C_3 
REMARK    2  A    between atoms: C_7  and  N_8 
REMARK       I    between atoms: N_8  and  C_9 
REMARK       I    between atoms: C_9  and  N_11 
REMARK    3  A    between atoms: N_11  and  C_12 
REMARK    4  A    between atoms: C_16  and  C_20 
ROOT
HETATM    1  N   UNL     1     -40.611 -45.944  12.468  1.00  0.00    -0.336 N 
HETATM    2  C   UNL     1     -40.279 -47.284  12.509  1.00  0.00     0.321 C 
HETATM    3  O   UNL     1     -39.152 -47.709  12.304  1.00  0.00    -0.247 OA
HETATM    4  N   UNL     1     -41.394 -48.078  12.683  1.00  0.00    -0.306 N 
HETATM    5  H   UNL     1     -41.252 -45.664  13.199  1.00  0.00     0.164 HD
HETATM    6  H   UNL     1     -42.226 -47.702  12.249  1.00  0.00     0.171 HD
ENDROOT
BRANCH   4   7
HETATM    7  C   UNL     1     -41.274 -49.483  12.761  1.00  0.00     0.067 A 
HETATM    8  C   UNL     1     -41.342 -50.190  13.942  1.00  0.00     0.120 A 
HETATM    9  N   UNL     1     -41.238 -51.536  14.023  1.00  0.00    -0.353 N 
HETATM   10  C   UNL     1     -41.036 -52.210  12.873  1.00  0.00     0.085 A 
ATOM     11  HN  UNL     1     -41.310 -52.020  14.917  1.00  0.00     0.166 HD
HETATM   12  N   UNL     1     -40.951 -51.607  11.667  1.00  0.00    -0.353 N 
HETATM   13  C   UNL     1     -41.082 -50.262  11.640  1.00  0.00     0.120 A 
ATOM     14  HN  UNL     1     -40.794 -52.143  10.815  1.00  0.00     0.166 HD
BRANCH  10  15
HETATM   15  C   UNL     1     -40.907 -53.713  12.944  1.00  0.00     0.053 A 
HETATM   16  C   UNL     1     -41.177 -54.442  14.241  1.00  0.00     0.013 A 
HETATM   17  C   UNL     1     -39.772 -54.331  13.731  1.00  0.00     0.013 A 
ENDBRANCH  10  15
ENDBRANCH   4   7
BRANCH   1  18
HETATM   18  C   UNL     1     -39.572 -44.993  12.105  1.00  0.00     0.115 C 
HETATM   19  C   UNL     1     -39.280 -43.884  13.146  1.00  0.00     0.143 C 
HETATM   20  C   UNL     1     -40.163 -42.698  12.744  1.00  0.00     0.034 C 
HETATM   21  C   UNL     1     -40.665 -42.968  11.333  1.00  0.00     0.005 C 
HETATM   22  C   UNL     1     -39.927 -44.204  10.844  1.00  0.00     0.028 C 
BRANCH  19  23
HETATM   23  O   UNL     1     -39.554 -44.284  14.485  1.00  0.00    -0.389 OA
HETATM   24  C   UNL     1     -40.497 -43.434  15.126  1.00  0.00     0.202 C 
ENDBRANCH  19  23
ENDBRANCH   1  18
TORSDOF 4
ENDMDL
