MODEL 1
REMARK VINA RESULT:      -5.9      0.000      0.000
REMARK  7 active torsions:
REMARK  status: ('A' for Active; 'I' for Inactive)
REMARK    1  A    between atoms: C_2  and  C_3 
REMARK    2  A    between atoms: C_3  and  C_4 
REMARK    3  A    between atoms: C_4  and  N_5 
REMARK    4  A    between atoms: C_6  and  N_7 
REMARK    5  A    between atoms: C_8  and  N_9 
REMARK    6  A    between atoms: N_9  and  C_10 
REMARK       I    between atoms: N_9  and  C_12 
REMARK    7  A    between atoms: C_12  and  C_14 
ROOT
HETATM    1  N   UNL     1     -42.410 -46.265  10.023  1.00  0.00    -0.293 N 
HETATM    2  C   UNL     1     -41.856 -47.507  10.419  1.00  0.00     0.116 C 
HETATM    3  C   UNL     1     -41.282 -47.638  11.665  1.00  0.00     0.139 C 
HETATM    4  C   UNL     1     -41.672 -46.438  12.487  1.00  0.00     0.259 C 
HETATM    5  O   UNL     1     -42.223 -46.525  13.579  1.00  0.00    -0.272 OA
HETATM    6  N   UNL     1     -41.497 -45.246  11.892  1.00  0.00    -0.173 NA
HETATM    7  C   UNL     1     -42.223 -45.098  10.759  1.00  0.00     0.308 C 
HETATM    8  O   UNL     1     -42.711 -44.004  10.486  1.00  0.00    -0.253 OA
HETATM    9  H   UNL     1     -41.677 -44.457  12.499  1.00  0.00     0.141 HD
ENDROOT
BRANCH   3  10
HETATM   10  N   UNL     1     -40.548 -48.737  12.260  1.00  0.00    -0.305 N 
HETATM   11  C   UNL     1     -41.171 -49.971  12.624  1.00  0.00     0.283 C 
HETATM   12  O   UNL     1     -42.302 -50.291  12.243  1.00  0.00    -0.265 OA
BRANCH  10  13
HETATM   13  C   UNL     1     -39.078 -48.745  12.422  1.00  0.00     0.128 C 
HETATM   14  C   UNL     1     -38.044 -49.407  11.529  1.00  0.00     0.027 C 
ENDBRANCH  10  13
BRANCH  11  15
HETATM   15  C   UNL     1     -40.456 -51.002  13.521  1.00  0.00     0.159 C 
HETATM   16  C   UNL     1     -40.073 -52.149  12.933  1.00  0.00     0.177 C 
HETATM   17  O   UNL     1     -39.483 -53.221  13.546  1.00  0.00    -0.358 OA
HETATM   18  C   UNL     1     -39.190 -53.032  14.929  1.00  0.00     0.201 C 
HETATM   19  C   UNL     1     -40.047 -51.981  15.626  1.00  0.00     0.202 C 
HETATM   20  O   UNL     1     -40.261 -50.788  14.871  1.00  0.00    -0.342 OA
ENDBRANCH  11  15
ENDBRANCH   3  10
BRANCH   2  21
HETATM   21  N   UNL     1     -41.971 -48.527   9.492  1.00  0.00    -0.286 NA
HETATM   22  H   UNL     1     -42.776 -48.391   8.892  1.00  0.00     0.125 HD
HETATM   23  H   UNL     1     -41.155 -48.594   8.882  1.00  0.00     0.125 HD
ENDBRANCH   2  21
BRANCH   1  24
HETATM   24  C   UNL     1     -43.204 -46.140   8.782  1.00  0.00     0.134 C 
BRANCH  24  25
HETATM   25  C   UNL     1     -44.713 -46.050   9.033  1.00  0.00     0.020 C 
BRANCH  25  26
HETATM   26  C   UNL     1     -45.369 -47.431   9.040  1.00  0.00    -0.003 C 
HETATM   27  C   UNL     1     -46.885 -47.314   9.064  1.00  0.00     0.005 C 
ENDBRANCH  25  26
ENDBRANCH  24  25
ENDBRANCH   1  24
TORSDOF 7
ENDMDL
MODEL 2
REMARK VINA RESULT:      -5.7      2.501      7.117
REMARK  7 active torsions:
REMARK  status: ('A' for Active; 'I' for Inactive)
REMARK    1  A    between atoms: C_2  and  C_3 
REMARK    2  A    between atoms: C_3  and  C_4 
REMARK    3  A    between atoms: C_4  and  N_5 
REMARK    4  A    between atoms: C_6  and  N_7 
REMARK    5  A    between atoms: C_8  and  N_9 
REMARK    6  A    between atoms: N_9  and  C_10 
REMARK       I    between atoms: N_9  and  C_12 
REMARK    7  A    between atoms: C_12  and  C_14 
ROOT
HETATM    1  N   UNL     1     -41.940 -52.574  12.564  1.00  0.00    -0.293 N 
HETATM    2  C   UNL     1     -41.298 -51.388  12.129  1.00  0.00     0.116 C 
HETATM    3  C   UNL     1     -41.966 -50.184  12.187  1.00  0.00     0.139 C 
HETATM    4  C   UNL     1     -43.195 -50.372  13.035  1.00  0.00     0.259 C 
HETATM    5  O   UNL     1     -43.442 -49.680  14.017  1.00  0.00    -0.272 OA
HETATM    6  N   UNL     1     -43.952 -51.440  12.731  1.00  0.00    -0.173 NA
HETATM    7  C   UNL     1     -43.298 -52.618  12.862  1.00  0.00     0.308 C 
HETATM    8  O   UNL     1     -43.899 -53.605  13.280  1.00  0.00    -0.253 OA
HETATM    9  H   UNL     1     -44.817 -51.488  13.253  1.00  0.00     0.141 HD
ENDROOT
BRANCH   3  10
HETATM   10  N   UNL     1     -41.595 -48.870  11.700  1.00  0.00    -0.305 N 
HETATM   11  C   UNL     1     -40.481 -48.143  12.221  1.00  0.00     0.283 C 
HETATM   12  O   UNL     1     -39.613 -48.661  12.933  1.00  0.00    -0.265 OA
BRANCH  10  13
HETATM   13  C   UNL     1     -42.238 -48.217  10.539  1.00  0.00     0.128 C 
HETATM   14  C   UNL     1     -43.600 -47.547  10.482  1.00  0.00     0.027 C 
ENDBRANCH  10  13
BRANCH  11  15
HETATM   15  C   UNL     1     -40.281 -46.644  11.916  1.00  0.00     0.159 C 
HETATM   16  C   UNL     1     -40.795 -45.774  12.803  1.00  0.00     0.177 C 
HETATM   17  O   UNL     1     -40.789 -44.410  12.702  1.00  0.00    -0.358 OA
HETATM   18  C   UNL     1     -40.091 -43.896  11.570  1.00  0.00     0.201 C 
HETATM   19  C   UNL     1     -39.972 -44.866  10.400  1.00  0.00     0.202 C 
HETATM   20  O   UNL     1     -39.653 -46.209  10.765  1.00  0.00    -0.342 OA
ENDBRANCH  11  15
ENDBRANCH   3  10
BRANCH   2  21
HETATM   21  N   UNL     1     -39.994 -51.548  11.694  1.00  0.00    -0.286 NA
HETATM   22  H   UNL     1     -39.440 -52.059  12.371  1.00  0.00     0.125 HD
HETATM   23  H   UNL     1     -39.936 -52.062  10.814  1.00  0.00     0.125 HD
ENDBRANCH   2  21
BRANCH   1  24
HETATM   24  C   UNL     1     -41.194 -53.843  12.702  1.00  0.00     0.134 C 
BRANCH  24  25
HETATM   25  C   UNL     1     -40.647 -54.076  14.114  1.00  0.00     0.020 C 
BRANCH  25  26
HETATM   26  C   UNL     1     -39.216 -54.613  14.085  1.00  0.00    -0.003 C 
HETATM   27  C   UNL     1     -38.808 -55.150  15.449  1.00  0.00     0.005 C 
ENDBRANCH  25  26
ENDBRANCH  24  25
ENDBRANCH   1  24
TORSDOF 7
ENDMDL
MODEL 3
REMARK VINA RESULT:      -5.7      2.200      2.850
REMARK  7 active torsions:
REMARK  status: ('A' for Active; 'I' for Inactive)
REMARK    1  A    between atoms: C_2  and  C_3 
REMARK    2  A    between atoms: C_3  and  C_4 
REMARK    3  A    between atoms: C_4  and  N_5 
REMARK    4  A    between atoms: C_6  and  N_7 
REMARK    5  A    between atoms: C_8  and  N_9 
REMARK    6  A    between atoms: N_9  and  C_10 
REMARK       I    between atoms: N_9  and  C_12 
REMARK    7  A    between atoms: C_12  and  C_14 
ROOT
HETATM    1  N   UNL     1     -43.170 -47.127  10.350  1.00  0.00    -0.293 N 
HETATM    2  C   UNL     1     -42.446 -47.903  11.287  1.00  0.00     0.116 C 
HETATM    3  C   UNL     1     -41.152 -47.556  11.613  1.00  0.00     0.139 C 
HETATM    4  C   UNL     1     -40.896 -46.167  11.092  1.00  0.00     0.259 C 
HETATM    5  O   UNL     1     -40.506 -45.247  11.802  1.00  0.00    -0.272 OA
HETATM    6  N   UNL     1     -41.247 -45.954   9.812  1.00  0.00    -0.173 NA
HETATM    7  C   UNL     1     -42.568 -46.138   9.579  1.00  0.00     0.308 C 
HETATM    8  O   UNL     1     -43.153 -45.408   8.781  1.00  0.00    -0.253 OA
HETATM    9  H   UNL     1     -40.978 -45.045   9.462  1.00  0.00     0.141 HD
ENDROOT
BRANCH   3  10
HETATM   10  N   UNL     1     -40.166 -48.235  12.430  1.00  0.00    -0.305 N 
HETATM   11  C   UNL     1     -39.941 -47.901  13.801  1.00  0.00     0.283 C 
HETATM   12  O   UNL     1     -40.717 -47.200  14.459  1.00  0.00    -0.265 OA
BRANCH  10  13
HETATM   13  C   UNL     1     -39.399 -49.415  11.974  1.00  0.00     0.128 C 
HETATM   14  C   UNL     1     -37.992 -49.450  11.405  1.00  0.00     0.027 C 
ENDBRANCH  10  13
BRANCH  11  15
HETATM   15  C   UNL     1     -38.700 -48.411  14.563  1.00  0.00     0.159 C 
HETATM   16  C   UNL     1     -37.632 -47.595  14.590  1.00  0.00     0.177 C 
HETATM   17  O   UNL     1     -36.414 -47.866  15.151  1.00  0.00    -0.358 OA
HETATM   18  C   UNL     1     -36.334 -49.117  15.832  1.00  0.00     0.201 C 
HETATM   19  C   UNL     1     -37.343 -50.162  15.368  1.00  0.00     0.202 C 
HETATM   20  O   UNL     1     -38.662 -49.662  15.145  1.00  0.00    -0.342 OA
ENDBRANCH  11  15
ENDBRANCH   3  10
BRANCH   2  21
HETATM   21  N   UNL     1     -43.139 -48.967  11.836  1.00  0.00    -0.286 NA
HETATM   22  H   UNL     1     -42.784 -49.204  12.754  1.00  0.00     0.125 HD
HETATM   23  H   UNL     1     -44.135 -48.770  11.944  1.00  0.00     0.125 HD
ENDBRANCH   2  21
BRANCH   1  24
HETATM   24  C   UNL     1     -44.615 -47.349  10.124  1.00  0.00     0.134 C 
BRANCH  24  25
HETATM   25  C   UNL     1     -44.945 -47.797   8.696  1.00  0.00     0.020 C 
BRANCH  25  26
HETATM   26  C   UNL     1     -46.394 -48.268   8.571  1.00  0.00    -0.003 C 
HETATM   27  C   UNL     1     -46.541 -49.287   7.452  1.00  0.00     0.005 C 
ENDBRANCH  25  26
ENDBRANCH  24  25
ENDBRANCH   1  24
TORSDOF 7
ENDMDL
MODEL 4
REMARK VINA RESULT:      -5.7      2.048      2.473
REMARK  7 active torsions:
REMARK  status: ('A' for Active; 'I' for Inactive)
REMARK    1  A    between atoms: C_2  and  C_3 
REMARK    2  A    between atoms: C_3  and  C_4 
REMARK    3  A    between atoms: C_4  and  N_5 
REMARK    4  A    between atoms: C_6  and  N_7 
REMARK    5  A    between atoms: C_8  and  N_9 
REMARK    6  A    between atoms: N_9  and  C_10 
REMARK       I    between atoms: N_9  and  C_12 
REMARK    7  A    between atoms: C_12  and  C_14 
ROOT
HETATM    1  N   UNL     1     -42.740 -46.340   9.751  1.00  0.00    -0.293 N 
HETATM    2  C   UNL     1     -42.041 -47.301  10.521  1.00  0.00     0.116 C 
HETATM    3  C   UNL     1     -41.782 -47.058  11.853  1.00  0.00     0.139 C 
HETATM    4  C   UNL     1     -42.620 -45.885  12.286  1.00  0.00     0.259 C 
HETATM    5  O   UNL     1     -43.393 -45.930  13.237  1.00  0.00    -0.272 OA
HETATM    6  N   UNL     1     -42.571 -44.810  11.481  1.00  0.00    -0.173 NA
HETATM    7  C   UNL     1     -43.006 -45.058  10.224  1.00  0.00     0.308 C 
HETATM    8  O   UNL     1     -43.641 -44.198   9.618  1.00  0.00    -0.253 OA
HETATM    9  H   UNL     1     -43.067 -44.006  11.844  1.00  0.00     0.141 HD
ENDROOT
BRANCH   3  10
HETATM   10  N   UNL     1     -40.994 -47.802  12.816  1.00  0.00    -0.305 N 
HETATM   11  C   UNL     1     -39.684 -47.395  13.217  1.00  0.00     0.283 C 
HETATM   12  O   UNL     1     -39.226 -46.272  12.977  1.00  0.00    -0.265 OA
BRANCH  10  13
HETATM   13  C   UNL     1     -41.511 -48.964  13.572  1.00  0.00     0.128 C 
HETATM   14  C   UNL     1     -42.389 -50.092  13.061  1.00  0.00     0.027 C 
ENDBRANCH  10  13
BRANCH  11  15
HETATM   15  C   UNL     1     -38.748 -48.340  13.998  1.00  0.00     0.159 C 
HETATM   16  C   UNL     1     -38.109 -49.282  13.282  1.00  0.00     0.177 C 
HETATM   17  O   UNL     1     -37.285 -50.258  13.772  1.00  0.00    -0.358 OA
HETATM   18  C   UNL     1     -37.044 -50.188  15.175  1.00  0.00     0.201 C 
HETATM   19  C   UNL     1     -38.122 -49.463  15.973  1.00  0.00     0.202 C 
HETATM   20  O   UNL     1     -38.609 -48.264  15.369  1.00  0.00    -0.342 OA
ENDBRANCH  11  15
ENDBRANCH   3  10
BRANCH   2  21
HETATM   21  N   UNL     1     -41.691 -48.457   9.847  1.00  0.00    -0.286 NA
HETATM   22  H   UNL     1     -42.154 -48.513   8.947  1.00  0.00     0.125 HD
HETATM   23  H   UNL     1     -40.688 -48.518   9.669  1.00  0.00     0.125 HD
ENDBRANCH   2  21
BRANCH   1  24
HETATM   24  C   UNL     1     -43.207 -46.646   8.382  1.00  0.00     0.134 C 
BRANCH  24  25
HETATM   25  C   UNL     1     -44.353 -47.662   8.344  1.00  0.00     0.020 C 
BRANCH  25  26
HETATM   26  C   UNL     1     -45.575 -47.166   9.117  1.00  0.00    -0.003 C 
HETATM   27  C   UNL     1     -46.744 -48.127   8.962  1.00  0.00     0.005 C 
ENDBRANCH  25  26
ENDBRANCH  24  25
ENDBRANCH   1  24
TORSDOF 7
ENDMDL
MODEL 5
REMARK VINA RESULT:      -5.6      1.722      2.255
REMARK  7 active torsions:
REMARK  status: ('A' for Active; 'I' for Inactive)
REMARK    1  A    between atoms: C_2  and  C_3 
REMARK    2  A    between atoms: C_3  and  C_4 
REMARK    3  A    between atoms: C_4  and  N_5 
REMARK    4  A    between atoms: C_6  and  N_7 
REMARK    5  A    between atoms: C_8  and  N_9 
REMARK    6  A    between atoms: N_9  and  C_10 
REMARK       I    between atoms: N_9  and  C_12 
REMARK    7  A    between atoms: C_12  and  C_14 
ROOT
HETATM    1  N   UNL     1     -42.128 -46.719  10.638  1.00  0.00    -0.293 N 
HETATM    2  C   UNL     1     -42.224 -47.901  11.414  1.00  0.00     0.116 C 
HETATM    3  C   UNL     1     -41.145 -48.321  12.162  1.00  0.00     0.139 C 
HETATM    4  C   UNL     1     -40.151 -47.192  12.224  1.00  0.00     0.259 C 
HETATM    5  O   UNL     1     -39.724 -46.733  13.277  1.00  0.00    -0.272 OA
HETATM    6  N   UNL     1     -39.850 -46.619  11.046  1.00  0.00    -0.173 NA
HETATM    7  C   UNL     1     -40.920 -46.062  10.430  1.00  0.00     0.308 C 
HETATM    8  O   UNL     1     -40.783 -45.014   9.801  1.00  0.00    -0.253 OA
HETATM    9  H   UNL     1     -39.113 -45.929  11.104  1.00  0.00     0.141 HD
ENDROOT
BRANCH   3  10
HETATM   10  N   UNL     1     -40.938 -49.534  12.929  1.00  0.00    -0.305 N 
HETATM   11  C   UNL     1     -40.033 -50.559  12.517  1.00  0.00     0.283 C 
HETATM   12  O   UNL     1     -39.187 -50.394  11.631  1.00  0.00    -0.265 OA
BRANCH  10  13
HETATM   13  C   UNL     1     -41.531 -49.767  14.264  1.00  0.00     0.128 C 
HETATM   14  C   UNL     1     -42.985 -50.043  14.603  1.00  0.00     0.027 C 
ENDBRANCH  10  13
BRANCH  11  15
HETATM   15  C   UNL     1     -40.046 -51.958  13.168  1.00  0.00     0.159 C 
HETATM   16  C   UNL     1     -39.003 -52.264  13.960  1.00  0.00     0.177 C 
HETATM   17  O   UNL     1     -38.779 -53.460  14.585  1.00  0.00    -0.358 OA
HETATM   18  C   UNL     1     -39.817 -54.424  14.421  1.00  0.00     0.201 C 
HETATM   19  C   UNL     1     -40.681 -54.227  13.180  1.00  0.00     0.202 C 
HETATM   20  O   UNL     1     -41.048 -52.873  12.915  1.00  0.00    -0.342 OA
ENDBRANCH  11  15
ENDBRANCH   3  10
BRANCH   2  21
HETATM   21  N   UNL     1     -43.451 -48.537  11.372  1.00  0.00    -0.286 NA
HETATM   22  H   UNL     1     -44.209 -47.871  11.284  1.00  0.00     0.125 HD
HETATM   23  H   UNL     1     -43.530 -49.183  10.585  1.00  0.00     0.125 HD
ENDBRANCH   2  21
BRANCH   1  24
HETATM   24  C   UNL     1     -43.318 -46.133   9.984  1.00  0.00     0.134 C 
BRANCH  24  25
HETATM   25  C   UNL     1     -43.492 -46.579   8.529  1.00  0.00     0.020 C 
BRANCH  25  26
HETATM   26  C   UNL     1     -44.622 -47.599   8.381  1.00  0.00    -0.003 C 
HETATM   27  C   UNL     1     -45.883 -47.121   9.084  1.00  0.00     0.005 C 
ENDBRANCH  25  26
ENDBRANCH  24  25
ENDBRANCH   1  24
TORSDOF 7
ENDMDL
MODEL 6
REMARK VINA RESULT:      -5.5      2.662      6.885
REMARK  7 active torsions:
REMARK  status: ('A' for Active; 'I' for Inactive)
REMARK    1  A    between atoms: C_2  and  C_3 
REMARK    2  A    between atoms: C_3  and  C_4 
REMARK    3  A    between atoms: C_4  and  N_5 
REMARK    4  A    between atoms: C_6  and  N_7 
REMARK    5  A    between atoms: C_8  and  N_9 
REMARK    6  A    between atoms: N_9  and  C_10 
REMARK       I    between atoms: N_9  and  C_12 
REMARK    7  A    between atoms: C_12  and  C_14 
ROOT
HETATM    1  N   UNL     1     -40.917 -52.600  12.989  1.00  0.00    -0.293 N 
HETATM    2  C   UNL     1     -41.281 -51.260  12.708  1.00  0.00     0.116 C 
HETATM    3  C   UNL     1     -40.312 -50.282  12.651  1.00  0.00     0.139 C 
HETATM    4  C   UNL     1     -38.968 -50.958  12.599  1.00  0.00     0.259 C 
HETATM    5  O   UNL     1     -38.145 -50.745  11.714  1.00  0.00    -0.272 OA
HETATM    6  N   UNL     1     -38.766 -51.919  13.516  1.00  0.00    -0.173 NA
HETATM    7  C   UNL     1     -39.639 -52.949  13.417  1.00  0.00     0.308 C 
HETATM    8  O   UNL     1     -39.256 -54.096  13.637  1.00  0.00    -0.253 OA
HETATM    9  H   UNL     1     -37.825 -52.290  13.518  1.00  0.00     0.141 HD
ENDROOT
BRANCH   3  10
HETATM   10  N   UNL     1     -40.424 -48.844  12.508  1.00  0.00    -0.305 N 
HETATM   11  C   UNL     1     -40.900 -48.224  11.312  1.00  0.00     0.283 C 
HETATM   12  O   UNL     1     -41.477 -48.849  10.415  1.00  0.00    -0.265 OA
BRANCH  10  13
HETATM   13  C   UNL     1     -40.190 -47.892  13.616  1.00  0.00     0.128 C 
HETATM   14  C   UNL     1     -38.860 -47.442  14.194  1.00  0.00     0.027 C 
ENDBRANCH  10  13
BRANCH  11  15
HETATM   15  C   UNL     1     -40.730 -46.711  11.063  1.00  0.00     0.159 C 
HETATM   16  C   UNL     1     -41.855 -45.977  11.026  1.00  0.00     0.177 C 
HETATM   17  O   UNL     1     -41.945 -44.637  10.760  1.00  0.00    -0.358 OA
HETATM   18  C   UNL     1     -40.693 -43.976  10.589  1.00  0.00     0.201 C 
HETATM   19  C   UNL     1     -39.545 -44.884  10.162  1.00  0.00     0.202 C 
HETATM   20  O   UNL     1     -39.493 -46.141  10.838  1.00  0.00    -0.342 OA
ENDBRANCH  11  15
ENDBRANCH   3  10
BRANCH   2  21
HETATM   21  N   UNL     1     -42.628 -51.051  12.477  1.00  0.00    -0.286 NA
HETATM   22  H   UNL     1     -42.836 -51.042  11.485  1.00  0.00     0.125 HD
HETATM   23  H   UNL     1     -43.214 -51.774  12.897  1.00  0.00     0.125 HD
ENDBRANCH   2  21
BRANCH   1  24
HETATM   24  C   UNL     1     -41.894 -53.703  12.865  1.00  0.00     0.134 C 
BRANCH  24  25
HETATM   25  C   UNL     1     -42.410 -54.213  14.214  1.00  0.00     0.020 C 
BRANCH  25  26
HETATM   26  C   UNL     1     -43.931 -54.360  14.219  1.00  0.00    -0.003 C 
HETATM   27  C   UNL     1     -44.503 -54.163  12.823  1.00  0.00     0.005 C 
ENDBRANCH  25  26
ENDBRANCH  24  25
ENDBRANCH   1  24
TORSDOF 7
ENDMDL
MODEL 7
REMARK VINA RESULT:      -5.4      5.621      7.772
REMARK  7 active torsions:
REMARK  status: ('A' for Active; 'I' for Inactive)
REMARK    1  A    between atoms: C_2  and  C_3 
REMARK    2  A    between atoms: C_3  and  C_4 
REMARK    3  A    between atoms: C_4  and  N_5 
REMARK    4  A    between atoms: C_6  and  N_7 
REMARK    5  A    between atoms: C_8  and  N_9 
REMARK    6  A    between atoms: N_9  and  C_10 
REMARK       I    between atoms: N_9  and  C_12 
REMARK    7  A    between atoms: C_12  and  C_14 
ROOT
HETATM    1  N   UNL     1     -42.395 -53.717  13.310  1.00  0.00    -0.293 N 
HETATM    2  C   UNL     1     -42.247 -54.485  14.491  1.00  0.00     0.116 C 
HETATM    3  C   UNL     1     -41.042 -54.489  15.161  1.00  0.00     0.139 C 
HETATM    4  C   UNL     1     -40.200 -53.366  14.616  1.00  0.00     0.259 C 
HETATM    5  O   UNL     1     -39.714 -52.490  15.322  1.00  0.00    -0.272 OA
HETATM    6  N   UNL     1     -40.117 -53.302  13.276  1.00  0.00    -0.173 NA
HETATM    7  C   UNL     1     -41.314 -53.118  12.670  1.00  0.00     0.308 C 
HETATM    8  O   UNL     1     -41.388 -52.410  11.669  1.00  0.00    -0.253 OA
HETATM    9  H   UNL     1     -39.472 -52.598  12.941  1.00  0.00     0.141 HD
ENDROOT
BRANCH   3  10
HETATM   10  N   UNL     1     -40.592 -55.268  16.298  1.00  0.00    -0.305 N 
HETATM   11  C   UNL     1     -39.400 -56.055  16.268  1.00  0.00     0.283 C 
HETATM   12  O   UNL     1     -38.543 -55.943  15.385  1.00  0.00    -0.265 OA
BRANCH  10  13
HETATM   13  C   UNL     1     -41.238 -55.220  17.628  1.00  0.00     0.128 C 
HETATM   14  C   UNL     1     -42.040 -54.082  18.235  1.00  0.00     0.027 C 
ENDBRANCH  10  13
BRANCH  11  15
HETATM   15  C   UNL     1     -39.097 -57.103  17.359  1.00  0.00     0.159 C 
HETATM   16  C   UNL     1     -38.153 -56.780  18.259  1.00  0.00     0.177 C 
HETATM   17  O   UNL     1     -37.683 -57.577  19.268  1.00  0.00    -0.358 OA
HETATM   18  C   UNL     1     -38.342 -58.836  19.392  1.00  0.00     0.201 C 
HETATM   19  C   UNL     1     -39.013 -59.333  18.116  1.00  0.00     0.202 C 
HETATM   20  O   UNL     1     -39.723 -58.334  17.384  1.00  0.00    -0.342 OA
ENDBRANCH  11  15
ENDBRANCH   3  10
BRANCH   2  21
HETATM   21  N   UNL     1     -43.379 -55.166  14.899  1.00  0.00    -0.286 NA
HETATM   22  H   UNL     1     -43.226 -55.639  15.782  1.00  0.00     0.125 HD
HETATM   23  H   UNL     1     -44.182 -54.549  15.027  1.00  0.00     0.125 HD
ENDBRANCH   2  21
BRANCH   1  24
HETATM   24  C   UNL     1     -43.719 -53.531  12.678  1.00  0.00     0.134 C 
BRANCH  24  25
HETATM   25  C   UNL     1     -44.421 -52.238  13.107  1.00  0.00     0.020 C 
BRANCH  25  26
HETATM   26  C   UNL     1     -45.938 -52.337  12.946  1.00  0.00    -0.003 C 
HETATM   27  C   UNL     1     -46.653 -51.479  13.979  1.00  0.00     0.005 C 
ENDBRANCH  25  26
ENDBRANCH  24  25
ENDBRANCH   1  24
TORSDOF 7
ENDMDL
MODEL 8
REMARK VINA RESULT:      -5.4      2.573      3.028
REMARK  7 active torsions:
REMARK  status: ('A' for Active; 'I' for Inactive)
REMARK    1  A    between atoms: C_2  and  C_3 
REMARK    2  A    between atoms: C_3  and  C_4 
REMARK    3  A    between atoms: C_4  and  N_5 
REMARK    4  A    between atoms: C_6  and  N_7 
REMARK    5  A    between atoms: C_8  and  N_9 
REMARK    6  A    between atoms: N_9  and  C_10 
REMARK       I    between atoms: N_9  and  C_12 
REMARK    7  A    between atoms: C_12  and  C_14 
ROOT
HETATM    1  N   UNL     1     -41.369 -47.403  10.620  1.00  0.00    -0.293 N 
HETATM    2  C   UNL     1     -40.607 -48.308  11.400  1.00  0.00     0.116 C 
HETATM    3  C   UNL     1     -39.609 -47.834  12.223  1.00  0.00     0.139 C 
HETATM    4  C   UNL     1     -39.769 -46.342  12.341  1.00  0.00     0.259 C 
HETATM    5  O   UNL     1     -39.874 -45.763  13.417  1.00  0.00    -0.272 OA
HETATM    6  N   UNL     1     -39.924 -45.682  11.181  1.00  0.00    -0.173 NA
HETATM    7  C   UNL     1     -41.023 -46.061  10.488  1.00  0.00     0.308 C 
HETATM    8  O   UNL     1     -41.667 -45.223   9.860  1.00  0.00    -0.253 OA
HETATM    9  H   UNL     1     -39.934 -44.675  11.282  1.00  0.00     0.141 HD
ENDROOT
BRANCH   3  10
HETATM   10  N   UNL     1     -38.619 -48.538  13.015  1.00  0.00    -0.305 N 
HETATM   11  C   UNL     1     -38.737 -48.696  14.430  1.00  0.00     0.283 C 
HETATM   12  O   UNL     1     -39.784 -48.473  15.047  1.00  0.00    -0.265 OA
BRANCH  10  13
HETATM   13  C   UNL     1     -37.475 -49.271  12.429  1.00  0.00     0.128 C 
HETATM   14  C   UNL     1     -37.464 -50.677  11.855  1.00  0.00     0.027 C 
ENDBRANCH  10  13
BRANCH  11  15
HETATM   15  C   UNL     1     -37.548 -49.172  15.291  1.00  0.00     0.159 C 
HETATM   16  C   UNL     1     -37.714 -50.324  15.963  1.00  0.00     0.177 C 
HETATM   17  O   UNL     1     -36.823 -50.898  16.828  1.00  0.00    -0.358 OA
HETATM   18  C   UNL     1     -35.575 -50.218  16.940  1.00  0.00     0.201 C 
HETATM   19  C   UNL     1     -35.620 -48.738  16.575  1.00  0.00     0.202 C 
HETATM   20  O   UNL     1     -36.389 -48.432  15.411  1.00  0.00    -0.342 OA
ENDBRANCH  11  15
ENDBRANCH   3  10
BRANCH   2  21
HETATM   21  N   UNL     1     -40.968 -49.638  11.281  1.00  0.00    -0.286 NA
HETATM   22  H   UNL     1     -41.573 -49.925  12.042  1.00  0.00     0.125 HD
HETATM   23  H   UNL     1     -41.471 -49.830  10.413  1.00  0.00     0.125 HD
ENDBRANCH   2  21
BRANCH   1  24
HETATM   24  C   UNL     1     -42.569 -47.849   9.881  1.00  0.00     0.134 C 
BRANCH  24  25
HETATM   25  C   UNL     1     -43.877 -47.605  10.642  1.00  0.00     0.020 C 
BRANCH  25  26
HETATM   26  C   UNL     1     -45.071 -47.494   9.694  1.00  0.00    -0.003 C 
HETATM   27  C   UNL     1     -44.653 -47.765   8.257  1.00  0.00     0.005 C 
ENDBRANCH  25  26
ENDBRANCH  24  25
ENDBRANCH   1  24
TORSDOF 7
ENDMDL
MODEL 9
REMARK VINA RESULT:      -5.4      2.764      3.309
REMARK  7 active torsions:
REMARK  status: ('A' for Active; 'I' for Inactive)
REMARK    1  A    between atoms: C_2  and  C_3 
REMARK    2  A    between atoms: C_3  and  C_4 
REMARK    3  A    between atoms: C_4  and  N_5 
REMARK    4  A    between atoms: C_6  and  N_7 
REMARK    5  A    between atoms: C_8  and  N_9 
REMARK    6  A    between atoms: N_9  and  C_10 
REMARK       I    between atoms: N_9  and  C_12 
REMARK    7  A    between atoms: C_12  and  C_14 
ROOT
HETATM    1  N   UNL     1     -39.823 -45.168  11.943  1.00  0.00    -0.293 N 
HETATM    2  C   UNL     1     -39.955 -46.566  11.756  1.00  0.00     0.116 C 
HETATM    3  C   UNL     1     -39.544 -47.433  12.746  1.00  0.00     0.139 C 
HETATM    4  C   UNL     1     -39.316 -46.634  14.001  1.00  0.00     0.259 C 
HETATM    5  O   UNL     1     -39.863 -46.893  15.068  1.00  0.00    -0.272 OA
HETATM    6  N   UNL     1     -38.569 -45.527  13.856  1.00  0.00    -0.173 NA
HETATM    7  C   UNL     1     -39.106 -44.623  13.004  1.00  0.00     0.308 C 
HETATM    8  O   UNL     1     -38.993 -43.422  13.238  1.00  0.00    -0.253 OA
HETATM    9  H   UNL     1     -38.354 -45.063  14.729  1.00  0.00     0.141 HD
ENDROOT
BRANCH   3  10
HETATM   10  N   UNL     1     -39.453 -48.880  12.761  1.00  0.00    -0.305 N 
HETATM   11  C   UNL     1     -40.602 -49.722  12.864  1.00  0.00     0.283 C 
HETATM   12  O   UNL     1     -41.755 -49.310  12.699  1.00  0.00    -0.265 OA
BRANCH  10  13
HETATM   13  C   UNL     1     -38.192 -49.621  12.537  1.00  0.00     0.128 C 
HETATM   14  C   UNL     1     -37.449 -49.824  11.228  1.00  0.00     0.027 C 
ENDBRANCH  10  13
BRANCH  11  15
HETATM   15  C   UNL     1     -40.474 -51.226  13.181  1.00  0.00     0.159 C 
HETATM   16  C   UNL     1     -40.668 -52.077  12.158  1.00  0.00     0.177 C 
HETATM   17  O   UNL     1     -40.664 -53.444  12.224  1.00  0.00    -0.358 OA
HETATM   18  C   UNL     1     -40.342 -53.980  13.505  1.00  0.00     0.201 C 
HETATM   19  C   UNL     1     -40.614 -53.043  14.676  1.00  0.00     0.202 C 
HETATM   20  O   UNL     1     -40.226 -51.686  14.459  1.00  0.00    -0.342 OA
ENDBRANCH  11  15
ENDBRANCH   3  10
BRANCH   2  21
HETATM   21  N   UNL     1     -40.533 -46.950  10.560  1.00  0.00    -0.286 NA
HETATM   22  H   UNL     1     -39.908 -47.537  10.020  1.00  0.00     0.125 HD
HETATM   23  H   UNL     1     -41.395 -47.480  10.696  1.00  0.00     0.125 HD
ENDBRANCH   2  21
BRANCH   1  24
HETATM   24  C   UNL     1     -40.429 -44.208  10.995  1.00  0.00     0.134 C 
BRANCH  24  25
HETATM   25  C   UNL     1     -41.818 -43.724  11.425  1.00  0.00     0.020 C 
BRANCH  25  26
HETATM   26  C   UNL     1     -42.079 -42.285  10.979  1.00  0.00    -0.003 C 
HETATM   27  C   UNL     1     -41.203 -41.308  11.747  1.00  0.00     0.005 C 
ENDBRANCH  25  26
ENDBRANCH  24  25
ENDBRANCH   1  24
TORSDOF 7
ENDMDL
