MODEL 1
REMARK VINA RESULT:      -8.0      0.000      0.000
REMARK  4 active torsions:
REMARK  status: ('A' for Active; 'I' for Inactive)
REMARK    1  A    between atoms: N_1  and  C_7 
REMARK    2  A    between atoms: N_2  and  C_12 
REMARK    3  A    between atoms: C_7  and  C_9 
REMARK       I    between atoms: C_8  and  N_10 
REMARK    4  A    between atoms: C_8  and  C_13 
REMARK       I    between atoms: C_9  and  N_11 
ROOT
HETATM    1  C   UNL     1     -38.873 -51.568  14.476  1.00  0.00     0.240 C 
ENDROOT
BRANCH   1   2
HETATM    2  N   UNL     1     -38.689 -50.579  13.410  1.00  0.00    -0.255 N 
HETATM    3  C   UNL     1     -39.701 -49.648  13.192  1.00  0.00     0.334 C 
HETATM    4  N   UNL     1     -39.413 -48.625  12.288  1.00  0.00    -0.279 N 
HETATM    5  O   UNL     1     -40.801 -49.713  13.740  1.00  0.00    -0.246 OA
HETATM    6  C   UNL     1     -38.415 -48.773  11.351  1.00  0.00     0.146 C 
HETATM    7  C   UNL     1     -37.601 -49.825  11.375  1.00  0.00     0.200 C 
HETATM    8  C   UNL     1     -37.691 -50.816  12.471  1.00  0.00     0.292 C 
HETATM    9  F   UNL     1     -36.679 -50.037  10.418  1.00  0.00    -0.199 F 
HETATM   10  O   UNL     1     -36.951 -51.797  12.478  1.00  0.00    -0.264 OA
BRANCH   4  11
HETATM   11  C   UNL     1     -40.343 -47.497  12.254  1.00  0.00     0.232 C 
HETATM   12  O   UNL     1     -40.846 -47.249  10.929  1.00  0.00    -0.366 OA
HETATM   13  C   UNL     1     -40.976 -45.828  10.747  1.00  0.00     0.170 C 
HETATM   14  C   UNL     1     -40.619 -45.168  12.060  1.00  0.00     0.031 C 
HETATM   15  C   UNL     1     -39.693 -46.181  12.679  1.00  0.00     0.056 C 
ENDBRANCH   4  11
ENDBRANCH   1   2
BRANCH   1  16
HETATM   16  C   UNL     1     -39.493 -52.930  14.068  1.00  0.00     0.238 C 
HETATM   17  N   UNL     1     -40.879 -53.070  14.115  1.00  0.00    -0.348 N 
HETATM   18  C   UNL     1     -41.534 -54.206  13.443  1.00  0.00     0.145 C 
HETATM   19  C   UNL     1     -41.720 -52.432  15.122  1.00  0.00     0.145 C 
HETATM   20  C   UNL     1     -42.935 -53.825  12.906  1.00  0.00     0.146 C 
HETATM   21  N   UNL     1     -43.743 -53.106  13.900  1.00  0.00    -0.343 N 
HETATM   22  C   UNL     1     -45.142 -53.124  13.777  1.00  0.00     0.277 C 
HETATM   23  C   UNL     1     -43.049 -51.983  14.531  1.00  0.00     0.146 C 
HETATM   24  O   UNL     1     -45.675 -53.641  12.794  1.00  0.00    -0.265 OA
HETATM   25  O   UNL     1     -38.781 -53.839  13.636  1.00  0.00    -0.272 OA
BRANCH  22  26
HETATM   26  C   UNL     1     -45.923 -52.528  14.849  1.00  0.00     0.142 A 
HETATM   27  O   UNL     1     -45.897 -53.080  16.107  1.00  0.00    -0.317 OA
HETATM   28  C   UNL     1     -46.727 -52.346  16.892  1.00  0.00     0.143 A 
HETATM   29  C   UNL     1     -47.310 -51.338  16.164  1.00  0.00     0.027 A 
HETATM   30  C   UNL     1     -46.813 -51.468  14.843  1.00  0.00     0.045 A 
ENDBRANCH  22  26
ENDBRANCH   1  16
TORSDOF 4
ENDMDL
MODEL 2
REMARK VINA RESULT:      -8.0      3.103      6.697
REMARK  4 active torsions:
REMARK  status: ('A' for Active; 'I' for Inactive)
REMARK    1  A    between atoms: N_1  and  C_7 
REMARK    2  A    between atoms: N_2  and  C_12 
REMARK    3  A    between atoms: C_7  and  C_9 
REMARK       I    between atoms: C_8  and  N_10 
REMARK    4  A    between atoms: C_8  and  C_13 
REMARK       I    between atoms: C_9  and  N_11 
ROOT
HETATM    1  C   UNL     1     -40.243 -49.575  14.063  1.00  0.00     0.240 C 
ENDROOT
BRANCH   1   2
HETATM    2  N   UNL     1     -41.054 -50.764  13.783  1.00  0.00    -0.255 N 
HETATM    3  C   UNL     1     -42.286 -50.887  14.420  1.00  0.00     0.334 C 
HETATM    4  N   UNL     1     -43.095 -51.941  13.997  1.00  0.00    -0.279 N 
HETATM    5  O   UNL     1     -42.653 -50.132  15.320  1.00  0.00    -0.246 OA
HETATM    6  C   UNL     1     -42.554 -53.031  13.352  1.00  0.00     0.146 C 
HETATM    7  C   UNL     1     -41.276 -53.043  12.981  1.00  0.00     0.200 C 
HETATM    8  C   UNL     1     -40.430 -51.844  13.170  1.00  0.00     0.292 C 
HETATM    9  F   UNL     1     -40.703 -54.131  12.432  1.00  0.00    -0.199 F 
HETATM   10  O   UNL     1     -39.245 -51.868  12.844  1.00  0.00    -0.264 OA
BRANCH   4  11
HETATM   11  C   UNL     1     -44.486 -51.924  14.448  1.00  0.00     0.232 C 
HETATM   12  O   UNL     1     -45.005 -53.250  14.657  1.00  0.00    -0.366 OA
HETATM   13  C   UNL     1     -46.382 -53.273  14.246  1.00  0.00     0.170 C 
HETATM   14  C   UNL     1     -46.760 -51.864  13.845  1.00  0.00     0.031 C 
HETATM   15  C   UNL     1     -45.432 -51.289  13.430  1.00  0.00     0.056 C 
ENDBRANCH   4  11
ENDBRANCH   1   2
BRANCH   1  16
HETATM   16  C   UNL     1     -39.692 -48.799  12.838  1.00  0.00     0.238 C 
HETATM   17  N   UNL     1     -40.600 -48.287  11.912  1.00  0.00    -0.348 N 
HETATM   18  C   UNL     1     -40.167 -47.283  10.925  1.00  0.00     0.145 C 
HETATM   19  C   UNL     1     -41.843 -48.957  11.548  1.00  0.00     0.145 C 
HETATM   20  C   UNL     1     -41.305 -46.293  10.575  1.00  0.00     0.146 C 
HETATM   21  N   UNL     1     -42.577 -46.974  10.294  1.00  0.00    -0.343 N 
HETATM   22  C   UNL     1     -43.537 -46.316   9.510  1.00  0.00     0.277 C 
HETATM   23  C   UNL     1     -42.964 -47.954  11.309  1.00  0.00     0.146 C 
HETATM   24  O   UNL     1     -43.362 -45.150   9.155  1.00  0.00    -0.265 OA
HETATM   25  O   UNL     1     -38.485 -48.572  12.730  1.00  0.00    -0.272 OA
BRANCH  22  26
HETATM   26  C   UNL     1     -44.725 -47.063   9.126  1.00  0.00     0.142 A 
HETATM   27  O   UNL     1     -44.654 -47.999   8.122  1.00  0.00    -0.317 OA
HETATM   28  C   UNL     1     -45.898 -48.517   7.959  1.00  0.00     0.143 A 
HETATM   29  C   UNL     1     -46.784 -47.923   8.824  1.00  0.00     0.027 A 
HETATM   30  C   UNL     1     -46.036 -46.970   9.560  1.00  0.00     0.045 A 
ENDBRANCH  22  26
ENDBRANCH   1  16
TORSDOF 4
ENDMDL
MODEL 3
REMARK VINA RESULT:      -8.0      2.977      7.809
REMARK  4 active torsions:
REMARK  status: ('A' for Active; 'I' for Inactive)
REMARK    1  A    between atoms: N_1  and  C_7 
REMARK    2  A    between atoms: N_2  and  C_12 
REMARK    3  A    between atoms: C_7  and  C_9 
REMARK       I    between atoms: C_8  and  N_10 
REMARK    4  A    between atoms: C_8  and  C_13 
REMARK       I    between atoms: C_9  and  N_11 
ROOT
HETATM    1  C   UNL     1     -44.235 -55.000  14.191  1.00  0.00     0.240 C 
ENDROOT
BRANCH   1   2
HETATM    2  N   UNL     1     -45.009 -53.763  14.321  1.00  0.00    -0.255 N 
HETATM    3  C   UNL     1     -45.738 -53.561  15.490  1.00  0.00     0.334 C 
HETATM    4  N   UNL     1     -46.319 -52.303  15.645  1.00  0.00    -0.279 N 
HETATM    5  O   UNL     1     -45.891 -54.435  16.344  1.00  0.00    -0.246 OA
HETATM    6  C   UNL     1     -46.550 -51.494  14.554  1.00  0.00     0.146 C 
HETATM    7  C   UNL     1     -46.093 -51.822  13.348  1.00  0.00     0.200 C 
HETATM    8  C   UNL     1     -45.242 -53.020  13.170  1.00  0.00     0.292 C 
HETATM    9  F   UNL     1     -46.384 -51.095  12.253  1.00  0.00    -0.199 F 
HETATM   10  O   UNL     1     -44.840 -53.329  12.051  1.00  0.00    -0.264 OA
BRANCH   4  11
HETATM   11  C   UNL     1     -46.847 -51.981  16.970  1.00  0.00     0.232 C 
HETATM   12  O   UNL     1     -48.198 -51.486  16.909  1.00  0.00    -0.366 OA
HETATM   13  C   UNL     1     -48.353 -50.458  17.903  1.00  0.00     0.170 C 
HETATM   14  C   UNL     1     -47.057 -50.375  18.678  1.00  0.00     0.031 C 
HETATM   15  C   UNL     1     -46.057 -50.877  17.670  1.00  0.00     0.056 C 
ENDBRANCH   4  11
ENDBRANCH   1   2
BRANCH   1  16
HETATM   16  C   UNL     1     -43.023 -55.171  15.144  1.00  0.00     0.238 C 
HETATM   17  N   UNL     1     -41.955 -54.284  15.027  1.00  0.00    -0.348 N 
HETATM   18  C   UNL     1     -40.944 -54.193  16.095  1.00  0.00     0.145 C 
HETATM   19  C   UNL     1     -41.502 -53.730  13.756  1.00  0.00     0.145 C 
HETATM   20  C   UNL     1     -40.378 -52.758  16.229  1.00  0.00     0.146 C 
HETATM   21  N   UNL     1     -40.005 -52.176  14.933  1.00  0.00    -0.343 N 
HETATM   22  C   UNL     1     -39.058 -51.140  14.903  1.00  0.00     0.277 C 
HETATM   23  C   UNL     1     -41.046 -52.285  13.910  1.00  0.00     0.146 C 
HETATM   24  O   UNL     1     -38.629 -50.656  15.951  1.00  0.00    -0.265 OA
HETATM   25  O   UNL     1     -43.042 -56.022  16.036  1.00  0.00    -0.272 OA
BRANCH  22  26
HETATM   26  C   UNL     1     -38.600 -50.680  13.601  1.00  0.00     0.142 A 
HETATM   27  O   UNL     1     -37.711 -51.437  12.877  1.00  0.00    -0.317 OA
HETATM   28  C   UNL     1     -37.441 -50.764  11.730  1.00  0.00     0.143 A 
HETATM   29  C   UNL     1     -38.121 -49.571  11.701  1.00  0.00     0.027 A 
HETATM   30  C   UNL     1     -38.849 -49.504  12.915  1.00  0.00     0.045 A 
ENDBRANCH  22  26
ENDBRANCH   1  16
TORSDOF 4
ENDMDL
MODEL 4
REMARK VINA RESULT:      -7.3      2.462      3.469
REMARK  4 active torsions:
REMARK  status: ('A' for Active; 'I' for Inactive)
REMARK    1  A    between atoms: N_1  and  C_7 
REMARK    2  A    between atoms: N_2  and  C_12 
REMARK    3  A    between atoms: C_7  and  C_9 
REMARK       I    between atoms: C_8  and  N_10 
REMARK    4  A    between atoms: C_8  and  C_13 
REMARK       I    between atoms: C_9  and  N_11 
ROOT
HETATM    1  C   UNL     1     -39.447 -49.042  13.602  1.00  0.00     0.240 C 
ENDROOT
BRANCH   1   2
HETATM    2  N   UNL     1     -40.536 -48.117  13.278  1.00  0.00    -0.255 N 
HETATM    3  C   UNL     1     -40.652 -47.670  11.964  1.00  0.00     0.334 C 
HETATM    4  N   UNL     1     -41.796 -46.931  11.663  1.00  0.00    -0.279 N 
HETATM    5  O   UNL     1     -39.798 -47.887  11.104  1.00  0.00    -0.246 OA
HETATM    6  C   UNL     1     -42.511 -46.302  12.659  1.00  0.00     0.146 C 
HETATM    7  C   UNL     1     -42.223 -46.502  13.942  1.00  0.00     0.200 C 
HETATM    8  C   UNL     1     -41.184 -47.482  14.331  1.00  0.00     0.292 C 
HETATM    9  F   UNL     1     -42.846 -45.830  14.927  1.00  0.00    -0.199 F 
HETATM   10  O   UNL     1     -40.908 -47.649  15.517  1.00  0.00    -0.264 OA
BRANCH   4  11
HETATM   11  C   UNL     1     -42.072 -46.693  10.247  1.00  0.00     0.232 C 
HETATM   12  O   UNL     1     -42.752 -45.443  10.030  1.00  0.00    -0.366 OA
HETATM   13  C   UNL     1     -43.701 -45.618   8.963  1.00  0.00     0.170 C 
HETATM   14  C   UNL     1     -43.535 -47.025   8.434  1.00  0.00     0.031 C 
HETATM   15  C   UNL     1     -42.990 -47.750   9.636  1.00  0.00     0.056 C 
ENDBRANCH   4  11
ENDBRANCH   1   2
BRANCH   1  16
HETATM   16  C   UNL     1     -39.618 -50.513  13.140  1.00  0.00     0.238 C 
HETATM   17  N   UNL     1     -40.868 -51.113  13.279  1.00  0.00    -0.348 N 
HETATM   18  C   UNL     1     -41.171 -52.370  12.574  1.00  0.00     0.145 C 
HETATM   19  C   UNL     1     -41.773 -50.842  14.391  1.00  0.00     0.145 C 
HETATM   20  C   UNL     1     -42.665 -52.458  12.172  1.00  0.00     0.146 C 
HETATM   21  N   UNL     1     -43.566 -52.099  13.275  1.00  0.00    -0.343 N 
HETATM   22  C   UNL     1     -44.885 -52.581  13.255  1.00  0.00     0.277 C 
HETATM   23  C   UNL     1     -43.226 -50.839  13.937  1.00  0.00     0.146 C 
HETATM   24  O   UNL     1     -45.308 -53.201  12.279  1.00  0.00    -0.265 OA
HETATM   25  O   UNL     1     -38.690 -51.109  12.588  1.00  0.00    -0.272 OA
BRANCH  22  26
HETATM   26  C   UNL     1     -45.713 -52.333  14.425  1.00  0.00     0.142 A 
HETATM   27  O   UNL     1     -45.518 -53.062  15.573  1.00  0.00    -0.317 OA
HETATM   28  C   UNL     1     -46.436 -52.644  16.483  1.00  0.00     0.143 A 
HETATM   29  C   UNL     1     -47.239 -51.670  15.943  1.00  0.00     0.027 A 
HETATM   30  C   UNL     1     -46.792 -51.484  14.611  1.00  0.00     0.045 A 
ENDBRANCH  22  26
ENDBRANCH   1  16
TORSDOF 4
ENDMDL
MODEL 5
REMARK VINA RESULT:      -7.3      2.083      2.748
REMARK  4 active torsions:
REMARK  status: ('A' for Active; 'I' for Inactive)
REMARK    1  A    between atoms: N_1  and  C_7 
REMARK    2  A    between atoms: N_2  and  C_12 
REMARK    3  A    between atoms: C_7  and  C_9 
REMARK       I    between atoms: C_8  and  N_10 
REMARK    4  A    between atoms: C_8  and  C_13 
REMARK       I    between atoms: C_9  and  N_11 
ROOT
HETATM    1  C   UNL     1     -38.415 -50.779  13.496  1.00  0.00     0.240 C 
ENDROOT
BRANCH   1   2
HETATM    2  N   UNL     1     -38.942 -49.437  13.234  1.00  0.00    -0.255 N 
HETATM    3  C   UNL     1     -39.687 -49.235  12.075  1.00  0.00     0.334 C 
HETATM    4  N   UNL     1     -40.311 -47.994  11.951  1.00  0.00    -0.279 N 
HETATM    5  O   UNL     1     -39.788 -50.083  11.188  1.00  0.00    -0.246 OA
HETATM    6  C   UNL     1     -39.863 -46.906  12.667  1.00  0.00     0.146 C 
HETATM    7  C   UNL     1     -38.927 -47.038  13.604  1.00  0.00     0.200 C 
HETATM    8  C   UNL     1     -38.412 -48.379  13.963  1.00  0.00     0.292 C 
HETATM    9  F   UNL     1     -38.409 -45.978  14.251  1.00  0.00    -0.199 F 
HETATM   10  O   UNL     1     -37.533 -48.493  14.813  1.00  0.00    -0.264 OA
BRANCH   4  11
HETATM   11  C   UNL     1     -41.310 -47.863  10.892  1.00  0.00     0.232 C 
HETATM   12  O   UNL     1     -41.363 -46.526  10.360  1.00  0.00    -0.366 OA
HETATM   13  C   UNL     1     -42.732 -46.209  10.058  1.00  0.00     0.170 C 
HETATM   14  C   UNL     1     -43.557 -47.445  10.334  1.00  0.00     0.031 C 
HETATM   15  C   UNL     1     -42.730 -48.148  11.377  1.00  0.00     0.056 C 
ENDBRANCH   4  11
ENDBRANCH   1   2
BRANCH   1  16
HETATM   16  C   UNL     1     -38.949 -51.508  14.757  1.00  0.00     0.238 C 
HETATM   17  N   UNL     1     -40.265 -51.967  14.752  1.00  0.00    -0.348 N 
HETATM   18  C   UNL     1     -40.718 -52.932  15.769  1.00  0.00     0.145 C 
HETATM   19  C   UNL     1     -41.360 -51.267  14.091  1.00  0.00     0.145 C 
HETATM   20  C   UNL     1     -41.797 -53.892  15.209  1.00  0.00     0.146 C 
HETATM   21  N   UNL     1     -42.852 -53.184  14.470  1.00  0.00    -0.343 N 
HETATM   22  C   UNL     1     -44.108 -53.795  14.332  1.00  0.00     0.277 C 
HETATM   23  C   UNL     1     -42.348 -52.244  13.468  1.00  0.00     0.146 C 
HETATM   24  O   UNL     1     -44.289 -54.947  14.729  1.00  0.00    -0.265 OA
HETATM   25  O   UNL     1     -38.201 -51.744  15.708  1.00  0.00    -0.272 OA
BRANCH  22  26
HETATM   26  C   UNL     1     -45.175 -53.017  13.724  1.00  0.00     0.142 A 
HETATM   27  O   UNL     1     -45.472 -53.180  12.391  1.00  0.00    -0.317 OA
HETATM   28  C   UNL     1     -46.479 -52.321  12.090  1.00  0.00     0.143 A 
HETATM   29  C   UNL     1     -46.831 -51.586  13.195  1.00  0.00     0.027 A 
HETATM   30  C   UNL     1     -45.978 -52.015  14.242  1.00  0.00     0.045 A 
ENDBRANCH  22  26
ENDBRANCH   1  16
TORSDOF 4
ENDMDL
MODEL 6
REMARK VINA RESULT:      -7.1      4.826      8.511
REMARK  4 active torsions:
REMARK  status: ('A' for Active; 'I' for Inactive)
REMARK    1  A    between atoms: N_1  and  C_7 
REMARK    2  A    between atoms: N_2  and  C_12 
REMARK    3  A    between atoms: C_7  and  C_9 
REMARK       I    between atoms: C_8  and  N_10 
REMARK    4  A    between atoms: C_8  and  C_13 
REMARK       I    between atoms: C_9  and  N_11 
ROOT
HETATM    1  C   UNL     1     -41.495 -54.565  16.534  1.00  0.00     0.240 C 
ENDROOT
BRANCH   1   2
HETATM    2  N   UNL     1     -41.966 -54.071  15.237  1.00  0.00    -0.255 N 
HETATM    3  C   UNL     1     -43.338 -54.045  15.000  1.00  0.00     0.334 C 
HETATM    4  N   UNL     1     -43.750 -53.413  13.827  1.00  0.00    -0.279 N 
HETATM    5  O   UNL     1     -44.159 -54.561  15.759  1.00  0.00    -0.246 OA
HETATM    6  C   UNL     1     -42.877 -53.243  12.775  1.00  0.00     0.146 C 
HETATM    7  C   UNL     1     -41.586 -53.538  12.900  1.00  0.00     0.200 C 
HETATM    8  C   UNL     1     -41.039 -53.968  14.206  1.00  0.00     0.292 C 
HETATM    9  F   UNL     1     -40.733 -53.467  11.861  1.00  0.00    -0.199 F 
HETATM   10  O   UNL     1     -39.850 -54.259  14.311  1.00  0.00    -0.264 OA
BRANCH   4  11
HETATM   11  C   UNL     1     -45.179 -53.133  13.697  1.00  0.00     0.232 C 
HETATM   12  O   UNL     1     -45.598 -53.079  12.321  1.00  0.00    -0.366 OA
HETATM   13  C   UNL     1     -46.594 -52.051  12.186  1.00  0.00     0.170 C 
HETATM   14  C   UNL     1     -46.870 -51.501  13.568  1.00  0.00     0.031 C 
HETATM   15  C   UNL     1     -45.572 -51.776  14.280  1.00  0.00     0.056 C 
ENDBRANCH   4  11
ENDBRANCH   1   2
BRANCH   1  16
HETATM   16  C   UNL     1     -41.223 -56.088  16.646  1.00  0.00     0.238 C 
HETATM   17  N   UNL     1     -39.962 -56.509  17.063  1.00  0.00    -0.348 N 
HETATM   18  C   UNL     1     -39.749 -57.901  17.494  1.00  0.00     0.145 C 
HETATM   19  C   UNL     1     -38.726 -55.816  16.718  1.00  0.00     0.145 C 
HETATM   20  C   UNL     1     -38.671 -58.001  18.602  1.00  0.00     0.146 C 
HETATM   21  N   UNL     1     -37.462 -57.229  18.283  1.00  0.00    -0.343 N 
HETATM   22  C   UNL     1     -36.250 -57.586  18.894  1.00  0.00     0.277 C 
HETATM   23  C   UNL     1     -37.729 -55.850  17.868  1.00  0.00     0.146 C 
HETATM   24  O   UNL     1     -36.222 -58.459  19.761  1.00  0.00    -0.265 OA
HETATM   25  O   UNL     1     -42.128 -56.902  16.449  1.00  0.00    -0.272 OA
BRANCH  22  26
HETATM   26  C   UNL     1     -35.044 -56.901  18.456  1.00  0.00     0.142 A 
HETATM   27  O   UNL     1     -34.431 -57.270  17.282  1.00  0.00    -0.317 OA
HETATM   28  C   UNL     1     -33.329 -56.492  17.135  1.00  0.00     0.143 A 
HETATM   29  C   UNL     1     -33.199 -55.636  18.201  1.00  0.00     0.027 A 
HETATM   30  C   UNL     1     -34.289 -55.913  19.064  1.00  0.00     0.045 A 
ENDBRANCH  22  26
ENDBRANCH   1  16
TORSDOF 4
ENDMDL
MODEL 7
REMARK VINA RESULT:      -7.0      2.552      7.590
REMARK  4 active torsions:
REMARK  status: ('A' for Active; 'I' for Inactive)
REMARK    1  A    between atoms: N_1  and  C_7 
REMARK    2  A    between atoms: N_2  and  C_12 
REMARK    3  A    between atoms: C_7  and  C_9 
REMARK       I    between atoms: C_8  and  N_10 
REMARK    4  A    between atoms: C_8  and  C_13 
REMARK       I    between atoms: C_9  and  N_11 
ROOT
HETATM    1  C   UNL     1     -41.553 -51.933  11.971  1.00  0.00     0.240 C 
ENDROOT
BRANCH   1   2
HETATM    2  N   UNL     1     -42.497 -52.516  12.929  1.00  0.00    -0.255 N 
HETATM    3  C   UNL     1     -43.321 -51.656  13.650  1.00  0.00     0.334 C 
HETATM    4  N   UNL     1     -44.317 -52.258  14.419  1.00  0.00    -0.279 N 
HETATM    5  O   UNL     1     -43.186 -50.433  13.639  1.00  0.00    -0.246 OA
HETATM    6  C   UNL     1     -44.210 -53.576  14.804  1.00  0.00     0.146 C 
HETATM    7  C   UNL     1     -43.238 -54.353  14.332  1.00  0.00     0.200 C 
HETATM    8  C   UNL     1     -42.302 -53.840  13.307  1.00  0.00     0.292 C 
HETATM    9  F   UNL     1     -43.060 -55.615  14.763  1.00  0.00    -0.199 F 
HETATM   10  O   UNL     1     -41.393 -54.554  12.890  1.00  0.00    -0.264 OA
BRANCH   4  11
HETATM   11  C   UNL     1     -45.354 -51.378  14.957  1.00  0.00     0.232 C 
HETATM   12  O   UNL     1     -45.109 -51.028  16.331  1.00  0.00    -0.366 OA
HETATM   13  C   UNL     1     -46.369 -50.969  17.020  1.00  0.00     0.170 C 
HETATM   14  C   UNL     1     -47.457 -51.208  15.998  1.00  0.00     0.031 C 
HETATM   15  C   UNL     1     -46.738 -52.026  14.959  1.00  0.00     0.056 C 
ENDBRANCH   4  11
ENDBRANCH   1   2
BRANCH   1  16
HETATM   16  C   UNL     1     -40.178 -51.483  12.531  1.00  0.00     0.238 C 
HETATM   17  N   UNL     1     -39.944 -50.120  12.704  1.00  0.00    -0.348 N 
HETATM   18  C   UNL     1     -38.806 -49.660  13.520  1.00  0.00     0.145 C 
HETATM   19  C   UNL     1     -40.468 -49.092  11.812  1.00  0.00     0.145 C 
HETATM   20  C   UNL     1     -39.123 -48.331  14.250  1.00  0.00     0.146 C 
HETATM   21  N   UNL     1     -39.731 -47.332  13.361  1.00  0.00    -0.343 N 
HETATM   22  C   UNL     1     -39.628 -45.973  13.700  1.00  0.00     0.277 C 
HETATM   23  C   UNL     1     -40.861 -47.838  12.580  1.00  0.00     0.146 C 
HETATM   24  O   UNL     1     -39.132 -45.634  14.774  1.00  0.00    -0.265 OA
HETATM   25  O   UNL     1     -39.343 -52.318  12.888  1.00  0.00    -0.272 OA
BRANCH  22  26
HETATM   26  C   UNL     1     -40.110 -44.997  12.736  1.00  0.00     0.142 A 
HETATM   27  O   UNL     1     -41.377 -44.477  12.858  1.00  0.00    -0.317 OA
HETATM   28  C   UNL     1     -41.568 -43.622  11.821  1.00  0.00     0.143 A 
HETATM   29  C   UNL     1     -40.459 -43.589  11.014  1.00  0.00     0.027 A 
HETATM   30  C   UNL     1     -39.528 -44.491  11.586  1.00  0.00     0.045 A 
ENDBRANCH  22  26
ENDBRANCH   1  16
TORSDOF 4
ENDMDL
MODEL 8
REMARK VINA RESULT:      -6.9      3.052      8.437
REMARK  4 active torsions:
REMARK  status: ('A' for Active; 'I' for Inactive)
REMARK    1  A    between atoms: N_1  and  C_7 
REMARK    2  A    between atoms: N_2  and  C_12 
REMARK    3  A    between atoms: C_7  and  C_9 
REMARK       I    between atoms: C_8  and  N_10 
REMARK    4  A    between atoms: C_8  and  C_13 
REMARK       I    between atoms: C_9  and  N_11 
ROOT
HETATM    1  C   UNL     1     -43.845 -51.623  12.673  1.00  0.00     0.240 C 
ENDROOT
BRANCH   1   2
HETATM    2  N   UNL     1     -44.716 -52.378  13.579  1.00  0.00    -0.255 N 
HETATM    3  C   UNL     1     -44.941 -51.868  14.855  1.00  0.00     0.334 C 
HETATM    4  N   UNL     1     -45.905 -52.523  15.620  1.00  0.00    -0.279 N 
HETATM    5  O   UNL     1     -44.323 -50.905  15.310  1.00  0.00    -0.246 OA
HETATM    6  C   UNL     1     -46.267 -53.822  15.336  1.00  0.00     0.146 C 
HETATM    7  C   UNL     1     -45.823 -54.434  14.241  1.00  0.00     0.200 C 
HETATM    8  C   UNL     1     -45.002 -53.698  13.253  1.00  0.00     0.292 C 
HETATM    9  F   UNL     1     -46.088 -55.729  13.990  1.00  0.00    -0.199 F 
HETATM   10  O   UNL     1     -44.578 -54.274  12.254  1.00  0.00    -0.264 OA
BRANCH   4  11
HETATM   11  C   UNL     1     -46.350 -51.847  16.837  1.00  0.00     0.232 C 
HETATM   12  O   UNL     1     -46.424 -52.745  17.960  1.00  0.00    -0.366 OA
HETATM   13  C   UNL     1     -47.560 -52.381  18.763  1.00  0.00     0.170 C 
HETATM   14  C   UNL     1     -48.168 -51.138  18.153  1.00  0.00     0.031 C 
HETATM   15  C   UNL     1     -47.756 -51.262  16.710  1.00  0.00     0.056 C 
ENDBRANCH   4  11
ENDBRANCH   1   2
BRANCH   1  16
HETATM   16  C   UNL     1     -42.318 -51.719  12.929  1.00  0.00     0.238 C 
HETATM   17  N   UNL     1     -41.558 -50.553  12.862  1.00  0.00    -0.348 N 
HETATM   18  C   UNL     1     -40.189 -50.527  13.405  1.00  0.00     0.145 C 
HETATM   19  C   UNL     1     -41.830 -49.466  11.928  1.00  0.00     0.145 C 
HETATM   20  C   UNL     1     -39.824 -49.135  13.976  1.00  0.00     0.146 C 
HETATM   21  N   UNL     1     -40.181 -48.040  13.063  1.00  0.00    -0.343 N 
HETATM   22  C   UNL     1     -39.507 -46.814  13.180  1.00  0.00     0.277 C 
HETATM   23  C   UNL     1     -41.554 -48.109  12.560  1.00  0.00     0.146 C 
HETATM   24  O   UNL     1     -38.708 -46.626  14.098  1.00  0.00    -0.265 OA
HETATM   25  O   UNL     1     -41.804 -52.790  13.262  1.00  0.00    -0.272 OA
BRANCH  22  26
HETATM   26  C   UNL     1     -39.775 -45.796  12.176  1.00  0.00     0.142 A 
HETATM   27  O   UNL     1     -39.575 -46.073  10.845  1.00  0.00    -0.317 OA
HETATM   28  C   UNL     1     -39.876 -44.950  10.145  1.00  0.00     0.143 A 
HETATM   29  C   UNL     1     -40.249 -43.939  10.996  1.00  0.00     0.027 A 
HETATM   30  C   UNL     1     -40.162 -44.474  12.305  1.00  0.00     0.045 A 
ENDBRANCH  22  26
ENDBRANCH   1  16
TORSDOF 4
ENDMDL
MODEL 9
REMARK VINA RESULT:      -6.9      1.934      2.252
REMARK  4 active torsions:
REMARK  status: ('A' for Active; 'I' for Inactive)
REMARK    1  A    between atoms: N_1  and  C_7 
REMARK    2  A    between atoms: N_2  and  C_12 
REMARK    3  A    between atoms: C_7  and  C_9 
REMARK       I    between atoms: C_8  and  N_10 
REMARK    4  A    between atoms: C_8  and  C_13 
REMARK       I    between atoms: C_9  and  N_11 
ROOT
HETATM    1  C   UNL     1     -40.904 -51.764  11.908  1.00  0.00     0.240 C 
ENDROOT
BRANCH   1   2
HETATM    2  N   UNL     1     -40.443 -50.456  12.382  1.00  0.00    -0.255 N 
HETATM    3  C   UNL     1     -41.324 -49.380  12.310  1.00  0.00     0.334 C 
HETATM    4  N   UNL     1     -40.907 -48.200  12.925  1.00  0.00    -0.279 N 
HETATM    5  O   UNL     1     -42.406 -49.438  11.726  1.00  0.00    -0.246 OA
HETATM    6  C   UNL     1     -39.572 -47.967  13.173  1.00  0.00     0.146 C 
HETATM    7  C   UNL     1     -38.661 -48.917  12.972  1.00  0.00     0.200 C 
HETATM    8  C   UNL     1     -39.077 -50.278  12.567  1.00  0.00     0.292 C 
HETATM    9  F   UNL     1     -37.344 -48.685  13.120  1.00  0.00    -0.199 F 
HETATM   10  O   UNL     1     -38.230 -51.146  12.363  1.00  0.00    -0.264 OA
BRANCH   4  11
HETATM   11  C   UNL     1     -41.917 -47.157  13.101  1.00  0.00     0.232 C 
HETATM   12  O   UNL     1     -41.335 -45.842  13.155  1.00  0.00    -0.366 OA
HETATM   13  C   UNL     1     -42.070 -45.055  14.108  1.00  0.00     0.170 C 
HETATM   14  C   UNL     1     -43.221 -45.901  14.604  1.00  0.00     0.031 C 
HETATM   15  C   UNL     1     -42.692 -47.297  14.410  1.00  0.00     0.056 C 
ENDBRANCH   4  11
ENDBRANCH   1   2
BRANCH   1  16
HETATM   16  C   UNL     1     -40.910 -52.920  12.942  1.00  0.00     0.238 C 
HETATM   17  N   UNL     1     -42.002 -53.041  13.799  1.00  0.00    -0.348 N 
HETATM   18  C   UNL     1     -42.213 -54.282  14.563  1.00  0.00     0.145 C 
HETATM   19  C   UNL     1     -42.733 -51.899  14.339  1.00  0.00     0.145 C 
HETATM   20  C   UNL     1     -43.719 -54.576  14.778  1.00  0.00     0.146 C 
HETATM   21  N   UNL     1     -44.463 -53.396  15.239  1.00  0.00    -0.343 N 
HETATM   22  C   UNL     1     -45.669 -53.585  15.933  1.00  0.00     0.277 C 
HETATM   23  C   UNL     1     -44.224 -52.192  14.441  1.00  0.00     0.146 C 
HETATM   24  O   UNL     1     -46.147 -54.712  16.057  1.00  0.00    -0.265 OA
HETATM   25  O   UNL     1     -40.006 -53.759  12.949  1.00  0.00    -0.272 OA
BRANCH  22  26
HETATM   26  C   UNL     1     -46.312 -52.411  16.502  1.00  0.00     0.142 A 
HETATM   27  O   UNL     1     -45.775 -51.803  17.612  1.00  0.00    -0.317 OA
HETATM   28  C   UNL     1     -46.584 -50.763  17.938  1.00  0.00     0.143 A 
HETATM   29  C   UNL     1     -47.649 -50.693  17.075  1.00  0.00     0.027 A 
HETATM   30  C   UNL     1     -47.490 -51.767  16.164  1.00  0.00     0.045 A 
ENDBRANCH  22  26
ENDBRANCH   1  16
TORSDOF 4
ENDMDL
