MODEL 1
REMARK VINA RESULT:      -7.0      0.000      0.000
REMARK  5 active torsions:
REMARK  status: ('A' for Active; 'I' for Inactive)
REMARK    1  A    between atoms: C_7  and  N_8 
REMARK       I    between atoms: N_8  and  C_9 
REMARK    2  A    between atoms: C_9  and  C_11 
REMARK    3  A    between atoms: C_11  and  N_12 
REMARK    4  A    between atoms: C_14  and  N_22 
REMARK    5  A    between atoms: C_16  and  C_17 
REMARK       I    between atoms: C_17  and  N_19 
ROOT
HETATM    1  N   UNL     1     -41.034 -51.599  12.147  1.00  0.00    -0.313 N 
HETATM    2  C   UNL     1     -42.386 -51.922  12.079  1.00  0.00     0.130 C 
HETATM    3  C   UNL     1     -42.871 -52.966  12.772  1.00  0.00     0.119 C 
HETATM    4  C   UNL     1     -41.977 -53.827  13.514  1.00  0.00     0.060 C 
HETATM    5  C   UNL     1     -40.667 -53.534  13.621  1.00  0.00     0.102 C 
HETATM    6  C   UNL     1     -40.154 -52.273  13.000  1.00  0.00     0.263 C 
HETATM    7  O   UNL     1     -39.010 -51.874  13.217  1.00  0.00    -0.267 OA
ENDROOT
BRANCH   1   8
HETATM    8  C   UNL     1     -40.522 -50.428  11.432  1.00  0.00     0.234 C 
BRANCH   8   9
HETATM    9  C   UNL     1     -41.482 -49.237  11.564  1.00  0.00     0.236 C 
HETATM   10  N   UNL     1     -41.943 -48.746  10.356  1.00  0.00    -0.355 N 
HETATM   11  H   UNL     1     -41.896 -49.388   9.566  1.00  0.00     0.162 HD
HETATM   12  O   UNL     1     -41.839 -48.803  12.657  1.00  0.00    -0.272 OA
BRANCH  10  13
HETATM   13  C   UNL     1     -42.875 -47.629  10.268  1.00  0.00     0.088 C 
HETATM   14  C   UNL     1     -43.894 -47.770   9.110  1.00  0.00     0.004 C 
HETATM   15  C   UNL     1     -43.248 -47.904   7.726  1.00  0.00     0.012 C 
HETATM   16  C   UNL     1     -44.860 -46.571   9.134  1.00  0.00     0.006 C 
HETATM   17  C   UNL     1     -44.138 -45.224   9.099  1.00  0.00     0.001 C 
HETATM   18  C   UNL     1     -43.078 -45.112  10.192  1.00  0.00     0.002 C 
HETATM   19  C   UNL     1     -42.116 -46.299  10.195  1.00  0.00     0.025 C 
ENDBRANCH  10  13
ENDBRANCH   8   9
ENDBRANCH   1   8
BRANCH   3  20
HETATM   20  N   UNL     1     -44.316 -53.205  12.746  1.00  0.00    -0.114 N 
HETATM   21  O   UNL     1     -44.695 -54.349  12.466  1.00  0.00    -0.532 OA
HETATM   22  O   UNL     1     -45.071 -52.264  13.028  1.00  0.00    -0.532 OA
ENDBRANCH   3  20
BRANCH   5  23
HETATM   23  C   UNL     1     -39.791 -54.515  14.325  1.00  0.00     0.255 C 
HETATM   24  O   UNL     1     -40.025 -54.914  15.460  1.00  0.00    -0.268 OA
HETATM   25  N   UNL     1     -38.716 -54.976  13.637  1.00  0.00    -0.366 N 
HETATM   26  H   UNL     1     -38.478 -54.637  12.707  1.00  0.00     0.159 HD
HETATM   27  H   UNL     1     -38.111 -55.656  14.076  1.00  0.00     0.159 HD
ENDBRANCH   5  23
TORSDOF 5
ENDMDL
MODEL 2
REMARK VINA RESULT:      -6.9      3.171      7.298
REMARK  5 active torsions:
REMARK  status: ('A' for Active; 'I' for Inactive)
REMARK    1  A    between atoms: C_7  and  N_8 
REMARK       I    between atoms: N_8  and  C_9 
REMARK    2  A    between atoms: C_9  and  C_11 
REMARK    3  A    between atoms: C_11  and  N_12 
REMARK    4  A    between atoms: C_14  and  N_22 
REMARK    5  A    between atoms: C_16  and  C_17 
REMARK       I    between atoms: C_17  and  N_19 
ROOT
HETATM    1  N   UNL     1     -41.785 -48.315  11.174  1.00  0.00    -0.313 N 
HETATM    2  C   UNL     1     -42.949 -48.072  10.451  1.00  0.00     0.130 C 
HETATM    3  C   UNL     1     -43.126 -46.899   9.821  1.00  0.00     0.119 C 
HETATM    4  C   UNL     1     -42.157 -45.837   9.973  1.00  0.00     0.060 C 
HETATM    5  C   UNL     1     -41.008 -46.041  10.646  1.00  0.00     0.102 C 
HETATM    6  C   UNL     1     -40.724 -47.404  11.197  1.00  0.00     0.263 C 
HETATM    7  O   UNL     1     -39.622 -47.686  11.664  1.00  0.00    -0.267 OA
ENDROOT
BRANCH   1   8
HETATM    8  C   UNL     1     -41.575 -49.615  11.814  1.00  0.00     0.234 C 
BRANCH   8   9
HETATM    9  C   UNL     1     -42.648 -49.887  12.878  1.00  0.00     0.236 C 
HETATM   10  N   UNL     1     -43.245 -51.130  12.774  1.00  0.00    -0.355 N 
HETATM   11  H   UNL     1     -42.716 -51.839  12.268  1.00  0.00     0.162 HD
HETATM   12  O   UNL     1     -42.905 -49.079  13.768  1.00  0.00    -0.272 OA
BRANCH  10  13
HETATM   13  C   UNL     1     -44.275 -51.585  13.699  1.00  0.00     0.088 C 
HETATM   14  C   UNL     1     -44.183 -53.096  14.027  1.00  0.00     0.004 C 
HETATM   15  C   UNL     1     -44.275 -54.005  12.796  1.00  0.00     0.012 C 
HETATM   16  C   UNL     1     -45.278 -53.464  15.045  1.00  0.00     0.006 C 
HETATM   17  C   UNL     1     -46.679 -53.064  14.583  1.00  0.00     0.001 C 
HETATM   18  C   UNL     1     -46.755 -51.591  14.186  1.00  0.00     0.002 C 
HETATM   19  C   UNL     1     -45.668 -51.201  13.185  1.00  0.00     0.025 C 
ENDBRANCH  10  13
ENDBRANCH   8   9
ENDBRANCH   1   8
BRANCH   3  20
HETATM   20  N   UNL     1     -44.321 -46.730   8.992  1.00  0.00    -0.114 N 
HETATM   21  O   UNL     1     -44.775 -45.584   8.881  1.00  0.00    -0.532 OA
HETATM   22  O   UNL     1     -44.794 -47.729   8.433  1.00  0.00    -0.532 OA
ENDBRANCH   3  20
BRANCH   5  23
HETATM   23  C   UNL     1     -40.099 -44.874  10.838  1.00  0.00     0.255 C 
HETATM   24  O   UNL     1     -39.912 -44.032   9.968  1.00  0.00    -0.268 OA
HETATM   25  N   UNL     1     -39.491 -44.768  12.047  1.00  0.00    -0.366 N 
HETATM   26  H   UNL     1     -39.601 -45.470  12.775  1.00  0.00     0.159 HD
HETATM   27  H   UNL     1     -38.882 -43.979  12.219  1.00  0.00     0.159 HD
ENDBRANCH   5  23
TORSDOF 5
ENDMDL
MODEL 3
REMARK VINA RESULT:      -6.5      3.365      6.741
REMARK  5 active torsions:
REMARK  status: ('A' for Active; 'I' for Inactive)
REMARK    1  A    between atoms: C_7  and  N_8 
REMARK       I    between atoms: N_8  and  C_9 
REMARK    2  A    between atoms: C_9  and  C_11 
REMARK    3  A    between atoms: C_11  and  N_12 
REMARK    4  A    between atoms: C_14  and  N_22 
REMARK    5  A    between atoms: C_16  and  C_17 
REMARK       I    between atoms: C_17  and  N_19 
ROOT
HETATM    1  N   UNL     1     -40.908 -48.743  12.540  1.00  0.00    -0.313 N 
HETATM    2  C   UNL     1     -40.435 -47.816  13.465  1.00  0.00     0.130 C 
HETATM    3  C   UNL     1     -39.117 -47.683  13.682  1.00  0.00     0.119 C 
HETATM    4  C   UNL     1     -38.179 -48.573  13.034  1.00  0.00     0.060 C 
HETATM    5  C   UNL     1     -38.594 -49.467  12.117  1.00  0.00     0.102 C 
HETATM    6  C   UNL     1     -40.043 -49.495  11.739  1.00  0.00     0.263 C 
HETATM    7  O   UNL     1     -40.440 -50.167  10.788  1.00  0.00    -0.267 OA
ENDROOT
BRANCH   1   8
HETATM    8  C   UNL     1     -42.343 -48.844  12.269  1.00  0.00     0.234 C 
BRANCH   8   9
HETATM    9  C   UNL     1     -43.012 -49.854  13.212  1.00  0.00     0.236 C 
HETATM   10  N   UNL     1     -43.067 -51.144  12.712  1.00  0.00    -0.355 N 
HETATM   11  H   UNL     1     -42.395 -51.368  11.980  1.00  0.00     0.162 HD
HETATM   12  O   UNL     1     -43.413 -49.539  14.330  1.00  0.00    -0.272 OA
BRANCH  10  13
HETATM   13  C   UNL     1     -43.650 -52.250  13.461  1.00  0.00     0.088 C 
HETATM   14  C   UNL     1     -42.591 -53.180  14.103  1.00  0.00     0.004 C 
HETATM   15  C   UNL     1     -41.618 -53.804  13.096  1.00  0.00     0.012 C 
HETATM   16  C   UNL     1     -43.304 -54.282  14.909  1.00  0.00     0.006 C 
HETATM   17  C   UNL     1     -44.322 -55.063  14.078  1.00  0.00     0.001 C 
HETATM   18  C   UNL     1     -45.321 -54.143  13.381  1.00  0.00     0.002 C 
HETATM   19  C   UNL     1     -44.635 -53.033  12.585  1.00  0.00     0.025 C 
ENDBRANCH  10  13
ENDBRANCH   8   9
ENDBRANCH   1   8
BRANCH   3  20
HETATM   20  N   UNL     1     -38.666 -46.628  14.591  1.00  0.00    -0.114 N 
HETATM   21  O   UNL     1     -38.857 -45.457  14.239  1.00  0.00    -0.532 OA
HETATM   22  O   UNL     1     -38.143 -46.961  15.665  1.00  0.00    -0.532 OA
ENDBRANCH   3  20
BRANCH   5  23
HETATM   23  C   UNL     1     -37.584 -50.411  11.558  1.00  0.00     0.255 C 
HETATM   24  O   UNL     1     -37.109 -51.332  12.212  1.00  0.00    -0.268 OA
HETATM   25  N   UNL     1     -37.219 -50.219  10.265  1.00  0.00    -0.366 N 
HETATM   26  H   UNL     1     -37.571 -49.442   9.710  1.00  0.00     0.159 HD
HETATM   27  H   UNL     1     -36.550 -50.852   9.848  1.00  0.00     0.159 HD
ENDBRANCH   5  23
TORSDOF 5
ENDMDL
MODEL 4
REMARK VINA RESULT:      -6.4      3.084      6.715
REMARK  5 active torsions:
REMARK  status: ('A' for Active; 'I' for Inactive)
REMARK    1  A    between atoms: C_7  and  N_8 
REMARK       I    between atoms: N_8  and  C_9 
REMARK    2  A    between atoms: C_9  and  C_11 
REMARK    3  A    between atoms: C_11  and  N_12 
REMARK    4  A    between atoms: C_14  and  N_22 
REMARK    5  A    between atoms: C_16  and  C_17 
REMARK       I    between atoms: C_17  and  N_19 
ROOT
HETATM    1  N   UNL     1     -40.970 -51.115  12.140  1.00  0.00    -0.313 N 
HETATM    2  C   UNL     1     -39.671 -51.488  12.474  1.00  0.00     0.130 C 
HETATM    3  C   UNL     1     -38.696 -50.566  12.546  1.00  0.00     0.119 C 
HETATM    4  C   UNL     1     -38.963 -49.194  12.178  1.00  0.00     0.060 C 
HETATM    5  C   UNL     1     -40.211 -48.790  11.872  1.00  0.00     0.102 C 
HETATM    6  C   UNL     1     -41.334 -49.776  11.965  1.00  0.00     0.263 C 
HETATM    7  O   UNL     1     -42.506 -49.418  11.867  1.00  0.00    -0.267 OA
ENDROOT
BRANCH   1   8
HETATM    8  C   UNL     1     -42.038 -52.116  12.116  1.00  0.00     0.234 C 
BRANCH   8   9
HETATM    9  C   UNL     1     -42.641 -52.315  13.514  1.00  0.00     0.236 C 
HETATM   10  N   UNL     1     -43.782 -51.569  13.748  1.00  0.00    -0.355 N 
HETATM   11  H   UNL     1     -44.288 -51.254  12.921  1.00  0.00     0.162 HD
HETATM   12  O   UNL     1     -42.167 -53.109  14.324  1.00  0.00    -0.272 OA
BRANCH  10  13
HETATM   13  C   UNL     1     -44.513 -51.628  15.008  1.00  0.00     0.088 C 
HETATM   14  C   UNL     1     -45.945 -52.200  14.860  1.00  0.00     0.004 C 
HETATM   15  C   UNL     1     -46.829 -51.415  13.884  1.00  0.00     0.012 C 
HETATM   16  C   UNL     1     -46.611 -52.267  16.247  1.00  0.00     0.006 C 
HETATM   17  C   UNL     1     -46.604 -50.924  16.978  1.00  0.00     0.001 C 
HETATM   18  C   UNL     1     -45.203 -50.321  17.057  1.00  0.00     0.002 C 
HETATM   19  C   UNL     1     -44.518 -50.256  15.693  1.00  0.00     0.025 C 
ENDBRANCH  10  13
ENDBRANCH   8   9
ENDBRANCH   1   8
BRANCH   3  20
HETATM   20  N   UNL     1     -37.370 -50.993  12.996  1.00  0.00    -0.114 N 
HETATM   21  O   UNL     1     -36.965 -50.540  14.074  1.00  0.00    -0.532 OA
HETATM   22  O   UNL     1     -36.741 -51.796  12.292  1.00  0.00    -0.532 OA
ENDBRANCH   3  20
BRANCH   5  23
HETATM   23  C   UNL     1     -40.394 -47.382  11.415  1.00  0.00     0.255 C 
HETATM   24  O   UNL     1     -39.920 -46.426  12.017  1.00  0.00    -0.268 OA
HETATM   25  N   UNL     1     -41.101 -47.199  10.272  1.00  0.00    -0.366 N 
HETATM   26  H   UNL     1     -41.535 -47.971   9.771  1.00  0.00     0.159 HD
HETATM   27  H   UNL     1     -41.228 -46.259   9.922  1.00  0.00     0.159 HD
ENDBRANCH   5  23
TORSDOF 5
ENDMDL
MODEL 5
REMARK VINA RESULT:      -6.3      3.260      5.635
REMARK  5 active torsions:
REMARK  status: ('A' for Active; 'I' for Inactive)
REMARK    1  A    between atoms: C_7  and  N_8 
REMARK       I    between atoms: N_8  and  C_9 
REMARK    2  A    between atoms: C_9  and  C_11 
REMARK    3  A    between atoms: C_11  and  N_12 
REMARK    4  A    between atoms: C_14  and  N_22 
REMARK    5  A    between atoms: C_16  and  C_17 
REMARK       I    between atoms: C_17  and  N_19 
ROOT
HETATM    1  N   UNL     1     -40.102 -50.564  12.754  1.00  0.00    -0.313 N 
HETATM    2  C   UNL     1     -39.230 -49.646  13.334  1.00  0.00     0.130 C 
HETATM    3  C   UNL     1     -38.268 -50.060  14.174  1.00  0.00     0.119 C 
HETATM    4  C   UNL     1     -38.191 -51.449  14.568  1.00  0.00     0.060 C 
HETATM    5  C   UNL     1     -39.002 -52.370  14.013  1.00  0.00     0.102 C 
HETATM    6  C   UNL     1     -39.956 -51.943  12.941  1.00  0.00     0.263 C 
HETATM    7  O   UNL     1     -40.589 -52.768  12.285  1.00  0.00    -0.267 OA
ENDROOT
BRANCH   1   8
HETATM    8  C   UNL     1     -41.114 -50.113  11.797  1.00  0.00     0.234 C 
BRANCH   8   9
HETATM    9  C   UNL     1     -42.439 -49.794  12.505  1.00  0.00     0.236 C 
HETATM   10  N   UNL     1     -43.196 -50.909  12.816  1.00  0.00    -0.355 N 
HETATM   11  H   UNL     1     -42.690 -51.792  12.870  1.00  0.00     0.162 HD
HETATM   12  O   UNL     1     -42.759 -48.647  12.806  1.00  0.00    -0.272 OA
BRANCH  10  13
HETATM   13  C   UNL     1     -44.478 -50.819  13.502  1.00  0.00     0.088 C 
HETATM   14  C   UNL     1     -44.377 -51.070  15.027  1.00  0.00     0.004 C 
HETATM   15  C   UNL     1     -43.785 -52.437  15.394  1.00  0.00     0.012 C 
HETATM   16  C   UNL     1     -45.768 -50.904  15.664  1.00  0.00     0.006 C 
HETATM   17  C   UNL     1     -46.833 -51.785  15.009  1.00  0.00     0.001 C 
HETATM   18  C   UNL     1     -46.883 -51.596  13.496  1.00  0.00     0.002 C 
HETATM   19  C   UNL     1     -45.508 -51.744  12.844  1.00  0.00     0.025 C 
ENDBRANCH  10  13
ENDBRANCH   8   9
ENDBRANCH   1   8
BRANCH   3  20
HETATM   20  N   UNL     1     -37.315 -49.069  14.680  1.00  0.00    -0.114 N 
HETATM   21  O   UNL     1     -36.514 -49.443  15.546  1.00  0.00    -0.532 OA
HETATM   22  O   UNL     1     -37.346 -47.927  14.199  1.00  0.00    -0.532 OA
ENDBRANCH   3  20
BRANCH   5  23
HETATM   23  C   UNL     1     -38.927 -53.766  14.533  1.00  0.00     0.255 C 
HETATM   24  O   UNL     1     -38.938 -54.025  15.731  1.00  0.00    -0.268 OA
HETATM   25  N   UNL     1     -38.868 -54.759  13.610  1.00  0.00    -0.366 N 
HETATM   26  H   UNL     1     -38.822 -54.571  12.611  1.00  0.00     0.159 HD
HETATM   27  H   UNL     1     -38.835 -55.718  13.928  1.00  0.00     0.159 HD
ENDBRANCH   5  23
TORSDOF 5
ENDMDL
MODEL 6
REMARK VINA RESULT:      -6.3      1.852      3.906
REMARK  5 active torsions:
REMARK  status: ('A' for Active; 'I' for Inactive)
REMARK    1  A    between atoms: C_7  and  N_8 
REMARK       I    between atoms: N_8  and  C_9 
REMARK    2  A    between atoms: C_9  and  C_11 
REMARK    3  A    between atoms: C_11  and  N_12 
REMARK    4  A    between atoms: C_14  and  N_22 
REMARK    5  A    between atoms: C_16  and  C_17 
REMARK       I    between atoms: C_17  and  N_19 
ROOT
HETATM    1  N   UNL     1     -42.160 -53.122  12.996  1.00  0.00    -0.313 N 
HETATM    2  C   UNL     1     -41.139 -53.617  13.803  1.00  0.00     0.130 C 
HETATM    3  C   UNL     1     -41.409 -54.508  14.770  1.00  0.00     0.119 C 
HETATM    4  C   UNL     1     -42.776 -54.886  15.052  1.00  0.00     0.060 C 
HETATM    5  C   UNL     1     -43.788 -54.446  14.280  1.00  0.00     0.102 C 
HETATM    6  C   UNL     1     -43.473 -53.595  13.090  1.00  0.00     0.263 C 
HETATM    7  O   UNL     1     -44.337 -53.315  12.260  1.00  0.00    -0.267 OA
ENDROOT
BRANCH   1   8
HETATM    8  C   UNL     1     -41.852 -52.191  11.909  1.00  0.00     0.234 C 
BRANCH   8   9
HETATM    9  C   UNL     1     -41.894 -50.736  12.399  1.00  0.00     0.236 C 
HETATM   10  N   UNL     1     -41.670 -49.799  11.407  1.00  0.00    -0.355 N 
HETATM   11  H   UNL     1     -41.840 -50.110  10.451  1.00  0.00     0.162 HD
HETATM   12  O   UNL     1     -42.155 -50.446  13.564  1.00  0.00    -0.272 OA
BRANCH  10  13
HETATM   13  C   UNL     1     -41.684 -48.365  11.666  1.00  0.00     0.088 C 
HETATM   14  C   UNL     1     -42.838 -47.623  10.947  1.00  0.00     0.004 C 
HETATM   15  C   UNL     1     -42.829 -47.787   9.423  1.00  0.00     0.012 C 
HETATM   16  C   UNL     1     -42.796 -46.131  11.323  1.00  0.00     0.006 C 
HETATM   17  C   UNL     1     -41.439 -45.484  11.043  1.00  0.00     0.001 C 
HETATM   18  C   UNL     1     -40.290 -46.257  11.686  1.00  0.00     0.002 C 
HETATM   19  C   UNL     1     -40.321 -47.744  11.336  1.00  0.00     0.025 C 
ENDBRANCH  10  13
ENDBRANCH   8   9
ENDBRANCH   1   8
BRANCH   3  20
HETATM   20  N   UNL     1     -40.289 -55.073  15.526  1.00  0.00    -0.114 N 
HETATM   21  O   UNL     1     -40.562 -55.727  16.540  1.00  0.00    -0.532 OA
HETATM   22  O   UNL     1     -39.140 -54.887  15.099  1.00  0.00    -0.532 OA
ENDBRANCH   3  20
BRANCH   5  23
HETATM   23  C   UNL     1     -45.178 -54.804  14.686  1.00  0.00     0.255 C 
HETATM   24  O   UNL     1     -45.631 -54.539  15.793  1.00  0.00    -0.268 OA
HETATM   25  N   UNL     1     -45.944 -55.428  13.756  1.00  0.00    -0.366 N 
HETATM   26  H   UNL     1     -45.583 -55.691  12.842  1.00  0.00     0.159 HD
HETATM   27  H   UNL     1     -46.897 -55.668  13.990  1.00  0.00     0.159 HD
ENDBRANCH   5  23
TORSDOF 5
ENDMDL
MODEL 7
REMARK VINA RESULT:      -6.2      5.158      6.752
REMARK  5 active torsions:
REMARK  status: ('A' for Active; 'I' for Inactive)
REMARK    1  A    between atoms: C_7  and  N_8 
REMARK       I    between atoms: N_8  and  C_9 
REMARK    2  A    between atoms: C_9  and  C_11 
REMARK    3  A    between atoms: C_11  and  N_12 
REMARK    4  A    between atoms: C_14  and  N_22 
REMARK    5  A    between atoms: C_16  and  C_17 
REMARK       I    between atoms: C_17  and  N_19 
ROOT
HETATM    1  N   UNL     1     -42.712 -54.306  16.177  1.00  0.00    -0.313 N 
HETATM    2  C   UNL     1     -43.770 -54.255  15.273  1.00  0.00     0.130 C 
HETATM    3  C   UNL     1     -43.533 -54.192  13.952  1.00  0.00     0.119 C 
HETATM    4  C   UNL     1     -42.179 -54.073  13.460  1.00  0.00     0.060 C 
HETATM    5  C   UNL     1     -41.129 -54.141  14.301  1.00  0.00     0.102 C 
HETATM    6  C   UNL     1     -41.381 -54.392  15.755  1.00  0.00     0.263 C 
HETATM    7  O   UNL     1     -40.458 -54.635  16.530  1.00  0.00    -0.267 OA
ENDROOT
BRANCH   1   8
HETATM    8  C   UNL     1     -42.978 -54.429  17.611  1.00  0.00     0.234 C 
BRANCH   8   9
HETATM    9  C   UNL     1     -44.407 -53.981  17.949  1.00  0.00     0.236 C 
HETATM   10  N   UNL     1     -44.591 -52.610  17.923  1.00  0.00    -0.355 N 
HETATM   11  H   UNL     1     -43.914 -52.079  17.376  1.00  0.00     0.162 HD
HETATM   12  O   UNL     1     -45.309 -54.786  18.170  1.00  0.00    -0.272 OA
BRANCH  10  13
HETATM   13  C   UNL     1     -45.879 -51.986  18.199  1.00  0.00     0.088 C 
HETATM   14  C   UNL     1     -46.812 -51.934  16.964  1.00  0.00     0.004 C 
HETATM   15  C   UNL     1     -46.217 -51.185  15.766  1.00  0.00     0.012 C 
HETATM   16  C   UNL     1     -48.158 -51.306  17.370  1.00  0.00     0.006 C 
HETATM   17  C   UNL     1     -48.002 -49.935  18.027  1.00  0.00     0.001 C 
HETATM   18  C   UNL     1     -47.022 -49.967  19.197  1.00  0.00     0.002 C 
HETATM   19  C   UNL     1     -45.683 -50.598  18.820  1.00  0.00     0.025 C 
ENDBRANCH  10  13
ENDBRANCH   8   9
ENDBRANCH   1   8
BRANCH   3  20
HETATM   20  N   UNL     1     -44.676 -54.240  13.039  1.00  0.00    -0.114 N 
HETATM   21  O   UNL     1     -45.490 -55.159  13.198  1.00  0.00    -0.532 OA
HETATM   22  O   UNL     1     -44.779 -53.353  12.180  1.00  0.00    -0.532 OA
ENDBRANCH   3  20
BRANCH   5  23
HETATM   23  C   UNL     1     -39.768 -53.918  13.733  1.00  0.00     0.255 C 
HETATM   24  O   UNL     1     -39.442 -52.870  13.188  1.00  0.00    -0.268 OA
HETATM   25  N   UNL     1     -38.878 -54.935  13.866  1.00  0.00    -0.366 N 
HETATM   26  H   UNL     1     -39.131 -55.828  14.282  1.00  0.00     0.159 HD
HETATM   27  H   UNL     1     -37.940 -54.811  13.509  1.00  0.00     0.159 HD
ENDBRANCH   5  23
TORSDOF 5
ENDMDL
MODEL 8
REMARK VINA RESULT:      -6.2      2.393      3.058
REMARK  5 active torsions:
REMARK  status: ('A' for Active; 'I' for Inactive)
REMARK    1  A    between atoms: C_7  and  N_8 
REMARK       I    between atoms: N_8  and  C_9 
REMARK    2  A    between atoms: C_9  and  C_11 
REMARK    3  A    between atoms: C_11  and  N_12 
REMARK    4  A    between atoms: C_14  and  N_22 
REMARK    5  A    between atoms: C_16  and  C_17 
REMARK       I    between atoms: C_17  and  N_19 
ROOT
HETATM    1  N   UNL     1     -41.477 -52.061  12.228  1.00  0.00    -0.313 N 
HETATM    2  C   UNL     1     -42.783 -52.542  12.260  1.00  0.00     0.130 C 
HETATM    3  C   UNL     1     -43.104 -53.586  13.041  1.00  0.00     0.119 C 
HETATM    4  C   UNL     1     -42.077 -54.289  13.777  1.00  0.00     0.060 C 
HETATM    5  C   UNL     1     -40.807 -53.841  13.789  1.00  0.00     0.102 C 
HETATM    6  C   UNL     1     -40.480 -52.572  13.065  1.00  0.00     0.263 C 
HETATM    7  O   UNL     1     -39.382 -52.032  13.190  1.00  0.00    -0.267 OA
ENDROOT
BRANCH   1   8
HETATM    8  C   UNL     1     -41.145 -50.888  11.417  1.00  0.00     0.234 C 
BRANCH   8   9
HETATM    9  C   UNL     1     -41.360 -49.591  12.209  1.00  0.00     0.236 C 
HETATM   10  N   UNL     1     -40.199 -48.878  12.452  1.00  0.00    -0.355 N 
HETATM   11  H   UNL     1     -39.417 -49.073  11.828  1.00  0.00     0.162 HD
HETATM   12  O   UNL     1     -42.478 -49.207  12.545  1.00  0.00    -0.272 OA
BRANCH  10  13
HETATM   13  C   UNL     1     -40.192 -47.612  13.173  1.00  0.00     0.088 C 
HETATM   14  C   UNL     1     -40.704 -46.421  12.327  1.00  0.00     0.004 C 
HETATM   15  C   UNL     1     -39.908 -46.187  11.037  1.00  0.00     0.012 C 
HETATM   16  C   UNL     1     -40.706 -45.146  13.190  1.00  0.00     0.006 C 
HETATM   17  C   UNL     1     -39.345 -44.855  13.824  1.00  0.00     0.001 C 
HETATM   18  C   UNL     1     -38.802 -46.054  14.596  1.00  0.00     0.002 C 
HETATM   19  C   UNL     1     -38.804 -47.334  13.761  1.00  0.00     0.025 C 
ENDBRANCH  10  13
ENDBRANCH   8   9
ENDBRANCH   1   8
BRANCH   3  20
HETATM   20  N   UNL     1     -44.509 -53.991  13.115  1.00  0.00    -0.114 N 
HETATM   21  O   UNL     1     -44.812 -54.831  13.972  1.00  0.00    -0.532 OA
HETATM   22  O   UNL     1     -45.315 -53.458  12.339  1.00  0.00    -0.532 OA
ENDBRANCH   3  20
BRANCH   5  23
HETATM   23  C   UNL     1     -39.785 -54.667  14.496  1.00  0.00     0.255 C 
HETATM   24  O   UNL     1     -39.915 -55.022  15.661  1.00  0.00    -0.268 OA
HETATM   25  N   UNL     1     -38.695 -55.035  13.776  1.00  0.00    -0.366 N 
HETATM   26  H   UNL     1     -38.545 -54.726  12.819  1.00  0.00     0.159 HD
HETATM   27  H   UNL     1     -37.991 -55.612  14.218  1.00  0.00     0.159 HD
ENDBRANCH   5  23
TORSDOF 5
ENDMDL
MODEL 9
REMARK VINA RESULT:      -6.1      1.899      2.453
REMARK  5 active torsions:
REMARK  status: ('A' for Active; 'I' for Inactive)
REMARK    1  A    between atoms: C_7  and  N_8 
REMARK       I    between atoms: N_8  and  C_9 
REMARK    2  A    between atoms: C_9  and  C_11 
REMARK    3  A    between atoms: C_11  and  N_12 
REMARK    4  A    between atoms: C_14  and  N_22 
REMARK    5  A    between atoms: C_16  and  C_17 
REMARK       I    between atoms: C_17  and  N_19 
ROOT
HETATM    1  N   UNL     1     -42.221 -52.831  12.847  1.00  0.00    -0.313 N 
HETATM    2  C   UNL     1     -43.584 -52.686  12.607  1.00  0.00     0.130 C 
HETATM    3  C   UNL     1     -44.482 -53.327  13.373  1.00  0.00     0.119 C 
HETATM    4  C   UNL     1     -44.041 -54.254  14.391  1.00  0.00     0.060 C 
HETATM    5  C   UNL     1     -42.731 -54.405  14.669  1.00  0.00     0.102 C 
HETATM    6  C   UNL     1     -41.735 -53.559  13.939  1.00  0.00     0.263 C 
HETATM    7  O   UNL     1     -40.553 -53.532  14.276  1.00  0.00    -0.267 OA
ENDROOT
BRANCH   1   8
HETATM    8  C   UNL     1     -41.250 -52.088  12.042  1.00  0.00     0.234 C 
BRANCH   8   9
HETATM    9  C   UNL     1     -41.192 -50.614  12.467  1.00  0.00     0.236 C 
HETATM   10  N   UNL     1     -41.426 -49.719  11.438  1.00  0.00    -0.355 N 
HETATM   11  H   UNL     1     -41.929 -50.087  10.632  1.00  0.00     0.162 HD
HETATM   12  O   UNL     1     -41.005 -50.277  13.634  1.00  0.00    -0.272 OA
BRANCH  10  13
HETATM   13  C   UNL     1     -41.430 -48.276  11.640  1.00  0.00     0.088 C 
HETATM   14  C   UNL     1     -42.652 -47.571  11.000  1.00  0.00     0.004 C 
HETATM   15  C   UNL     1     -42.778 -47.797   9.489  1.00  0.00     0.012 C 
HETATM   16  C   UNL     1     -42.590 -46.065  11.311  1.00  0.00     0.006 C 
HETATM   17  C   UNL     1     -41.271 -45.422  10.884  1.00  0.00     0.001 C 
HETATM   18  C   UNL     1     -40.062 -46.161  11.451  1.00  0.00     0.002 C 
HETATM   19  C   UNL     1     -40.109 -47.661  11.165  1.00  0.00     0.025 C 
ENDBRANCH  10  13
ENDBRANCH   8   9
ENDBRANCH   1   8
BRANCH   3  20
HETATM   20  N   UNL     1     -45.904 -53.065  13.143  1.00  0.00    -0.114 N 
HETATM   21  O   UNL     1     -46.243 -52.746  11.997  1.00  0.00    -0.532 OA
HETATM   22  O   UNL     1     -46.687 -53.198  14.095  1.00  0.00    -0.532 OA
ENDBRANCH   3  20
BRANCH   5  23
HETATM   23  C   UNL     1     -42.347 -55.445  15.667  1.00  0.00     0.255 C 
HETATM   24  O   UNL     1     -42.953 -56.503  15.784  1.00  0.00    -0.268 OA
HETATM   25  N   UNL     1     -41.265 -55.177  16.440  1.00  0.00    -0.366 N 
HETATM   26  H   UNL     1     -40.764 -54.293  16.388  1.00  0.00     0.159 HD
HETATM   27  H   UNL     1     -40.965 -55.868  17.114  1.00  0.00     0.159 HD
ENDBRANCH   5  23
TORSDOF 5
ENDMDL
