MODEL 1
REMARK VINA RESULT:      -6.4      0.000      0.000
REMARK  4 active torsions:
REMARK  status: ('A' for Active; 'I' for Inactive)
REMARK    1  A    between atoms: C_2  and  C_3 
REMARK    2  A    between atoms: C_3  and  N_4 
REMARK       I    between atoms: N_4  and  C_5 
REMARK    3  A    between atoms: C_5  and  C_7 
REMARK    4  A    between atoms: C_7  and  C_8 
ROOT
HETATM    1  N   UNL     1     -44.167 -53.517  14.428  1.00  0.00    -0.360 N 
HETATM    2  C   UNL     1     -43.633 -53.930  13.227  1.00  0.00     0.223 C 
HETATM    3  O   UNL     1     -44.295 -54.191  12.228  1.00  0.00    -0.273 OA
HETATM    4  H   UNL     1     -43.563 -53.486  15.240  1.00  0.00     0.162 HD
ENDROOT
BRANCH   1   5
HETATM    5  C   UNL     1     -45.581 -53.253  14.622  1.00  0.00     0.131 C 
BRANCH   5   6
HETATM    6  C   UNL     1     -45.972 -51.765  14.391  1.00  0.00    -0.028 C 
HETATM    7  C   UNL     1     -46.455 -51.585  12.927  1.00  0.00     0.016 C 
HETATM    8  C   UNL     1     -47.170 -51.354  15.293  1.00  0.00     0.011 C 
HETATM    9  C   UNL     1     -47.095 -51.694  16.778  1.00  0.00     0.001 C 
HETATM   10  C   UNL     1     -46.115 -50.917  17.653  1.00  0.00     0.000 C 
HETATM   11  C   UNL     1     -45.102 -50.005  16.977  1.00  0.00     0.000 C 
HETATM   12  C   UNL     1     -44.180 -50.704  15.986  1.00  0.00     0.001 C 
HETATM   13  C   UNL     1     -44.767 -50.813  14.582  1.00  0.00     0.011 C 
ENDBRANCH   5   6
ENDBRANCH   1   5
BRANCH   2  14
HETATM   14  C   UNL     1     -42.119 -54.083  13.247  1.00  0.00     0.161 C 
BRANCH  14  15
HETATM   15  C   UNL     1     -41.498 -52.852  12.700  1.00  0.00     0.035 A 
HETATM   16  C   UNL     1     -40.807 -51.819  13.294  1.00  0.00     0.045 A 
HETATM   17  C   UNL     1     -40.439 -50.980  12.230  1.00  0.00     0.109 A 
HETATM   18  N   UNL     1     -40.870 -51.432  11.050  1.00  0.00    -0.312 N 
HETATM   19  N   UNL     1     -41.510 -52.571  11.357  1.00  0.00    -0.305 N 
ATOM     20  HN  UNL     1     -40.744 -51.009  10.130  1.00  0.00     0.186 HD
HETATM   21  H   UNL     1     -41.915 -53.124  10.605  1.00  0.00     0.186 HD
ENDBRANCH  14  15
ENDBRANCH   2  14
TORSDOF 4
ENDMDL
MODEL 2
REMARK VINA RESULT:      -6.0      3.180      3.984
REMARK  4 active torsions:
REMARK  status: ('A' for Active; 'I' for Inactive)
REMARK    1  A    between atoms: C_2  and  C_3 
REMARK    2  A    between atoms: C_3  and  N_4 
REMARK       I    between atoms: N_4  and  C_5 
REMARK    3  A    between atoms: C_5  and  C_7 
REMARK    4  A    between atoms: C_7  and  C_8 
ROOT
HETATM    1  N   UNL     1     -44.138 -50.372  13.075  1.00  0.00    -0.360 N 
HETATM    2  C   UNL     1     -42.976 -49.841  12.560  1.00  0.00     0.223 C 
HETATM    3  O   UNL     1     -41.971 -50.495  12.302  1.00  0.00    -0.273 OA
HETATM    4  H   UNL     1     -44.852 -49.737  13.410  1.00  0.00     0.162 HD
ENDROOT
BRANCH   1   5
HETATM    5  C   UNL     1     -44.339 -51.794  13.287  1.00  0.00     0.131 C 
BRANCH   5   6
HETATM    6  C   UNL     1     -45.833 -52.194  13.445  1.00  0.00    -0.028 C 
HETATM    7  C   UNL     1     -46.556 -52.026  12.082  1.00  0.00     0.016 C 
HETATM    8  C   UNL     1     -45.974 -53.695  13.824  1.00  0.00     0.011 C 
HETATM    9  C   UNL     1     -45.123 -54.225  14.974  1.00  0.00     0.001 C 
HETATM   10  C   UNL     1     -45.470 -53.790  16.395  1.00  0.00     0.000 C 
HETATM   11  C   UNL     1     -46.494 -52.682  16.587  1.00  0.00     0.000 C 
HETATM   12  C   UNL     1     -46.135 -51.363  15.915  1.00  0.00     0.001 C 
HETATM   13  C   UNL     1     -46.573 -51.284  14.456  1.00  0.00     0.011 C 
ENDBRANCH   5   6
ENDBRANCH   1   5
BRANCH   2  14
HETATM   14  C   UNL     1     -43.021 -48.332  12.370  1.00  0.00     0.161 C 
BRANCH  14  15
HETATM   15  C   UNL     1     -43.207 -48.029  10.930  1.00  0.00     0.035 A 
HETATM   16  C   UNL     1     -44.204 -47.375  10.240  1.00  0.00     0.045 A 
HETATM   17  C   UNL     1     -43.772 -47.375   8.905  1.00  0.00     0.109 A 
HETATM   18  N   UNL     1     -42.598 -47.991   8.747  1.00  0.00    -0.312 N 
HETATM   19  N   UNL     1     -42.270 -48.379   9.990  1.00  0.00    -0.305 N 
ATOM     20  HN  UNL     1     -42.073 -48.134   7.885  1.00  0.00     0.186 HD
HETATM   21  H   UNL     1     -41.385 -48.859  10.136  1.00  0.00     0.186 HD
ENDBRANCH  14  15
ENDBRANCH   2  14
TORSDOF 4
ENDMDL
MODEL 3
REMARK VINA RESULT:      -6.0      2.186      3.753
REMARK  4 active torsions:
REMARK  status: ('A' for Active; 'I' for Inactive)
REMARK    1  A    between atoms: C_2  and  C_3 
REMARK    2  A    between atoms: C_3  and  N_4 
REMARK       I    between atoms: N_4  and  C_5 
REMARK    3  A    between atoms: C_5  and  C_7 
REMARK    4  A    between atoms: C_7  and  C_8 
ROOT
HETATM    1  N   UNL     1     -42.955 -51.717  12.578  1.00  0.00    -0.360 N 
HETATM    2  C   UNL     1     -41.697 -51.466  12.075  1.00  0.00     0.223 C 
HETATM    3  O   UNL     1     -40.891 -52.335  11.761  1.00  0.00    -0.273 OA
HETATM    4  H   UNL     1     -43.485 -50.944  12.962  1.00  0.00     0.162 HD
ENDROOT
BRANCH   1   5
HETATM    5  C   UNL     1     -43.509 -53.053  12.709  1.00  0.00     0.131 C 
BRANCH   5   6
HETATM    6  C   UNL     1     -43.589 -53.550  14.180  1.00  0.00    -0.028 C 
HETATM    7  C   UNL     1     -42.158 -53.613  14.778  1.00  0.00     0.016 C 
HETATM    8  C   UNL     1     -44.384 -52.551  15.067  1.00  0.00     0.011 C 
HETATM    9  C   UNL     1     -45.738 -52.066  14.559  1.00  0.00     0.001 C 
HETATM   10  C   UNL     1     -46.905 -53.050  14.550  1.00  0.00     0.000 C 
HETATM   11  C   UNL     1     -46.620 -54.518  14.828  1.00  0.00     0.000 C 
HETATM   12  C   UNL     1     -45.632 -55.166  13.867  1.00  0.00     0.001 C 
HETATM   13  C   UNL     1     -44.174 -54.981  14.277  1.00  0.00     0.011 C 
ENDBRANCH   5   6
ENDBRANCH   1   5
BRANCH   2  14
HETATM   14  C   UNL     1     -41.359 -49.985  11.974  1.00  0.00     0.161 C 
BRANCH  14  15
HETATM   15  C   UNL     1     -39.889 -49.829  11.851  1.00  0.00     0.035 A 
HETATM   16  C   UNL     1     -38.905 -49.550  12.774  1.00  0.00     0.045 A 
HETATM   17  C   UNL     1     -37.709 -49.584  12.040  1.00  0.00     0.109 A 
HETATM   18  N   UNL     1     -37.910 -49.852  10.748  1.00  0.00    -0.312 N 
HETATM   19  N   UNL     1     -39.241 -49.999  10.654  1.00  0.00    -0.305 N 
ATOM     20  HN  UNL     1     -37.215 -49.926  10.005  1.00  0.00     0.186 HD
HETATM   21  H   UNL     1     -39.646 -50.237   9.751  1.00  0.00     0.186 HD
ENDBRANCH  14  15
ENDBRANCH   2  14
TORSDOF 4
ENDMDL
MODEL 4
REMARK VINA RESULT:      -5.9      3.529      4.827
REMARK  4 active torsions:
REMARK  status: ('A' for Active; 'I' for Inactive)
REMARK    1  A    between atoms: C_2  and  C_3 
REMARK    2  A    between atoms: C_3  and  N_4 
REMARK       I    between atoms: N_4  and  C_5 
REMARK    3  A    between atoms: C_5  and  C_7 
REMARK    4  A    between atoms: C_7  and  C_8 
ROOT
HETATM    1  N   UNL     1     -43.461 -50.000  12.702  1.00  0.00    -0.360 N 
HETATM    2  C   UNL     1     -42.455 -49.234  12.154  1.00  0.00     0.223 C 
HETATM    3  O   UNL     1     -41.304 -49.622  11.985  1.00  0.00    -0.273 OA
HETATM    4  H   UNL     1     -44.330 -49.547  12.954  1.00  0.00     0.162 HD
ENDROOT
BRANCH   1   5
HETATM    5  C   UNL     1     -43.294 -51.397  13.059  1.00  0.00     0.131 C 
BRANCH   5   6
HETATM    6  C   UNL     1     -43.905 -51.762  14.442  1.00  0.00    -0.028 C 
HETATM    7  C   UNL     1     -44.026 -50.477  15.303  1.00  0.00     0.016 C 
HETATM    8  C   UNL     1     -45.350 -52.314  14.287  1.00  0.00     0.011 C 
HETATM    9  C   UNL     1     -45.589 -53.413  13.256  1.00  0.00     0.001 C 
HETATM   10  C   UNL     1     -45.042 -54.809  13.541  1.00  0.00     0.000 C 
HETATM   11  C   UNL     1     -44.096 -54.992  14.719  1.00  0.00     0.000 C 
HETATM   12  C   UNL     1     -42.831 -54.146  14.655  1.00  0.00     0.001 C 
HETATM   13  C   UNL     1     -43.007 -52.744  15.232  1.00  0.00     0.011 C 
ENDBRANCH   5   6
ENDBRANCH   1   5
BRANCH   2  14
HETATM   14  C   UNL     1     -42.882 -47.817  11.804  1.00  0.00     0.161 C 
BRANCH  14  15
HETATM   15  C   UNL     1     -43.263 -47.763  10.371  1.00  0.00     0.035 A 
HETATM   16  C   UNL     1     -44.394 -47.311   9.728  1.00  0.00     0.045 A 
HETATM   17  C   UNL     1     -44.121 -47.489   8.362  1.00  0.00     0.109 A 
HETATM   18  N   UNL     1     -42.918 -48.025   8.147  1.00  0.00    -0.312 N 
HETATM   19  N   UNL     1     -42.411 -48.182   9.380  1.00  0.00    -0.305 N 
ATOM     20  HN  UNL     1     -42.485 -48.261   7.254  1.00  0.00     0.186 HD
HETATM   21  H   UNL     1     -41.471 -48.560   9.480  1.00  0.00     0.186 HD
ENDBRANCH  14  15
ENDBRANCH   2  14
TORSDOF 4
ENDMDL
MODEL 5
REMARK VINA RESULT:      -5.8      2.018      2.869
REMARK  4 active torsions:
REMARK  status: ('A' for Active; 'I' for Inactive)
REMARK    1  A    between atoms: C_2  and  C_3 
REMARK    2  A    between atoms: C_3  and  N_4 
REMARK       I    between atoms: N_4  and  C_5 
REMARK    3  A    between atoms: C_5  and  C_7 
REMARK    4  A    between atoms: C_7  and  C_8 
ROOT
HETATM    1  N   UNL     1     -43.855 -51.128  12.818  1.00  0.00    -0.360 N 
HETATM    2  C   UNL     1     -42.510 -50.934  12.587  1.00  0.00     0.223 C 
HETATM    3  O   UNL     1     -41.646 -51.785  12.774  1.00  0.00    -0.273 OA
HETATM    4  H   UNL     1     -44.470 -50.324  12.794  1.00  0.00     0.162 HD
ENDROOT
BRANCH   1   5
HETATM    5  C   UNL     1     -44.418 -52.403  13.225  1.00  0.00     0.131 C 
BRANCH   5   6
HETATM    6  C   UNL     1     -45.960 -52.366  13.423  1.00  0.00    -0.028 C 
HETATM    7  C   UNL     1     -46.649 -52.168  12.047  1.00  0.00     0.016 C 
HETATM    8  C   UNL     1     -46.486 -53.720  13.977  1.00  0.00     0.011 C 
HETATM    9  C   UNL     1     -45.775 -54.323  15.185  1.00  0.00     0.001 C 
HETATM   10  C   UNL     1     -45.953 -53.650  16.543  1.00  0.00     0.000 C 
HETATM   11  C   UNL     1     -46.639 -52.293  16.598  1.00  0.00     0.000 C 
HETATM   12  C   UNL     1     -45.959 -51.205  15.776  1.00  0.00     0.001 C 
HETATM   13  C   UNL     1     -46.401 -51.180  14.316  1.00  0.00     0.011 C 
ENDBRANCH   5   6
ENDBRANCH   1   5
BRANCH   2  14
HETATM   14  C   UNL     1     -42.164 -49.532  12.110  1.00  0.00     0.161 C 
BRANCH  14  15
HETATM   15  C   UNL     1     -40.708 -49.457  11.837  1.00  0.00     0.035 A 
HETATM   16  C   UNL     1     -39.668 -48.849  12.506  1.00  0.00     0.045 A 
HETATM   17  C   UNL     1     -38.523 -49.187  11.766  1.00  0.00     0.109 A 
HETATM   18  N   UNL     1     -38.807 -49.939  10.701  1.00  0.00    -0.312 N 
HETATM   19  N   UNL     1     -40.139 -50.094  10.763  1.00  0.00    -0.305 N 
ATOM     20  HN  UNL     1     -38.162 -50.310  10.002  1.00  0.00     0.186 HD
HETATM   21  H   UNL     1     -40.600 -50.663  10.056  1.00  0.00     0.186 HD
ENDBRANCH  14  15
ENDBRANCH   2  14
TORSDOF 4
ENDMDL
MODEL 6
REMARK VINA RESULT:      -5.8      2.095      3.102
REMARK  4 active torsions:
REMARK  status: ('A' for Active; 'I' for Inactive)
REMARK    1  A    between atoms: C_2  and  C_3 
REMARK    2  A    between atoms: C_3  and  N_4 
REMARK       I    between atoms: N_4  and  C_5 
REMARK    3  A    between atoms: C_5  and  C_7 
REMARK    4  A    between atoms: C_7  and  C_8 
ROOT
HETATM    1  N   UNL     1     -41.744 -51.808  14.043  1.00  0.00    -0.360 N 
HETATM    2  C   UNL     1     -40.669 -52.200  13.276  1.00  0.00     0.223 C 
HETATM    3  O   UNL     1     -40.749 -52.924  12.289  1.00  0.00    -0.273 OA
HETATM    4  H   UNL     1     -41.566 -51.350  14.927  1.00  0.00     0.162 HD
ENDROOT
BRANCH   1   5
HETATM    5  C   UNL     1     -43.120 -52.137  13.712  1.00  0.00     0.131 C 
BRANCH   5   6
HETATM    6  C   UNL     1     -44.076 -50.910  13.741  1.00  0.00    -0.028 C 
HETATM    7  C   UNL     1     -43.407 -49.723  12.997  1.00  0.00     0.016 C 
HETATM    8  C   UNL     1     -45.394 -51.210  12.974  1.00  0.00     0.011 C 
HETATM    9  C   UNL     1     -46.130 -52.507  13.297  1.00  0.00     0.001 C 
HETATM   10  C   UNL     1     -46.837 -52.624  14.645  1.00  0.00     0.000 C 
HETATM   11  C   UNL     1     -46.592 -51.547  15.691  1.00  0.00     0.000 C 
HETATM   12  C   UNL     1     -45.134 -51.375  16.096  1.00  0.00     0.001 C 
HETATM   13  C   UNL     1     -44.357 -50.429  15.185  1.00  0.00     0.011 C 
ENDBRANCH   5   6
ENDBRANCH   1   5
BRANCH   2  14
HETATM   14  C   UNL     1     -39.330 -51.685  13.786  1.00  0.00     0.161 C 
BRANCH  14  15
HETATM   15  C   UNL     1     -38.630 -50.978  12.685  1.00  0.00     0.035 A 
HETATM   16  C   UNL     1     -37.295 -50.786  12.408  1.00  0.00     0.045 A 
HETATM   17  C   UNL     1     -37.282 -50.076  11.196  1.00  0.00     0.109 A 
HETATM   18  N   UNL     1     -38.511 -49.821  10.741  1.00  0.00    -0.312 N 
HETATM   19  N   UNL     1     -39.316 -50.379  11.658  1.00  0.00    -0.305 N 
ATOM     20  HN  UNL     1     -38.776 -49.319   9.894  1.00  0.00     0.186 HD
HETATM   21  H   UNL     1     -40.323 -50.338  11.518  1.00  0.00     0.186 HD
ENDBRANCH  14  15
ENDBRANCH   2  14
TORSDOF 4
ENDMDL
MODEL 7
REMARK VINA RESULT:      -5.5      3.795      5.092
REMARK  4 active torsions:
REMARK  status: ('A' for Active; 'I' for Inactive)
REMARK    1  A    between atoms: C_2  and  C_3 
REMARK    2  A    between atoms: C_3  and  N_4 
REMARK       I    between atoms: N_4  and  C_5 
REMARK    3  A    between atoms: C_5  and  C_7 
REMARK    4  A    between atoms: C_7  and  C_8 
ROOT
HETATM    1  N   UNL     1     -43.197 -50.208  12.531  1.00  0.00    -0.360 N 
HETATM    2  C   UNL     1     -42.916 -48.869  12.374  1.00  0.00     0.223 C 
HETATM    3  O   UNL     1     -43.174 -48.005  13.206  1.00  0.00    -0.273 OA
HETATM    4  H   UNL     1     -43.099 -50.819  11.729  1.00  0.00     0.162 HD
ENDROOT
BRANCH   1   5
HETATM    5  C   UNL     1     -43.754 -50.769  13.749  1.00  0.00     0.131 C 
BRANCH   5   6
HETATM    6  C   UNL     1     -44.741 -51.943  13.498  1.00  0.00    -0.028 C 
HETATM    7  C   UNL     1     -45.978 -51.416  12.722  1.00  0.00     0.016 C 
HETATM    8  C   UNL     1     -44.099 -53.032  12.594  1.00  0.00     0.011 C 
HETATM    9  C   UNL     1     -42.705 -53.534  12.961  1.00  0.00     0.001 C 
HETATM   10  C   UNL     1     -42.552 -54.412  14.200  1.00  0.00     0.000 C 
HETATM   11  C   UNL     1     -43.742 -54.563  15.136  1.00  0.00     0.000 C 
HETATM   12  C   UNL     1     -44.261 -53.255  15.719  1.00  0.00     0.001 C 
HETATM   13  C   UNL     1     -45.272 -52.547  14.821  1.00  0.00     0.011 C 
ENDBRANCH   5   6
ENDBRANCH   1   5
BRANCH   2  14
HETATM   14  C   UNL     1     -42.279 -48.526  11.035  1.00  0.00     0.161 C 
BRANCH  14  15
HETATM   15  C   UNL     1     -43.183 -47.622  10.284  1.00  0.00     0.035 A 
HETATM   16  C   UNL     1     -42.946 -46.523   9.488  1.00  0.00     0.045 A 
HETATM   17  C   UNL     1     -44.214 -46.137   9.027  1.00  0.00     0.109 A 
HETATM   18  N   UNL     1     -45.189 -46.916   9.500  1.00  0.00    -0.312 N 
HETATM   19  N   UNL     1     -44.542 -47.814  10.260  1.00  0.00    -0.305 N 
ATOM     20  HN  UNL     1     -46.192 -46.846   9.326  1.00  0.00     0.186 HD
HETATM   21  H   UNL     1     -45.079 -48.546  10.719  1.00  0.00     0.186 HD
ENDBRANCH  14  15
ENDBRANCH   2  14
TORSDOF 4
ENDMDL
MODEL 8
REMARK VINA RESULT:      -5.5      1.683      2.552
REMARK  4 active torsions:
REMARK  status: ('A' for Active; 'I' for Inactive)
REMARK    1  A    between atoms: C_2  and  C_3 
REMARK    2  A    between atoms: C_3  and  N_4 
REMARK       I    between atoms: N_4  and  C_5 
REMARK    3  A    between atoms: C_5  and  C_7 
REMARK    4  A    between atoms: C_7  and  C_8 
ROOT
HETATM    1  N   UNL     1     -42.471 -52.292  13.980  1.00  0.00    -0.360 N 
HETATM    2  C   UNL     1     -41.207 -52.810  14.159  1.00  0.00     0.223 C 
HETATM    3  O   UNL     1     -40.713 -53.070  15.251  1.00  0.00    -0.273 OA
HETATM    4  H   UNL     1     -42.730 -51.957  13.061  1.00  0.00     0.162 HD
ENDROOT
BRANCH   1   5
HETATM    5  C   UNL     1     -43.405 -52.078  15.070  1.00  0.00     0.131 C 
BRANCH   5   6
HETATM    6  C   UNL     1     -44.316 -50.833  14.873  1.00  0.00    -0.028 C 
HETATM    7  C   UNL     1     -43.468 -49.664  14.302  1.00  0.00     0.016 C 
HETATM    8  C   UNL     1     -45.426 -51.112  13.821  1.00  0.00     0.011 C 
HETATM    9  C   UNL     1     -46.244 -52.392  13.968  1.00  0.00     0.001 C 
HETATM   10  C   UNL     1     -47.247 -52.486  15.114  1.00  0.00     0.000 C 
HETATM   11  C   UNL     1     -47.230 -51.406  16.186  1.00  0.00     0.000 C 
HETATM   12  C   UNL     1     -45.902 -51.259  16.918  1.00  0.00     0.001 C 
HETATM   13  C   UNL     1     -44.916 -50.335  16.210  1.00  0.00     0.011 C 
ENDBRANCH   5   6
ENDBRANCH   1   5
BRANCH   2  14
HETATM   14  C   UNL     1     -40.432 -53.003  12.864  1.00  0.00     0.161 C 
BRANCH  14  15
HETATM   15  C   UNL     1     -40.233 -51.684  12.215  1.00  0.00     0.035 A 
HETATM   16  C   UNL     1     -39.460 -50.593  12.548  1.00  0.00     0.045 A 
HETATM   17  C   UNL     1     -39.671 -49.677  11.505  1.00  0.00     0.109 A 
HETATM   18  N   UNL     1     -40.521 -50.137  10.585  1.00  0.00    -0.312 N 
HETATM   19  N   UNL     1     -40.849 -51.359  11.033  1.00  0.00    -0.305 N 
ATOM     20  HN  UNL     1     -40.846 -49.669   9.738  1.00  0.00     0.186 HD
HETATM   21  H   UNL     1     -41.481 -51.932  10.478  1.00  0.00     0.186 HD
ENDBRANCH  14  15
ENDBRANCH   2  14
TORSDOF 4
ENDMDL
MODEL 9
REMARK VINA RESULT:      -5.4      2.124      5.904
REMARK  4 active torsions:
REMARK  status: ('A' for Active; 'I' for Inactive)
REMARK    1  A    between atoms: C_2  and  C_3 
REMARK    2  A    between atoms: C_3  and  N_4 
REMARK       I    between atoms: N_4  and  C_5 
REMARK    3  A    between atoms: C_5  and  C_7 
REMARK    4  A    between atoms: C_7  and  C_8 
ROOT
HETATM    1  N   UNL     1     -42.222 -52.331  11.787  1.00  0.00    -0.360 N 
HETATM    2  C   UNL     1     -43.086 -53.009  12.619  1.00  0.00     0.223 C 
HETATM    3  O   UNL     1     -42.762 -53.524  13.683  1.00  0.00    -0.273 OA
HETATM    4  H   UNL     1     -42.539 -52.084  10.858  1.00  0.00     0.162 HD
ENDROOT
BRANCH   1   5
HETATM    5  C   UNL     1     -40.834 -52.068  12.124  1.00  0.00     0.131 C 
BRANCH   5   6
HETATM    6  C   UNL     1     -40.546 -50.575  12.451  1.00  0.00    -0.028 C 
HETATM    7  C   UNL     1     -41.637 -49.688  11.794  1.00  0.00     0.016 C 
HETATM    8  C   UNL     1     -40.639 -50.309  13.980  1.00  0.00     0.011 C 
HETATM    9  C   UNL     1     -39.884 -51.248  14.916  1.00  0.00     0.001 C 
HETATM   10  C   UNL     1     -38.360 -51.168  14.952  1.00  0.00     0.000 C 
HETATM   11  C   UNL     1     -37.651 -50.326  13.901  1.00  0.00     0.000 C 
HETATM   12  C   UNL     1     -37.928 -50.742  12.462  1.00  0.00     0.001 C 
HETATM   13  C   UNL     1     -39.187 -50.108  11.877  1.00  0.00     0.011 C 
ENDBRANCH   5   6
ENDBRANCH   1   5
BRANCH   2  14
HETATM   14  C   UNL     1     -44.506 -53.108  12.080  1.00  0.00     0.161 C 
BRANCH  14  15
HETATM   15  C   UNL     1     -45.438 -53.356  13.208  1.00  0.00     0.035 A 
HETATM   16  C   UNL     1     -46.141 -52.508  14.035  1.00  0.00     0.045 A 
HETATM   17  C   UNL     1     -46.882 -53.359  14.869  1.00  0.00     0.109 A 
HETATM   18  N   UNL     1     -46.662 -54.649  14.609  1.00  0.00    -0.312 N 
HETATM   19  N   UNL     1     -45.784 -54.627  13.594  1.00  0.00    -0.305 N 
ATOM     20  HN  UNL     1     -47.067 -55.463  15.072  1.00  0.00     0.186 HD
HETATM   21  H   UNL     1     -45.473 -55.509  13.194  1.00  0.00     0.186 HD
ENDBRANCH  14  15
ENDBRANCH   2  14
TORSDOF 4
ENDMDL
