MODEL 1
REMARK VINA RESULT:      -5.8      0.000      0.000
REMARK  5 active torsions:
REMARK  status: ('A' for Active; 'I' for Inactive)
REMARK    1  A    between atoms: C_2  and  N_3 
REMARK    2  A    between atoms: C_2  and  C_13 
REMARK    3  A    between atoms: N_3  and  C_4 
REMARK    4  A    between atoms: C_4  and  C_6 
REMARK       I    between atoms: C_6  and  N_8 
REMARK    5  A    between atoms: C_13  and  N_15 
ROOT
HETATM    1  N   UNL     1     -42.646 -51.926  12.005  1.00  0.00     0.103 N 
HETATM    2  H   UNL     1     -42.345 -52.122  11.046  1.00  0.00     0.317 HD
ENDROOT
BRANCH   1   3
HETATM    3  C   UNL     1     -41.694 -50.928  12.585  1.00  0.00     0.241 C 
HETATM    4  C   UNL     1     -42.416 -49.909  13.481  1.00  0.00     0.045 C 
BRANCH   3   5
HETATM    5  C   UNL     1     -40.851 -50.249  11.456  1.00  0.00     0.136 C 
HETATM    6  C   UNL     1     -41.268 -48.806  11.146  1.00  0.00     0.036 C 
BRANCH   5   7
HETATM    7  N   UNL     1     -39.410 -50.354  11.714  1.00  0.00    -0.297 N 
HETATM    8  C   UNL     1     -38.816 -50.895  12.823  1.00  0.00     0.112 A 
HETATM    9  C   UNL     1     -37.460 -50.751  12.643  1.00  0.00     0.037 A 
HETATM   10  C   UNL     1     -37.331 -50.127  11.389  1.00  0.00     0.108 A 
HETATM   11  N   UNL     1     -38.512 -49.901  10.813  1.00  0.00    -0.310 N 
ATOM     12  HN  UNL     1     -38.696 -49.482   9.901  1.00  0.00     0.186 HD
ENDBRANCH   5   7
ENDBRANCH   3   5
ENDBRANCH   1   3
BRANCH   1  13
HETATM   13  C   UNL     1     -42.669 -53.234  12.716  1.00  0.00     0.308 C 
HETATM   14  C   UNL     1     -41.251 -53.731  12.976  1.00  0.00     0.053 C 
BRANCH  13  15
HETATM   15  C   UNL     1     -43.452 -53.127  14.046  1.00  0.00     0.252 C 
HETATM   16  O   UNL     1     -42.892 -53.284  15.134  1.00  0.00    -0.271 OA
HETATM   17  N   UNL     1     -44.771 -52.744  13.961  1.00  0.00    -0.350 N 
HETATM   18  C   UNL     1     -45.456 -52.155  15.092  1.00  0.00     0.126 C 
HETATM   19  C   UNL     1     -45.672 -52.858  12.833  1.00  0.00     0.126 C 
HETATM   20  C   UNL     1     -46.659 -51.426  14.488  1.00  0.00     0.021 C 
HETATM   21  C   UNL     1     -46.546 -51.630  12.974  1.00  0.00     0.021 C 
ENDBRANCH  13  15
ENDBRANCH   1  13
TORSDOF 5
ENDMDL
MODEL 2
REMARK VINA RESULT:      -5.6      2.676      5.047
REMARK  5 active torsions:
REMARK  status: ('A' for Active; 'I' for Inactive)
REMARK    1  A    between atoms: C_2  and  N_3 
REMARK    2  A    between atoms: C_2  and  C_13 
REMARK    3  A    between atoms: N_3  and  C_4 
REMARK    4  A    between atoms: C_4  and  C_6 
REMARK       I    between atoms: C_6  and  N_8 
REMARK    5  A    between atoms: C_13  and  N_15 
ROOT
HETATM    1  N   UNL     1     -41.999 -50.109  11.382  1.00  0.00     0.103 N 
HETATM    2  H   UNL     1     -41.708 -50.941  10.860  1.00  0.00     0.317 HD
ENDROOT
BRANCH   1   3
HETATM    3  C   UNL     1     -40.963 -49.051  11.162  1.00  0.00     0.241 C 
HETATM    4  C   UNL     1     -39.850 -49.119  12.219  1.00  0.00     0.045 C 
BRANCH   3   5
HETATM    5  C   UNL     1     -41.628 -47.638  11.075  1.00  0.00     0.136 C 
HETATM    6  C   UNL     1     -40.637 -46.494  10.834  1.00  0.00     0.036 C 
BRANCH   5   7
HETATM    7  N   UNL     1     -42.731 -47.614  10.106  1.00  0.00    -0.297 N 
HETATM    8  C   UNL     1     -44.046 -47.338  10.371  1.00  0.00     0.112 A 
HETATM    9  C   UNL     1     -44.713 -47.460   9.175  1.00  0.00     0.037 A 
HETATM   10  C   UNL     1     -43.717 -47.795   8.242  1.00  0.00     0.108 A 
HETATM   11  N   UNL     1     -42.507 -47.872   8.799  1.00  0.00    -0.310 N 
ATOM     12  HN  UNL     1     -41.618 -48.077   8.344  1.00  0.00     0.186 HD
ENDBRANCH   5   7
ENDBRANCH   3   5
ENDBRANCH   1   3
BRANCH   1  13
HETATM   13  C   UNL     1     -42.148 -50.531  12.802  1.00  0.00     0.308 C 
HETATM   14  C   UNL     1     -43.358 -49.857  13.441  1.00  0.00     0.053 C 
BRANCH  13  15
HETATM   15  C   UNL     1     -42.271 -52.070  12.911  1.00  0.00     0.252 C 
HETATM   16  O   UNL     1     -43.176 -52.683  12.339  1.00  0.00    -0.271 OA
HETATM   17  N   UNL     1     -41.266 -52.726  13.584  1.00  0.00    -0.350 N 
HETATM   18  C   UNL     1     -41.002 -54.131  13.354  1.00  0.00     0.126 C 
HETATM   19  C   UNL     1     -40.358 -52.203  14.584  1.00  0.00     0.126 C 
HETATM   20  C   UNL     1     -39.572 -54.351  13.854  1.00  0.00     0.021 C 
HETATM   21  C   UNL     1     -39.084 -52.976  14.320  1.00  0.00     0.021 C 
ENDBRANCH  13  15
ENDBRANCH   1  13
TORSDOF 5
ENDMDL
MODEL 3
REMARK VINA RESULT:      -5.5      3.520      5.868
REMARK  5 active torsions:
REMARK  status: ('A' for Active; 'I' for Inactive)
REMARK    1  A    between atoms: C_2  and  N_3 
REMARK    2  A    between atoms: C_2  and  C_13 
REMARK    3  A    between atoms: N_3  and  C_4 
REMARK    4  A    between atoms: C_4  and  C_6 
REMARK       I    between atoms: C_6  and  N_8 
REMARK    5  A    between atoms: C_13  and  N_15 
ROOT
HETATM    1  N   UNL     1     -40.333 -49.947  10.826  1.00  0.00     0.103 N 
HETATM    2  H   UNL     1     -39.320 -49.965  10.673  1.00  0.00     0.317 HD
ENDROOT
BRANCH   1   3
HETATM    3  C   UNL     1     -40.768 -48.515  10.811  1.00  0.00     0.241 C 
HETATM    4  C   UNL     1     -39.845 -47.633  11.668  1.00  0.00     0.045 C 
BRANCH   3   5
HETATM    5  C   UNL     1     -42.273 -48.392  11.221  1.00  0.00     0.136 C 
HETATM    6  C   UNL     1     -42.512 -47.543  12.475  1.00  0.00     0.036 C 
BRANCH   5   7
HETATM    7  N   UNL     1     -43.108 -47.949  10.099  1.00  0.00    -0.297 N 
HETATM    8  C   UNL     1     -44.390 -47.471  10.173  1.00  0.00     0.112 A 
HETATM    9  C   UNL     1     -44.778 -47.210   8.880  1.00  0.00     0.037 A 
HETATM   10  C   UNL     1     -43.661 -47.547   8.096  1.00  0.00     0.108 A 
HETATM   11  N   UNL     1     -42.637 -47.978   8.834  1.00  0.00    -0.310 N 
ATOM     12  HN  UNL     1     -41.711 -48.264   8.516  1.00  0.00     0.186 HD
ENDBRANCH   5   7
ENDBRANCH   3   5
ENDBRANCH   1   3
BRANCH   1  13
HETATM   13  C   UNL     1     -40.576 -50.646  12.119  1.00  0.00     0.308 C 
HETATM   14  C   UNL     1     -41.274 -51.981  11.887  1.00  0.00     0.053 C 
BRANCH  13  15
HETATM   15  C   UNL     1     -39.252 -50.859  12.890  1.00  0.00     0.252 C 
HETATM   16  O   UNL     1     -38.358 -51.581  12.440  1.00  0.00    -0.271 OA
HETATM   17  N   UNL     1     -39.078 -50.125  14.040  1.00  0.00    -0.350 N 
HETATM   18  C   UNL     1     -37.757 -49.865  14.572  1.00  0.00     0.126 C 
HETATM   19  C   UNL     1     -40.087 -49.531  14.892  1.00  0.00     0.126 C 
HETATM   20  C   UNL     1     -37.934 -48.655  15.494  1.00  0.00     0.021 C 
HETATM   21  C   UNL     1     -39.412 -48.268  15.385  1.00  0.00     0.021 C 
ENDBRANCH  13  15
ENDBRANCH   1  13
TORSDOF 5
ENDMDL
MODEL 4
REMARK VINA RESULT:      -5.3      2.010      3.572
REMARK  5 active torsions:
REMARK  status: ('A' for Active; 'I' for Inactive)
REMARK    1  A    between atoms: C_2  and  N_3 
REMARK    2  A    between atoms: C_2  and  C_13 
REMARK    3  A    between atoms: N_3  and  C_4 
REMARK    4  A    between atoms: C_4  and  C_6 
REMARK       I    between atoms: C_6  and  N_8 
REMARK    5  A    between atoms: C_13  and  N_15 
ROOT
HETATM    1  N   UNL     1     -42.464 -51.310  12.016  1.00  0.00     0.103 N 
HETATM    2  H   UNL     1     -41.929 -51.608  11.195  1.00  0.00     0.317 HD
ENDROOT
BRANCH   1   3
HETATM    3  C   UNL     1     -41.812 -50.078  12.559  1.00  0.00     0.241 C 
HETATM    4  C   UNL     1     -42.852 -49.048  13.030  1.00  0.00     0.045 C 
BRANCH   3   5
HETATM    5  C   UNL     1     -40.802 -49.486  11.522  1.00  0.00     0.136 C 
HETATM    6  C   UNL     1     -40.888 -47.963  11.364  1.00  0.00     0.036 C 
BRANCH   5   7
HETATM    7  N   UNL     1     -39.427 -49.926  11.789  1.00  0.00    -0.297 N 
HETATM    8  C   UNL     1     -38.936 -50.395  12.978  1.00  0.00     0.112 A 
HETATM    9  C   UNL     1     -37.603 -50.658  12.767  1.00  0.00     0.037 A 
HETATM   10  C   UNL     1     -37.384 -50.333  11.417  1.00  0.00     0.108 A 
HETATM   11  N   UNL     1     -38.494 -49.906  10.813  1.00  0.00    -0.310 N 
ATOM     12  HN  UNL     1     -38.612 -49.628   9.839  1.00  0.00     0.186 HD
ENDBRANCH   5   7
ENDBRANCH   3   5
ENDBRANCH   1   3
BRANCH   1  13
HETATM   13  C   UNL     1     -42.470 -52.464  12.957  1.00  0.00     0.308 C 
HETATM   14  C   UNL     1     -43.678 -53.359  12.706  1.00  0.00     0.053 C 
BRANCH  13  15
HETATM   15  C   UNL     1     -41.162 -53.282  12.837  1.00  0.00     0.252 C 
HETATM   16  O   UNL     1     -40.518 -53.310  11.785  1.00  0.00    -0.271 OA
HETATM   17  N   UNL     1     -40.700 -53.885  13.984  1.00  0.00    -0.350 N 
HETATM   18  C   UNL     1     -39.307 -54.252  14.130  1.00  0.00     0.126 C 
HETATM   19  C   UNL     1     -41.444 -54.263  15.168  1.00  0.00     0.126 C 
HETATM   20  C   UNL     1     -39.094 -54.398  15.639  1.00  0.00     0.021 C 
HETATM   21  C   UNL     1     -40.440 -54.048  16.280  1.00  0.00     0.021 C 
ENDBRANCH  13  15
ENDBRANCH   1  13
TORSDOF 5
ENDMDL
MODEL 5
REMARK VINA RESULT:      -5.3      1.598      2.853
REMARK  5 active torsions:
REMARK  status: ('A' for Active; 'I' for Inactive)
REMARK    1  A    between atoms: C_2  and  N_3 
REMARK    2  A    between atoms: C_2  and  C_13 
REMARK    3  A    between atoms: N_3  and  C_4 
REMARK    4  A    between atoms: C_4  and  C_6 
REMARK       I    between atoms: C_6  and  N_8 
REMARK    5  A    between atoms: C_13  and  N_15 
ROOT
HETATM    1  N   UNL     1     -42.558 -51.139  12.066  1.00  0.00     0.103 N 
HETATM    2  H   UNL     1     -42.174 -51.056  11.121  1.00  0.00     0.317 HD
ENDROOT
BRANCH   1   3
HETATM    3  C   UNL     1     -41.759 -50.244  12.961  1.00  0.00     0.241 C 
HETATM    4  C   UNL     1     -42.626 -49.636  14.075  1.00  0.00     0.045 C 
BRANCH   3   5
HETATM    5  C   UNL     1     -41.004 -49.159  12.124  1.00  0.00     0.136 C 
HETATM    6  C   UNL     1     -39.773 -49.689  11.379  1.00  0.00     0.036 C 
BRANCH   5   7
HETATM    7  N   UNL     1     -41.912 -48.436  11.226  1.00  0.00    -0.297 N 
HETATM    8  C   UNL     1     -42.989 -47.674  11.593  1.00  0.00     0.112 A 
HETATM    9  C   UNL     1     -43.555 -47.218  10.426  1.00  0.00     0.037 A 
HETATM   10  C   UNL     1     -42.741 -47.743   9.406  1.00  0.00     0.108 A 
HETATM   11  N   UNL     1     -41.731 -48.468   9.888  1.00  0.00    -0.310 N 
ATOM     12  HN  UNL     1     -40.991 -48.938   9.366  1.00  0.00     0.186 HD
ENDBRANCH   5   7
ENDBRANCH   3   5
ENDBRANCH   1   3
BRANCH   1  13
HETATM   13  C   UNL     1     -42.488 -52.582  12.426  1.00  0.00     0.308 C 
HETATM   14  C   UNL     1     -41.037 -53.037  12.548  1.00  0.00     0.053 C 
BRANCH  13  15
HETATM   15  C   UNL     1     -43.251 -52.862  13.742  1.00  0.00     0.252 C 
HETATM   16  O   UNL     1     -42.654 -53.171  14.776  1.00  0.00    -0.271 OA
HETATM   17  N   UNL     1     -44.610 -52.647  13.729  1.00  0.00    -0.350 N 
HETATM   18  C   UNL     1     -45.343 -52.405  14.954  1.00  0.00     0.126 C 
HETATM   19  C   UNL     1     -45.511 -52.637  12.595  1.00  0.00     0.126 C 
HETATM   20  C   UNL     1     -46.643 -51.730  14.509  1.00  0.00     0.021 C 
HETATM   21  C   UNL     1     -46.534 -51.592  12.987  1.00  0.00     0.021 C 
ENDBRANCH  13  15
ENDBRANCH   1  13
TORSDOF 5
ENDMDL
MODEL 6
REMARK VINA RESULT:      -5.3      2.160      3.498
REMARK  5 active torsions:
REMARK  status: ('A' for Active; 'I' for Inactive)
REMARK    1  A    between atoms: C_2  and  N_3 
REMARK    2  A    between atoms: C_2  and  C_13 
REMARK    3  A    between atoms: N_3  and  C_4 
REMARK    4  A    between atoms: C_4  and  C_6 
REMARK       I    between atoms: C_6  and  N_8 
REMARK    5  A    between atoms: C_13  and  N_15 
ROOT
HETATM    1  N   UNL     1     -44.258 -50.892  12.634  1.00  0.00     0.103 N 
HETATM    2  H   UNL     1     -43.963 -51.444  11.824  1.00  0.00     0.317 HD
ENDROOT
BRANCH   1   3
HETATM    3  C   UNL     1     -43.026 -50.506  13.391  1.00  0.00     0.241 C 
HETATM    4  C   UNL     1     -43.073 -49.035  13.837  1.00  0.00     0.045 C 
BRANCH   3   5
HETATM    5  C   UNL     1     -41.742 -50.846  12.566  1.00  0.00     0.136 C 
HETATM    6  C   UNL     1     -40.666 -49.755  12.605  1.00  0.00     0.036 C 
BRANCH   5   7
HETATM    7  N   UNL     1     -41.196 -52.160  12.926  1.00  0.00    -0.297 N 
HETATM    8  C   UNL     1     -40.445 -52.457  14.033  1.00  0.00     0.112 A 
HETATM    9  C   UNL     1     -40.135 -53.794  13.940  1.00  0.00     0.037 A 
HETATM   10  C   UNL     1     -40.755 -54.223  12.753  1.00  0.00     0.108 A 
HETATM   11  N   UNL     1     -41.416 -53.237  12.143  1.00  0.00    -0.310 N 
ATOM     12  HN  UNL     1     -41.963 -53.287  11.283  1.00  0.00     0.186 HD
ENDBRANCH   5   7
ENDBRANCH   3   5
ENDBRANCH   1   3
BRANCH   1  13
HETATM   13  C   UNL     1     -45.205 -51.745  13.404  1.00  0.00     0.308 C 
HETATM   14  C   UNL     1     -46.615 -51.636  12.833  1.00  0.00     0.053 C 
BRANCH  13  15
HETATM   15  C   UNL     1     -44.741 -53.221  13.409  1.00  0.00     0.252 C 
HETATM   16  O   UNL     1     -44.589 -53.849  12.358  1.00  0.00    -0.271 OA
HETATM   17  N   UNL     1     -44.405 -53.762  14.629  1.00  0.00    -0.350 N 
HETATM   18  C   UNL     1     -43.532 -54.912  14.725  1.00  0.00     0.126 C 
HETATM   19  C   UNL     1     -44.831 -53.345  15.949  1.00  0.00     0.126 C 
HETATM   20  C   UNL     1     -43.005 -54.889  16.162  1.00  0.00     0.021 C 
HETATM   21  C   UNL     1     -43.617 -53.640  16.804  1.00  0.00     0.021 C 
ENDBRANCH  13  15
ENDBRANCH   1  13
TORSDOF 5
ENDMDL
MODEL 7
REMARK VINA RESULT:      -5.2      3.258      5.565
REMARK  5 active torsions:
REMARK  status: ('A' for Active; 'I' for Inactive)
REMARK    1  A    between atoms: C_2  and  N_3 
REMARK    2  A    between atoms: C_2  and  C_13 
REMARK    3  A    between atoms: N_3  and  C_4 
REMARK    4  A    between atoms: C_4  and  C_6 
REMARK       I    between atoms: C_6  and  N_8 
REMARK    5  A    between atoms: C_13  and  N_15 
ROOT
HETATM    1  N   UNL     1     -41.183 -49.957  11.179  1.00  0.00     0.103 N 
HETATM    2  H   UNL     1     -40.295 -49.800  10.694  1.00  0.00     0.317 HD
ENDROOT
BRANCH   1   3
HETATM    3  C   UNL     1     -41.744 -48.619  11.546  1.00  0.00     0.241 C 
HETATM    4  C   UNL     1     -43.089 -48.750  12.278  1.00  0.00     0.045 C 
BRANCH   3   5
HETATM    5  C   UNL     1     -41.828 -47.694  10.287  1.00  0.00     0.136 C 
HETATM    6  C   UNL     1     -43.237 -47.569   9.696  1.00  0.00     0.036 C 
BRANCH   5   7
HETATM    7  N   UNL     1     -41.226 -46.379  10.538  1.00  0.00    -0.297 N 
HETATM    8  C   UNL     1     -41.849 -45.284  11.077  1.00  0.00     0.112 A 
HETATM    9  C   UNL     1     -40.911 -44.279  11.096  1.00  0.00     0.037 A 
HETATM   10  C   UNL     1     -39.749 -44.863  10.563  1.00  0.00     0.108 A 
HETATM   11  N   UNL     1     -39.930 -46.145  10.240  1.00  0.00    -0.310 N 
ATOM     12  HN  UNL     1     -39.247 -46.798   9.856  1.00  0.00     0.186 HD
ENDBRANCH   5   7
ENDBRANCH   3   5
ENDBRANCH   1   3
BRANCH   1  13
HETATM   13  C   UNL     1     -40.877 -50.831  12.345  1.00  0.00     0.308 C 
HETATM   14  C   UNL     1     -41.192 -52.289  12.025  1.00  0.00     0.053 C 
BRANCH  13  15
HETATM   15  C   UNL     1     -39.398 -50.684  12.773  1.00  0.00     0.252 C 
HETATM   16  O   UNL     1     -38.505 -51.342  12.231  1.00  0.00    -0.271 OA
HETATM   17  N   UNL     1     -39.115 -49.714  13.707  1.00  0.00    -0.350 N 
HETATM   18  C   UNL     1     -37.785 -49.157  13.831  1.00  0.00     0.126 C 
HETATM   19  C   UNL     1     -40.002 -49.114  14.682  1.00  0.00     0.126 C 
HETATM   20  C   UNL     1     -37.981 -47.825  14.559  1.00  0.00     0.021 C 
HETATM   21  C   UNL     1     -39.492 -47.692  14.773  1.00  0.00     0.021 C 
ENDBRANCH  13  15
ENDBRANCH   1  13
TORSDOF 5
ENDMDL
MODEL 8
REMARK VINA RESULT:      -5.2      2.834      6.526
REMARK  5 active torsions:
REMARK  status: ('A' for Active; 'I' for Inactive)
REMARK    1  A    between atoms: C_2  and  N_3 
REMARK    2  A    between atoms: C_2  and  C_13 
REMARK    3  A    between atoms: N_3  and  C_4 
REMARK    4  A    between atoms: C_4  and  C_6 
REMARK       I    between atoms: C_6  and  N_8 
REMARK    5  A    between atoms: C_13  and  N_15 
ROOT
HETATM    1  N   UNL     1     -39.677 -51.065  11.931  1.00  0.00     0.103 N 
HETATM    2  H   UNL     1     -40.367 -50.517  11.409  1.00  0.00     0.317 HD
ENDROOT
BRANCH   1   3
HETATM    3  C   UNL     1     -40.378 -51.687  13.097  1.00  0.00     0.241 C 
HETATM    4  C   UNL     1     -39.578 -51.515  14.397  1.00  0.00     0.045 C 
BRANCH   3   5
HETATM    5  C   UNL     1     -40.728 -53.182  12.796  1.00  0.00     0.136 C 
HETATM    6  C   UNL     1     -39.913 -54.192  13.613  1.00  0.00     0.036 C 
BRANCH   5   7
HETATM    7  N   UNL     1     -42.169 -53.436  12.901  1.00  0.00    -0.297 N 
HETATM    8  C   UNL     1     -42.799 -54.185  13.859  1.00  0.00     0.112 A 
HETATM    9  C   UNL     1     -44.138 -54.167  13.543  1.00  0.00     0.037 A 
HETATM   10  C   UNL     1     -44.222 -53.369  12.388  1.00  0.00     0.108 A 
HETATM   11  N   UNL     1     -43.031 -52.908  12.005  1.00  0.00    -0.310 N 
ATOM     12  HN  UNL     1     -42.819 -52.295  11.217  1.00  0.00     0.186 HD
ENDBRANCH   5   7
ENDBRANCH   3   5
ENDBRANCH   1   3
BRANCH   1  13
HETATM   13  C   UNL     1     -38.587 -50.122  12.306  1.00  0.00     0.308 C 
HETATM   14  C   UNL     1     -37.408 -50.251  11.347  1.00  0.00     0.053 C 
BRANCH  13  15
HETATM   15  C   UNL     1     -39.102 -48.663  12.330  1.00  0.00     0.252 C 
HETATM   16  O   UNL     1     -39.911 -48.255  11.493  1.00  0.00    -0.271 OA
HETATM   17  N   UNL     1     -38.698 -47.880  13.387  1.00  0.00    -0.350 N 
HETATM   18  C   UNL     1     -39.454 -46.711  13.786  1.00  0.00     0.126 C 
HETATM   19  C   UNL     1     -37.533 -48.035  14.232  1.00  0.00     0.126 C 
HETATM   20  C   UNL     1     -39.017 -46.431  15.226  1.00  0.00     0.021 C 
HETATM   21  C   UNL     1     -38.023 -47.542  15.577  1.00  0.00     0.021 C 
ENDBRANCH  13  15
ENDBRANCH   1  13
TORSDOF 5
ENDMDL
MODEL 9
REMARK VINA RESULT:      -5.1      1.862      2.793
REMARK  5 active torsions:
REMARK  status: ('A' for Active; 'I' for Inactive)
REMARK    1  A    between atoms: C_2  and  N_3 
REMARK    2  A    between atoms: C_2  and  C_13 
REMARK    3  A    between atoms: N_3  and  C_4 
REMARK    4  A    between atoms: C_4  and  C_6 
REMARK       I    between atoms: C_6  and  N_8 
REMARK    5  A    between atoms: C_13  and  N_15 
ROOT
HETATM    1  N   UNL     1     -42.273 -53.164  15.116  1.00  0.00     0.103 N 
HETATM    2  H   UNL     1     -42.922 -52.379  15.219  1.00  0.00     0.317 HD
ENDROOT
BRANCH   1   3
HETATM    3  C   UNL     1     -41.455 -52.920  13.886  1.00  0.00     0.241 C 
HETATM    4  C   UNL     1     -41.658 -54.029  12.841  1.00  0.00     0.045 C 
BRANCH   3   5
HETATM    5  C   UNL     1     -39.951 -52.707  14.258  1.00  0.00     0.136 C 
HETATM    6  C   UNL     1     -39.128 -53.999  14.299  1.00  0.00     0.036 C 
BRANCH   5   7
HETATM    7  N   UNL     1     -39.320 -51.688  13.410  1.00  0.00    -0.297 N 
HETATM    8  C   UNL     1     -39.959 -50.804  12.582  1.00  0.00     0.112 A 
HETATM    9  C   UNL     1     -38.972 -50.067  11.970  1.00  0.00     0.037 A 
HETATM   10  C   UNL     1     -37.770 -50.567  12.503  1.00  0.00     0.108 A 
HETATM   11  N   UNL     1     -37.978 -51.539  13.392  1.00  0.00    -0.310 N 
ATOM     12  HN  UNL     1     -37.283 -52.052  13.935  1.00  0.00     0.186 HD
ENDBRANCH   5   7
ENDBRANCH   3   5
ENDBRANCH   1   3
BRANCH   1  13
HETATM   13  C   UNL     1     -43.107 -54.396  15.059  1.00  0.00     0.308 C 
HETATM   14  C   UNL     1     -42.491 -55.505  15.905  1.00  0.00     0.053 C 
BRANCH  13  15
HETATM   15  C   UNL     1     -44.554 -54.106  15.526  1.00  0.00     0.252 C 
HETATM   16  O   UNL     1     -44.963 -54.496  16.622  1.00  0.00    -0.271 OA
HETATM   17  N   UNL     1     -45.320 -53.305  14.711  1.00  0.00    -0.350 N 
HETATM   18  C   UNL     1     -46.462 -52.583  15.229  1.00  0.00     0.126 C 
HETATM   19  C   UNL     1     -45.170 -53.056  13.292  1.00  0.00     0.126 C 
HETATM   20  C   UNL     1     -46.718 -51.467  14.212  1.00  0.00     0.021 C 
HETATM   21  C   UNL     1     -45.621 -51.617  13.154  1.00  0.00     0.021 C 
ENDBRANCH  13  15
ENDBRANCH   1  13
TORSDOF 5
ENDMDL
