MODEL 1
REMARK VINA RESULT:      -6.3      0.000      0.000
REMARK  6 active torsions:
REMARK  status: ('A' for Active; 'I' for Inactive)
REMARK    1  A    between atoms: C_2  and  C_3 
REMARK    2  A    between atoms: C_3  and  C_5 
REMARK    3  A    between atoms: C_3  and  N_18 
REMARK    4  A    between atoms: C_5  and  N_6 
REMARK       I    between atoms: N_6  and  C_7 
REMARK    5  A    between atoms: C_7  and  C_9 
REMARK    6  A    between atoms: C_9  and  N_10 
ROOT
HETATM    1  N   UNL     1     -42.717 -48.862  11.159  1.00  0.00    -0.357 N 
HETATM    2  C   UNL     1     -43.107 -47.537  11.214  1.00  0.00     0.236 C 
HETATM    3  O   UNL     1     -43.270 -46.925  12.269  1.00  0.00    -0.272 OA
HETATM    4  H   UNL     1     -42.467 -49.280  10.268  1.00  0.00     0.162 HD
ENDROOT
BRANCH   1   5
HETATM    5  C   UNL     1     -42.462 -49.628  12.373  1.00  0.00     0.164 C 
BRANCH   5   6
HETATM    6  C   UNL     1     -41.117 -50.454  12.382  1.00  0.00     0.171 C 
HETATM    7  C   UNL     1     -40.471 -50.227  13.778  1.00  0.00     0.051 C 
BRANCH   6   8
HETATM    8  C   UNL     1     -40.171 -49.863  11.292  1.00  0.00     0.038 C 
HETATM    9  C   UNL     1     -38.681 -49.762  11.608  1.00  0.00     0.007 C 
ENDBRANCH   6   8
BRANCH   6  10
HETATM   10  N   UNL     1     -41.361 -51.929  12.213  1.00  0.00     0.103 N 
HETATM   11  C   UNL     1     -42.750 -52.423  12.385  1.00  0.00     0.299 C 
HETATM   12  C   UNL     1     -43.154 -52.784  13.827  1.00  0.00     0.198 C 
HETATM   13  O   UNL     1     -42.253 -53.738  14.396  1.00  0.00    -0.388 OA
HETATM   14  C   UNL     1     -40.903 -53.266  14.350  1.00  0.00     0.198 C 
HETATM   15  C   UNL     1     -40.469 -52.873  12.923  1.00  0.00     0.299 C 
ENDBRANCH   6  10
ENDBRANCH   5   6
ENDBRANCH   1   5
BRANCH   2  16
HETATM   16  C   UNL     1     -43.269 -46.839   9.868  1.00  0.00     0.235 C 
BRANCH  16  17
HETATM   17  N   UNL     1     -44.310 -47.463   9.050  1.00  0.00    -0.301 N 
HETATM   18  C   UNL     1     -45.594 -47.580   9.542  1.00  0.00     0.102 C 
HETATM   19  C   UNL     1     -46.547 -48.232   8.869  1.00  0.00     0.092 C 
HETATM   20  C   UNL     1     -46.206 -48.850   7.578  1.00  0.00     0.250 C 
HETATM   21  O   UNL     1     -47.005 -49.563   6.984  1.00  0.00    -0.268 OA
HETATM   22  N   UNL     1     -44.950 -48.579   7.104  1.00  0.00    -0.275 N 
HETATM   23  C   UNL     1     -43.963 -47.925   7.791  1.00  0.00     0.329 C 
HETATM   24  H   UNL     1     -44.700 -48.986   6.219  1.00  0.00     0.173 HD
HETATM   25  O   UNL     1     -42.844 -47.783   7.300  1.00  0.00    -0.246 OA
ENDBRANCH  16  17
ENDBRANCH   2  16
TORSDOF 6
ENDMDL
MODEL 2
REMARK VINA RESULT:      -6.2      2.976      4.933
REMARK  6 active torsions:
REMARK  status: ('A' for Active; 'I' for Inactive)
REMARK    1  A    between atoms: C_2  and  C_3 
REMARK    2  A    between atoms: C_3  and  C_5 
REMARK    3  A    between atoms: C_3  and  N_18 
REMARK    4  A    between atoms: C_5  and  N_6 
REMARK       I    between atoms: N_6  and  C_7 
REMARK    5  A    between atoms: C_7  and  C_9 
REMARK    6  A    between atoms: C_9  and  N_10 
ROOT
HETATM    1  N   UNL     1     -43.283 -49.986  12.645  1.00  0.00    -0.357 N 
HETATM    2  C   UNL     1     -41.955 -49.616  12.736  1.00  0.00     0.236 C 
HETATM    3  O   UNL     1     -41.372 -49.452  13.808  1.00  0.00    -0.272 OA
HETATM    4  H   UNL     1     -43.678 -50.238  11.743  1.00  0.00     0.162 HD
ENDROOT
BRANCH   1   5
HETATM    5  C   UNL     1     -44.090 -50.217  13.836  1.00  0.00     0.164 C 
BRANCH   5   6
HETATM    6  C   UNL     1     -44.894 -51.575  13.857  1.00  0.00     0.171 C 
HETATM    7  C   UNL     1     -45.996 -51.451  12.768  1.00  0.00     0.051 C 
BRANCH   6   8
HETATM    8  C   UNL     1     -45.582 -51.715  15.251  1.00  0.00     0.038 C 
HETATM    9  C   UNL     1     -47.096 -51.529  15.328  1.00  0.00     0.007 C 
ENDBRANCH   6   8
BRANCH   6  10
HETATM   10  N   UNL     1     -44.022 -52.751  13.511  1.00  0.00     0.103 N 
HETATM   11  C   UNL     1     -44.661 -53.908  12.835  1.00  0.00     0.299 C 
HETATM   12  C   UNL     1     -45.277 -54.968  13.768  1.00  0.00     0.198 C 
HETATM   13  O   UNL     1     -44.314 -55.457  14.705  1.00  0.00    -0.388 OA
HETATM   14  C   UNL     1     -43.739 -54.389  15.462  1.00  0.00     0.198 C 
HETATM   15  C   UNL     1     -43.130 -53.296  14.560  1.00  0.00     0.299 C 
ENDBRANCH   6  10
ENDBRANCH   5   6
ENDBRANCH   1   5
BRANCH   2  16
HETATM   16  C   UNL     1     -41.213 -49.478  11.411  1.00  0.00     0.235 C 
BRANCH  16  17
HETATM   17  N   UNL     1     -41.030 -48.077  11.031  1.00  0.00    -0.301 N 
HETATM   18  C   UNL     1     -39.900 -47.395  11.436  1.00  0.00     0.102 C 
HETATM   19  C   UNL     1     -39.743 -46.090  11.195  1.00  0.00     0.092 C 
HETATM   20  C   UNL     1     -40.814 -45.366  10.493  1.00  0.00     0.250 C 
HETATM   21  O   UNL     1     -40.777 -44.148  10.360  1.00  0.00    -0.268 OA
HETATM   22  N   UNL     1     -41.839 -46.138  10.015  1.00  0.00    -0.275 N 
HETATM   23  C   UNL     1     -42.016 -47.472  10.268  1.00  0.00     0.329 C 
HETATM   24  H   UNL     1     -42.577 -45.663   9.525  1.00  0.00     0.173 HD
HETATM   25  O   UNL     1     -43.005 -48.067   9.841  1.00  0.00    -0.246 OA
ENDBRANCH  16  17
ENDBRANCH   2  16
TORSDOF 6
ENDMDL
MODEL 3
REMARK VINA RESULT:      -6.1      2.670      4.201
REMARK  6 active torsions:
REMARK  status: ('A' for Active; 'I' for Inactive)
REMARK    1  A    between atoms: C_2  and  C_3 
REMARK    2  A    between atoms: C_3  and  C_5 
REMARK    3  A    between atoms: C_3  and  N_18 
REMARK    4  A    between atoms: C_5  and  N_6 
REMARK       I    between atoms: N_6  and  C_7 
REMARK    5  A    between atoms: C_7  and  C_9 
REMARK    6  A    between atoms: C_9  and  N_10 
ROOT
HETATM    1  N   UNL     1     -42.428 -50.874  12.716  1.00  0.00    -0.357 N 
HETATM    2  C   UNL     1     -41.418 -50.094  12.186  1.00  0.00     0.236 C 
HETATM    3  O   UNL     1     -40.576 -50.524  11.397  1.00  0.00    -0.272 OA
HETATM    4  H   UNL     1     -43.172 -50.442  13.254  1.00  0.00     0.162 HD
ENDROOT
BRANCH   1   5
HETATM    5  C   UNL     1     -42.567 -52.281  12.359  1.00  0.00     0.164 C 
BRANCH   5   6
HETATM    6  C   UNL     1     -43.253 -53.192  13.450  1.00  0.00     0.171 C 
HETATM    7  C   UNL     1     -43.482 -52.290  14.695  1.00  0.00     0.051 C 
BRANCH   6   8
HETATM    8  C   UNL     1     -42.258 -54.331  13.833  1.00  0.00     0.038 C 
HETATM    9  C   UNL     1     -40.846 -54.278  13.254  1.00  0.00     0.007 C 
ENDBRANCH   6   8
BRANCH   6  10
HETATM   10  N   UNL     1     -44.590 -53.708  12.992  1.00  0.00     0.103 N 
HETATM   11  C   UNL     1     -45.643 -52.711  12.676  1.00  0.00     0.299 C 
HETATM   12  C   UNL     1     -46.513 -52.261  13.867  1.00  0.00     0.198 C 
HETATM   13  O   UNL     1     -47.119 -53.381  14.518  1.00  0.00    -0.388 OA
HETATM   14  C   UNL     1     -46.136 -54.331  14.938  1.00  0.00     0.198 C 
HETATM   15  C   UNL     1     -45.231 -54.788  13.776  1.00  0.00     0.299 C 
ENDBRANCH   6  10
ENDBRANCH   5   6
ENDBRANCH   1   5
BRANCH   2  16
HETATM   16  C   UNL     1     -41.435 -48.624  12.591  1.00  0.00     0.235 C 
BRANCH  16  17
HETATM   17  N   UNL     1     -41.974 -47.772  11.530  1.00  0.00    -0.301 N 
HETATM   18  C   UNL     1     -43.319 -47.821  11.223  1.00  0.00     0.102 C 
HETATM   19  C   UNL     1     -43.831 -47.135  10.198  1.00  0.00     0.092 C 
HETATM   20  C   UNL     1     -42.928 -46.319   9.371  1.00  0.00     0.250 C 
HETATM   21  O   UNL     1     -43.323 -45.773   8.348  1.00  0.00    -0.268 OA
HETATM   22  N   UNL     1     -41.637 -46.223   9.818  1.00  0.00    -0.275 N 
HETATM   23  C   UNL     1     -41.100 -46.933  10.858  1.00  0.00     0.329 C 
HETATM   24  H   UNL     1     -41.006 -45.663   9.271  1.00  0.00     0.173 HD
HETATM   25  O   UNL     1     -39.909 -46.821  11.146  1.00  0.00    -0.246 OA
ENDBRANCH  16  17
ENDBRANCH   2  16
TORSDOF 6
ENDMDL
MODEL 4
REMARK VINA RESULT:      -6.1      4.142      6.154
REMARK  6 active torsions:
REMARK  status: ('A' for Active; 'I' for Inactive)
REMARK    1  A    between atoms: C_2  and  C_3 
REMARK    2  A    between atoms: C_3  and  C_5 
REMARK    3  A    between atoms: C_3  and  N_18 
REMARK    4  A    between atoms: C_5  and  N_6 
REMARK       I    between atoms: N_6  and  C_7 
REMARK    5  A    between atoms: C_7  and  C_9 
REMARK    6  A    between atoms: C_9  and  N_10 
ROOT
HETATM    1  N   UNL     1     -42.353 -52.279  11.766  1.00  0.00    -0.357 N 
HETATM    2  C   UNL     1     -42.902 -53.165  12.673  1.00  0.00     0.236 C 
HETATM    3  O   UNL     1     -42.337 -53.506  13.712  1.00  0.00    -0.272 OA
HETATM    4  H   UNL     1     -42.914 -51.929  10.996  1.00  0.00     0.162 HD
ENDROOT
BRANCH   1   5
HETATM    5  C   UNL     1     -41.045 -51.675  11.993  1.00  0.00     0.164 C 
BRANCH   5   6
HETATM    6  C   UNL     1     -41.054 -50.117  12.249  1.00  0.00     0.171 C 
HETATM    7  C   UNL     1     -42.404 -49.794  12.949  1.00  0.00     0.051 C 
BRANCH   6   8
HETATM    8  C   UNL     1     -41.021 -49.394  10.867  1.00  0.00     0.038 C 
HETATM    9  C   UNL     1     -41.973 -48.221  10.646  1.00  0.00     0.007 C 
ENDBRANCH   6   8
BRANCH   6  10
HETATM   10  N   UNL     1     -39.937 -49.691  13.163  1.00  0.00     0.103 N 
HETATM   11  C   UNL     1     -38.729 -49.092  12.543  1.00  0.00     0.299 C 
HETATM   12  C   UNL     1     -37.641 -50.092  12.103  1.00  0.00     0.198 C 
HETATM   13  O   UNL     1     -37.235 -50.928  13.190  1.00  0.00    -0.388 OA
HETATM   14  C   UNL     1     -38.352 -51.613  13.763  1.00  0.00     0.198 C 
HETATM   15  C   UNL     1     -39.472 -50.645  14.195  1.00  0.00     0.299 C 
ENDBRANCH   6  10
ENDBRANCH   5   6
ENDBRANCH   1   5
BRANCH   2  16
HETATM   16  C   UNL     1     -44.305 -53.664  12.343  1.00  0.00     0.235 C 
BRANCH  16  17
HETATM   17  N   UNL     1     -45.297 -53.181  13.305  1.00  0.00    -0.301 N 
HETATM   18  C   UNL     1     -45.691 -51.859  13.283  1.00  0.00     0.102 C 
HETATM   19  C   UNL     1     -46.517 -51.357  14.205  1.00  0.00     0.092 C 
HETATM   20  C   UNL     1     -47.002 -52.240  15.277  1.00  0.00     0.250 C 
HETATM   21  O   UNL     1     -47.657 -51.801  16.215  1.00  0.00    -0.268 OA
HETATM   22  N   UNL     1     -46.668 -53.562  15.154  1.00  0.00    -0.275 N 
HETATM   23  C   UNL     1     -45.812 -54.084  14.221  1.00  0.00     0.329 C 
HETATM   24  H   UNL     1     -46.997 -54.184  15.872  1.00  0.00     0.173 HD
HETATM   25  O   UNL     1     -45.527 -55.281  14.230  1.00  0.00    -0.246 OA
ENDBRANCH  16  17
ENDBRANCH   2  16
TORSDOF 6
ENDMDL
MODEL 5
REMARK VINA RESULT:      -6.1      3.465      6.583
REMARK  6 active torsions:
REMARK  status: ('A' for Active; 'I' for Inactive)
REMARK    1  A    between atoms: C_2  and  C_3 
REMARK    2  A    between atoms: C_3  and  C_5 
REMARK    3  A    between atoms: C_3  and  N_18 
REMARK    4  A    between atoms: C_5  and  N_6 
REMARK       I    between atoms: N_6  and  C_7 
REMARK    5  A    between atoms: C_7  and  C_9 
REMARK    6  A    between atoms: C_9  and  N_10 
ROOT
HETATM    1  N   UNL     1     -42.482 -52.285  11.798  1.00  0.00    -0.357 N 
HETATM    2  C   UNL     1     -42.979 -53.157  12.748  1.00  0.00     0.236 C 
HETATM    3  O   UNL     1     -42.388 -53.425  13.794  1.00  0.00    -0.272 OA
HETATM    4  H   UNL     1     -43.066 -51.996  11.019  1.00  0.00     0.162 HD
ENDROOT
BRANCH   1   5
HETATM    5  C   UNL     1     -41.204 -51.608  11.985  1.00  0.00     0.164 C 
BRANCH   5   6
HETATM    6  C   UNL     1     -41.296 -50.116  12.492  1.00  0.00     0.171 C 
HETATM    7  C   UNL     1     -40.494 -50.053  13.822  1.00  0.00     0.051 C 
BRANCH   6   8
HETATM    8  C   UNL     1     -42.792 -49.792  12.794  1.00  0.00     0.038 C 
HETATM    9  C   UNL     1     -43.135 -49.166  14.143  1.00  0.00     0.007 C 
ENDBRANCH   6   8
BRANCH   6  10
HETATM   10  N   UNL     1     -40.670 -49.152  11.521  1.00  0.00     0.103 N 
HETATM   11  C   UNL     1     -39.660 -48.200  12.048  1.00  0.00     0.299 C 
HETATM   12  C   UNL     1     -40.220 -46.876  12.605  1.00  0.00     0.198 C 
HETATM   13  O   UNL     1     -41.024 -46.203  11.632  1.00  0.00    -0.388 OA
HETATM   14  C   UNL     1     -42.082 -47.043  11.162  1.00  0.00     0.198 C 
HETATM   15  C   UNL     1     -41.560 -48.389  10.617  1.00  0.00     0.299 C 
ENDBRANCH   6  10
ENDBRANCH   5   6
ENDBRANCH   1   5
BRANCH   2  16
HETATM   16  C   UNL     1     -44.358 -53.739  12.455  1.00  0.00     0.235 C 
BRANCH  16  17
HETATM   17  N   UNL     1     -45.368 -53.249  13.394  1.00  0.00    -0.301 N 
HETATM   18  C   UNL     1     -45.790 -51.937  13.330  1.00  0.00     0.102 C 
HETATM   19  C   UNL     1     -46.635 -51.426  14.231  1.00  0.00     0.092 C 
HETATM   20  C   UNL     1     -47.110 -52.288  15.325  1.00  0.00     0.250 C 
HETATM   21  O   UNL     1     -47.782 -51.836  16.244  1.00  0.00    -0.268 OA
HETATM   22  N   UNL     1     -46.746 -53.606  15.243  1.00  0.00    -0.275 N 
HETATM   23  C   UNL     1     -45.871 -54.136  14.333  1.00  0.00     0.329 C 
HETATM   24  H   UNL     1     -47.068 -54.214  15.977  1.00  0.00     0.173 HD
HETATM   25  O   UNL     1     -45.561 -55.326  14.379  1.00  0.00    -0.246 OA
ENDBRANCH  16  17
ENDBRANCH   2  16
TORSDOF 6
ENDMDL
MODEL 6
REMARK VINA RESULT:      -6.1      3.574      6.480
REMARK  6 active torsions:
REMARK  status: ('A' for Active; 'I' for Inactive)
REMARK    1  A    between atoms: C_2  and  C_3 
REMARK    2  A    between atoms: C_3  and  C_5 
REMARK    3  A    between atoms: C_3  and  N_18 
REMARK    4  A    between atoms: C_5  and  N_6 
REMARK       I    between atoms: N_6  and  C_7 
REMARK    5  A    between atoms: C_7  and  C_9 
REMARK    6  A    between atoms: C_9  and  N_10 
ROOT
HETATM    1  N   UNL     1     -42.659 -50.455  12.477  1.00  0.00    -0.357 N 
HETATM    2  C   UNL     1     -41.935 -49.457  11.854  1.00  0.00     0.236 C 
HETATM    3  O   UNL     1     -42.337 -48.299  11.746  1.00  0.00    -0.272 OA
HETATM    4  H   UNL     1     -42.228 -51.357  12.658  1.00  0.00     0.162 HD
ENDROOT
BRANCH   1   5
HETATM    5  C   UNL     1     -43.967 -50.190  13.065  1.00  0.00     0.164 C 
BRANCH   5   6
HETATM    6  C   UNL     1     -44.747 -51.460  13.583  1.00  0.00     0.171 C 
HETATM    7  C   UNL     1     -45.974 -51.636  12.646  1.00  0.00     0.051 C 
BRANCH   6   8
HETATM    8  C   UNL     1     -45.259 -51.165  15.027  1.00  0.00     0.038 C 
HETATM    9  C   UNL     1     -46.728 -51.437  15.340  1.00  0.00     0.007 C 
ENDBRANCH   6   8
BRANCH   6  10
HETATM   10  N   UNL     1     -43.910 -52.708  13.500  1.00  0.00     0.103 N 
HETATM   11  C   UNL     1     -44.498 -53.888  12.817  1.00  0.00     0.299 C 
HETATM   12  C   UNL     1     -45.339 -54.822  13.709  1.00  0.00     0.198 C 
HETATM   13  O   UNL     1     -44.591 -55.270  14.842  1.00  0.00    -0.388 OA
HETATM   14  C   UNL     1     -44.085 -54.167  15.599  1.00  0.00     0.198 C 
HETATM   15  C   UNL     1     -43.255 -53.197  14.733  1.00  0.00     0.299 C 
ENDBRANCH   6  10
ENDBRANCH   5   6
ENDBRANCH   1   5
BRANCH   2  16
HETATM   16  C   UNL     1     -40.553 -49.859  11.348  1.00  0.00     0.235 C 
BRANCH  16  17
HETATM   17  N   UNL     1     -39.574 -49.930  12.433  1.00  0.00    -0.301 N 
HETATM   18  C   UNL     1     -38.972 -48.778  12.896  1.00  0.00     0.102 C 
HETATM   19  C   UNL     1     -38.002 -48.811  13.814  1.00  0.00     0.092 C 
HETATM   20  C   UNL     1     -37.560 -50.117  14.329  1.00  0.00     0.250 C 
HETATM   21  O   UNL     1     -36.592 -50.211  15.074  1.00  0.00    -0.268 OA
HETATM   22  N   UNL     1     -38.292 -51.198  13.915  1.00  0.00    -0.275 N 
HETATM   23  C   UNL     1     -39.278 -51.175  12.965  1.00  0.00     0.329 C 
HETATM   24  H   UNL     1     -38.010 -52.099  14.262  1.00  0.00     0.173 HD
HETATM   25  O   UNL     1     -39.838 -52.214  12.617  1.00  0.00    -0.246 OA
ENDBRANCH  16  17
ENDBRANCH   2  16
TORSDOF 6
ENDMDL
MODEL 7
REMARK VINA RESULT:      -6.0      2.849      4.895
REMARK  6 active torsions:
REMARK  status: ('A' for Active; 'I' for Inactive)
REMARK    1  A    between atoms: C_2  and  C_3 
REMARK    2  A    between atoms: C_3  and  C_5 
REMARK    3  A    between atoms: C_3  and  N_18 
REMARK    4  A    between atoms: C_5  and  N_6 
REMARK       I    between atoms: N_6  and  C_7 
REMARK    5  A    between atoms: C_7  and  C_9 
REMARK    6  A    between atoms: C_9  and  N_10 
ROOT
HETATM    1  N   UNL     1     -43.609 -50.524  13.689  1.00  0.00    -0.357 N 
HETATM    2  C   UNL     1     -42.229 -50.473  13.639  1.00  0.00     0.236 C 
HETATM    3  O   UNL     1     -41.513 -51.470  13.727  1.00  0.00    -0.272 OA
HETATM    4  H   UNL     1     -44.155 -49.695  13.478  1.00  0.00     0.162 HD
ENDROOT
BRANCH   1   5
HETATM    5  C   UNL     1     -44.316 -51.790  13.845  1.00  0.00     0.164 C 
BRANCH   5   6
HETATM    6  C   UNL     1     -45.433 -51.809  14.960  1.00  0.00     0.171 C 
HETATM    7  C   UNL     1     -46.768 -51.444  14.252  1.00  0.00     0.051 C 
BRANCH   6   8
HETATM    8  C   UNL     1     -45.101 -50.698  16.004  1.00  0.00     0.038 C 
HETATM    9  C   UNL     1     -46.051 -50.513  17.185  1.00  0.00     0.007 C 
ENDBRANCH   6   8
BRANCH   6  10
HETATM   10  N   UNL     1     -45.587 -53.171  15.579  1.00  0.00     0.103 N 
HETATM   11  C   UNL     1     -44.369 -53.824  16.121  1.00  0.00     0.299 C 
HETATM   12  C   UNL     1     -43.555 -54.658  15.113  1.00  0.00     0.198 C 
HETATM   13  O   UNL     1     -44.369 -55.652  14.485  1.00  0.00    -0.388 OA
HETATM   14  C   UNL     1     -45.510 -55.064  13.853  1.00  0.00     0.198 C 
HETATM   15  C   UNL     1     -46.338 -54.202  14.829  1.00  0.00     0.299 C 
ENDBRANCH   6  10
ENDBRANCH   5   6
ENDBRANCH   1   5
BRANCH   2  16
HETATM   16  C   UNL     1     -41.626 -49.092  13.402  1.00  0.00     0.235 C 
BRANCH  16  17
HETATM   17  N   UNL     1     -41.996 -48.552  12.093  1.00  0.00    -0.301 N 
HETATM   18  C   UNL     1     -43.057 -47.677  11.983  1.00  0.00     0.102 C 
HETATM   19  C   UNL     1     -43.489 -47.240  10.797  1.00  0.00     0.092 C 
HETATM   20  C   UNL     1     -42.818 -47.723   9.579  1.00  0.00     0.250 C 
HETATM   21  O   UNL     1     -43.253 -47.453   8.465  1.00  0.00    -0.268 OA
HETATM   22  N   UNL     1     -41.699 -48.485   9.780  1.00  0.00    -0.275 N 
HETATM   23  C   UNL     1     -41.257 -48.948  10.990  1.00  0.00     0.329 C 
HETATM   24  H   UNL     1     -41.221 -48.818   8.959  1.00  0.00     0.173 HD
HETATM   25  O   UNL     1     -40.270 -49.680  11.060  1.00  0.00    -0.246 OA
ENDBRANCH  16  17
ENDBRANCH   2  16
TORSDOF 6
ENDMDL
MODEL 8
REMARK VINA RESULT:      -5.9      3.800      6.464
REMARK  6 active torsions:
REMARK  status: ('A' for Active; 'I' for Inactive)
REMARK    1  A    between atoms: C_2  and  C_3 
REMARK    2  A    between atoms: C_3  and  C_5 
REMARK    3  A    between atoms: C_3  and  N_18 
REMARK    4  A    between atoms: C_5  and  N_6 
REMARK       I    between atoms: N_6  and  C_7 
REMARK    5  A    between atoms: C_7  and  C_9 
REMARK    6  A    between atoms: C_9  and  N_10 
ROOT
HETATM    1  N   UNL     1     -42.714 -52.418  15.694  1.00  0.00    -0.357 N 
HETATM    2  C   UNL     1     -41.809 -53.241  15.052  1.00  0.00     0.236 C 
HETATM    3  O   UNL     1     -42.066 -54.400  14.724  1.00  0.00    -0.272 OA
HETATM    4  H   UNL     1     -42.501 -51.433  15.822  1.00  0.00     0.162 HD
ENDROOT
BRANCH   1   5
HETATM    5  C   UNL     1     -44.058 -52.877  16.022  1.00  0.00     0.164 C 
BRANCH   5   6
HETATM    6  C   UNL     1     -45.230 -51.925  15.563  1.00  0.00     0.171 C 
HETATM    7  C   UNL     1     -44.563 -50.608  15.077  1.00  0.00     0.051 C 
BRANCH   6   8
HETATM    8  C   UNL     1     -46.117 -51.606  16.807  1.00  0.00     0.038 C 
HETATM    9  C   UNL     1     -47.582 -51.245  16.572  1.00  0.00     0.007 C 
ENDBRANCH   6   8
BRANCH   6  10
HETATM   10  N   UNL     1     -46.012 -52.507  14.417  1.00  0.00     0.103 N 
HETATM   11  C   UNL     1     -46.366 -53.947  14.484  1.00  0.00     0.299 C 
HETATM   12  C   UNL     1     -45.311 -54.919  13.921  1.00  0.00     0.198 C 
HETATM   13  O   UNL     1     -44.970 -54.591  12.571  1.00  0.00    -0.388 OA
HETATM   14  C   UNL     1     -44.521 -53.237  12.465  1.00  0.00     0.198 C 
HETATM   15  C   UNL     1     -45.543 -52.235  13.039  1.00  0.00     0.299 C 
ENDBRANCH   6  10
ENDBRANCH   5   6
ENDBRANCH   1   5
BRANCH   2  16
HETATM   16  C   UNL     1     -40.466 -52.607  14.707  1.00  0.00     0.235 C 
BRANCH  16  17
HETATM   17  N   UNL     1     -40.591 -51.601  13.652  1.00  0.00    -0.301 N 
HETATM   18  C   UNL     1     -40.667 -50.263  13.981  1.00  0.00     0.102 C 
HETATM   19  C   UNL     1     -40.882 -49.323  13.056  1.00  0.00     0.092 C 
HETATM   20  C   UNL     1     -41.056 -49.735  11.655  1.00  0.00     0.250 C 
HETATM   21  O   UNL     1     -41.380 -48.929  10.790  1.00  0.00    -0.268 OA
HETATM   22  N   UNL     1     -40.840 -51.062  11.395  1.00  0.00    -0.275 N 
HETATM   23  C   UNL     1     -40.633 -52.035  12.337  1.00  0.00     0.329 C 
HETATM   24  H   UNL     1     -40.946 -51.363  10.441  1.00  0.00     0.173 HD
HETATM   25  O   UNL     1     -40.508 -53.213  12.005  1.00  0.00    -0.246 OA
ENDBRANCH  16  17
ENDBRANCH   2  16
TORSDOF 6
ENDMDL
MODEL 9
REMARK VINA RESULT:      -5.8      2.721      4.411
REMARK  6 active torsions:
REMARK  status: ('A' for Active; 'I' for Inactive)
REMARK    1  A    between atoms: C_2  and  C_3 
REMARK    2  A    between atoms: C_3  and  C_5 
REMARK    3  A    between atoms: C_3  and  N_18 
REMARK    4  A    between atoms: C_5  and  N_6 
REMARK       I    between atoms: N_6  and  C_7 
REMARK    5  A    between atoms: C_7  and  C_9 
REMARK    6  A    between atoms: C_9  and  N_10 
ROOT
HETATM    1  N   UNL     1     -42.170 -50.602  13.069  1.00  0.00    -0.357 N 
HETATM    2  C   UNL     1     -41.252 -49.947  12.271  1.00  0.00     0.236 C 
HETATM    3  O   UNL     1     -40.615 -50.504  11.377  1.00  0.00    -0.272 OA
HETATM    4  H   UNL     1     -42.764 -50.071  13.700  1.00  0.00     0.162 HD
ENDROOT
BRANCH   1   5
HETATM    5  C   UNL     1     -42.454 -52.021  12.891  1.00  0.00     0.164 C 
BRANCH   5   6
HETATM    6  C   UNL     1     -43.865 -52.500  13.411  1.00  0.00     0.171 C 
HETATM    7  C   UNL     1     -44.366 -53.569  12.400  1.00  0.00     0.051 C 
BRANCH   6   8
HETATM    8  C   UNL     1     -44.840 -51.282  13.374  1.00  0.00     0.038 C 
HETATM    9  C   UNL     1     -46.268 -51.517  12.890  1.00  0.00     0.007 C 
ENDBRANCH   6   8
BRANCH   6  10
HETATM   10  N   UNL     1     -43.777 -53.142  14.768  1.00  0.00     0.103 N 
HETATM   11  C   UNL     1     -44.595 -54.356  15.012  1.00  0.00     0.299 C 
HETATM   12  C   UNL     1     -46.032 -54.102  15.509  1.00  0.00     0.198 C 
HETATM   13  O   UNL     1     -46.037 -53.299  16.693  1.00  0.00    -0.388 OA
HETATM   14  C   UNL     1     -45.347 -52.064  16.483  1.00  0.00     0.198 C 
HETATM   15  C   UNL     1     -43.910 -52.278  15.963  1.00  0.00     0.299 C 
ENDBRANCH   6  10
ENDBRANCH   5   6
ENDBRANCH   1   5
BRANCH   2  16
HETATM   16  C   UNL     1     -41.107 -48.449  12.521  1.00  0.00     0.235 C 
BRANCH  16  17
HETATM   17  N   UNL     1     -41.769 -47.656  11.484  1.00  0.00    -0.301 N 
HETATM   18  C   UNL     1     -43.105 -47.860  11.208  1.00  0.00     0.102 C 
HETATM   19  C   UNL     1     -43.720 -47.229  10.203  1.00  0.00     0.092 C 
HETATM   20  C   UNL     1     -42.939 -46.305   9.365  1.00  0.00     0.250 C 
HETATM   21  O   UNL     1     -43.421 -45.799   8.358  1.00  0.00    -0.268 OA
HETATM   22  N   UNL     1     -41.658 -46.062   9.783  1.00  0.00    -0.275 N 
HETATM   23  C   UNL     1     -41.016 -46.714  10.802  1.00  0.00     0.329 C 
HETATM   24  H   UNL     1     -41.110 -45.427   9.228  1.00  0.00     0.173 HD
HETATM   25  O   UNL     1     -39.839 -46.466  11.063  1.00  0.00    -0.246 OA
ENDBRANCH  16  17
ENDBRANCH   2  16
TORSDOF 6
ENDMDL
