MODEL 1
REMARK VINA RESULT:      -6.5      0.000      0.000
REMARK  4 active torsions:
REMARK  status: ('A' for Active; 'I' for Inactive)
REMARK    1  A    between atoms: C_2  and  C_3 
REMARK    2  A    between atoms: N_9  and  C_10 
REMARK    3  A    between atoms: C_10  and  C_11 
REMARK    4  A    between atoms: C_11  and  N_12 
REMARK       I    between atoms: N_12  and  C_13 
REMARK       I    between atoms: C_13  and  N_15 
ROOT
HETATM    1  N   UNL     1     -42.842 -49.571  12.112  1.00  0.00    -0.341 N 
HETATM    2  C   UNL     1     -41.759 -50.417  12.096  1.00  0.00     0.318 C 
HETATM    3  O   UNL     1     -40.619 -49.994  11.927  1.00  0.00    -0.247 OA
HETATM    4  N   UNL     1     -42.063 -51.764  12.248  1.00  0.00    -0.334 N 
HETATM    5  C   UNL     1     -40.965 -52.721  12.101  1.00  0.00     0.127 C 
HETATM    6  C   UNL     1     -40.333 -53.076  13.442  1.00  0.00     0.020 C 
HETATM    7  C   UNL     1     -41.013 -54.231  14.180  1.00  0.00     0.006 C 
HETATM    8  C   UNL     1     -42.544 -54.324  14.069  1.00  0.00    -0.017 C 
HETATM    9  C   UNL     1     -43.080 -55.252  15.164  1.00  0.00     0.010 C 
HETATM   10  C   UNL     1     -43.247 -52.958  14.126  1.00  0.00     0.024 C 
HETATM   11  C   UNL     1     -43.337 -52.285  12.751  1.00  0.00     0.128 C 
HETATM   12  H   UNL     1     -43.642 -49.966  11.640  1.00  0.00     0.164 HD
ENDROOT
BRANCH   1  13
HETATM   13  C   UNL     1     -42.623 -48.145  11.934  1.00  0.00     0.144 C 
BRANCH  13  14
HETATM   14  C   UNL     1     -43.742 -47.446  11.168  1.00  0.00     0.151 C 
BRANCH  14  15
HETATM   15  N   UNL     1     -43.704 -47.678   9.741  1.00  0.00    -0.329 N 
HETATM   16  C   UNL     1     -44.739 -47.626   8.842  1.00  0.00     0.098 A 
HETATM   17  N   UNL     1     -44.252 -47.831   7.635  1.00  0.00    -0.288 N 
HETATM   18  N   UNL     1     -42.895 -48.015   7.740  1.00  0.00    -0.295 N 
ATOM     19  HN  UNL     1     -44.791 -47.851   6.769  1.00  0.00     0.188 HD
HETATM   20  C   UNL     1     -42.581 -47.917   9.008  1.00  0.00     0.201 A 
ATOM     21  HN  UNL     1     -42.249 -48.194   6.971  1.00  0.00     0.187 HD
BRANCH  16  22
HETATM   22  C   UNL     1     -46.166 -47.374   9.180  1.00  0.00     0.073 C 
HETATM   23  C   UNL     1     -47.013 -48.624   8.999  1.00  0.00     0.013 C 
ENDBRANCH  16  22
ENDBRANCH  14  15
ENDBRANCH  13  14
ENDBRANCH   1  13
TORSDOF 4
ENDMDL
MODEL 2
REMARK VINA RESULT:      -6.4      4.185      6.200
REMARK  4 active torsions:
REMARK  status: ('A' for Active; 'I' for Inactive)
REMARK    1  A    between atoms: C_2  and  C_3 
REMARK    2  A    between atoms: N_9  and  C_10 
REMARK    3  A    between atoms: C_10  and  C_11 
REMARK    4  A    between atoms: C_11  and  N_12 
REMARK       I    between atoms: N_12  and  C_13 
REMARK       I    between atoms: C_13  and  N_15 
ROOT
HETATM    1  N   UNL     1     -41.931 -52.746  13.731  1.00  0.00    -0.341 N 
HETATM    2  C   UNL     1     -40.577 -52.673  13.505  1.00  0.00     0.318 C 
HETATM    3  O   UNL     1     -39.984 -53.552  12.885  1.00  0.00    -0.247 OA
HETATM    4  N   UNL     1     -39.948 -51.565  14.057  1.00  0.00    -0.334 N 
HETATM    5  C   UNL     1     -38.488 -51.507  13.967  1.00  0.00     0.127 C 
HETATM    6  C   UNL     1     -38.022 -50.722  12.746  1.00  0.00     0.020 C 
HETATM    7  C   UNL     1     -37.897 -49.213  12.970  1.00  0.00     0.006 C 
HETATM    8  C   UNL     1     -38.947 -48.554  13.880  1.00  0.00    -0.017 C 
HETATM    9  C   UNL     1     -38.925 -47.037  13.668  1.00  0.00     0.010 C 
HETATM   10  C   UNL     1     -40.366 -49.108  13.680  1.00  0.00     0.024 C 
HETATM   11  C   UNL     1     -40.635 -50.358  14.526  1.00  0.00     0.128 C 
HETATM   12  H   UNL     1     -42.181 -52.431  14.656  1.00  0.00     0.164 HD
ENDROOT
BRANCH   1  13
HETATM   13  C   UNL     1     -42.669 -53.886  13.211  1.00  0.00     0.144 C 
BRANCH  13  14
HETATM   14  C   UNL     1     -43.960 -53.501  12.494  1.00  0.00     0.151 C 
BRANCH  14  15
HETATM   15  N   UNL     1     -45.156 -53.772  13.261  1.00  0.00    -0.329 N 
HETATM   16  C   UNL     1     -46.266 -52.981  13.416  1.00  0.00     0.098 A 
HETATM   17  N   UNL     1     -47.150 -53.641  14.137  1.00  0.00    -0.288 N 
HETATM   18  N   UNL     1     -46.622 -54.870  14.452  1.00  0.00    -0.295 N 
ATOM     19  HN  UNL     1     -48.070 -53.299  14.414  1.00  0.00     0.188 HD
HETATM   20  C   UNL     1     -45.427 -54.934  13.918  1.00  0.00     0.201 A 
ATOM     21  HN  UNL     1     -47.076 -55.598  15.003  1.00  0.00     0.187 HD
BRANCH  16  22
HETATM   22  C   UNL     1     -46.437 -51.612  12.858  1.00  0.00     0.073 C 
HETATM   23  C   UNL     1     -47.125 -51.642  11.503  1.00  0.00     0.013 C 
ENDBRANCH  16  22
ENDBRANCH  14  15
ENDBRANCH  13  14
ENDBRANCH   1  13
TORSDOF 4
ENDMDL
MODEL 3
REMARK VINA RESULT:      -6.3      1.971      2.684
REMARK  4 active torsions:
REMARK  status: ('A' for Active; 'I' for Inactive)
REMARK    1  A    between atoms: C_2  and  C_3 
REMARK    2  A    between atoms: N_9  and  C_10 
REMARK    3  A    between atoms: C_10  and  C_11 
REMARK    4  A    between atoms: C_11  and  N_12 
REMARK       I    between atoms: N_12  and  C_13 
REMARK       I    between atoms: C_13  and  N_15 
ROOT
HETATM    1  N   UNL     1     -41.145 -50.885  11.587  1.00  0.00    -0.341 N 
HETATM    2  C   UNL     1     -40.723 -51.988  12.291  1.00  0.00     0.318 C 
HETATM    3  O   UNL     1     -39.583 -52.061  12.743  1.00  0.00    -0.247 OA
HETATM    4  N   UNL     1     -41.664 -53.002  12.413  1.00  0.00    -0.334 N 
HETATM    5  C   UNL     1     -41.225 -54.254  13.032  1.00  0.00     0.127 C 
HETATM    6  C   UNL     1     -41.518 -54.285  14.528  1.00  0.00     0.020 C 
HETATM    7  C   UNL     1     -42.914 -54.794  14.892  1.00  0.00     0.006 C 
HETATM    8  C   UNL     1     -44.066 -54.404  13.950  1.00  0.00    -0.017 C 
HETATM    9  C   UNL     1     -45.405 -54.634  14.660  1.00  0.00     0.010 C 
HETATM   10  C   UNL     1     -43.971 -52.962  13.429  1.00  0.00     0.024 C 
HETATM   11  C   UNL     1     -43.101 -52.847  12.171  1.00  0.00     0.128 C 
HETATM   12  H   UNL     1     -41.726 -51.134  10.800  1.00  0.00     0.164 HD
ENDROOT
BRANCH   1  13
HETATM   13  C   UNL     1     -40.219 -49.783  11.386  1.00  0.00     0.144 C 
BRANCH  13  14
HETATM   14  C   UNL     1     -40.649 -48.491  12.076  1.00  0.00     0.151 C 
BRANCH  14  15
HETATM   15  N   UNL     1     -40.851 -47.384  11.166  1.00  0.00    -0.329 N 
HETATM   16  C   UNL     1     -41.997 -47.024  10.505  1.00  0.00     0.098 A 
HETATM   17  N   UNL     1     -41.760 -45.913   9.836  1.00  0.00    -0.288 N 
HETATM   18  N   UNL     1     -40.457 -45.542  10.062  1.00  0.00    -0.295 N 
ATOM     19  HN  UNL     1     -42.430 -45.415   9.250  1.00  0.00     0.188 HD
HETATM   20  C   UNL     1     -39.926 -46.432  10.863  1.00  0.00     0.201 A 
ATOM     21  HN  UNL     1     -39.988 -44.722   9.676  1.00  0.00     0.187 HD
BRANCH  16  22
HETATM   22  C   UNL     1     -43.287 -47.765  10.544  1.00  0.00     0.073 C 
HETATM   23  C   UNL     1     -44.182 -47.394   9.372  1.00  0.00     0.013 C 
ENDBRANCH  16  22
ENDBRANCH  14  15
ENDBRANCH  13  14
ENDBRANCH   1  13
TORSDOF 4
ENDMDL
MODEL 4
REMARK VINA RESULT:      -6.3      2.116      3.308
REMARK  4 active torsions:
REMARK  status: ('A' for Active; 'I' for Inactive)
REMARK    1  A    between atoms: C_2  and  C_3 
REMARK    2  A    between atoms: N_9  and  C_10 
REMARK    3  A    between atoms: C_10  and  C_11 
REMARK    4  A    between atoms: C_11  and  N_12 
REMARK       I    between atoms: N_12  and  C_13 
REMARK       I    between atoms: C_13  and  N_15 
ROOT
HETATM    1  N   UNL     1     -40.950 -50.864  11.482  1.00  0.00    -0.341 N 
HETATM    2  C   UNL     1     -40.516 -51.924  12.242  1.00  0.00     0.318 C 
HETATM    3  O   UNL     1     -39.390 -51.942  12.731  1.00  0.00    -0.247 OA
HETATM    4  N   UNL     1     -41.427 -52.964  12.374  1.00  0.00    -0.334 N 
HETATM    5  C   UNL     1     -40.969 -54.176  13.055  1.00  0.00     0.127 C 
HETATM    6  C   UNL     1     -41.309 -54.160  14.541  1.00  0.00     0.020 C 
HETATM    7  C   UNL     1     -42.699 -54.701  14.881  1.00  0.00     0.006 C 
HETATM    8  C   UNL     1     -43.832 -54.386  13.889  1.00  0.00    -0.017 C 
HETATM    9  C   UNL     1     -45.185 -54.633  14.565  1.00  0.00     0.010 C 
HETATM   10  C   UNL     1     -43.766 -52.962  13.315  1.00  0.00     0.024 C 
HETATM   11  C   UNL     1     -42.860 -52.866  12.082  1.00  0.00     0.128 C 
HETATM   12  H   UNL     1     -41.497 -51.161  10.688  1.00  0.00     0.164 HD
ENDROOT
BRANCH   1  13
HETATM   13  C   UNL     1     -40.053 -49.739  11.268  1.00  0.00     0.144 C 
BRANCH  13  14
HETATM   14  C   UNL     1     -40.579 -48.423  11.835  1.00  0.00     0.151 C 
BRANCH  14  15
HETATM   15  N   UNL     1     -41.320 -47.632  10.879  1.00  0.00    -0.329 N 
HETATM   16  C   UNL     1     -41.105 -46.331  10.501  1.00  0.00     0.098 A 
HETATM   17  N   UNL     1     -41.967 -46.025   9.552  1.00  0.00    -0.288 N 
HETATM   18  N   UNL     1     -42.747 -47.129   9.303  1.00  0.00    -0.295 N 
ATOM     19  HN  UNL     1     -42.042 -45.123   9.082  1.00  0.00     0.188 HD
HETATM   20  C   UNL     1     -42.345 -48.084  10.104  1.00  0.00     0.201 A 
ATOM     21  HN  UNL     1     -43.501 -47.192   8.619  1.00  0.00     0.187 HD
BRANCH  16  22
HETATM   22  C   UNL     1     -40.069 -45.426  11.069  1.00  0.00     0.073 C 
HETATM   23  C   UNL     1     -39.278 -44.726   9.976  1.00  0.00     0.013 C 
ENDBRANCH  16  22
ENDBRANCH  14  15
ENDBRANCH  13  14
ENDBRANCH   1  13
TORSDOF 4
ENDMDL
MODEL 5
REMARK VINA RESULT:      -6.2      2.837      6.486
REMARK  4 active torsions:
REMARK  status: ('A' for Active; 'I' for Inactive)
REMARK    1  A    between atoms: C_2  and  C_3 
REMARK    2  A    between atoms: N_9  and  C_10 
REMARK    3  A    between atoms: C_10  and  C_11 
REMARK    4  A    between atoms: C_11  and  N_12 
REMARK       I    between atoms: N_12  and  C_13 
REMARK       I    between atoms: C_13  and  N_15 
ROOT
HETATM    1  N   UNL     1     -42.950 -51.387  12.804  1.00  0.00    -0.341 N 
HETATM    2  C   UNL     1     -41.780 -50.668  12.869  1.00  0.00     0.318 C 
HETATM    3  O   UNL     1     -40.694 -51.224  13.003  1.00  0.00    -0.247 OA
HETATM    4  N   UNL     1     -41.934 -49.289  12.806  1.00  0.00    -0.334 N 
HETATM    5  C   UNL     1     -40.738 -48.470  13.010  1.00  0.00     0.127 C 
HETATM    6  C   UNL     1     -40.068 -48.100  11.691  1.00  0.00     0.020 C 
HETATM    7  C   UNL     1     -40.617 -46.831  11.034  1.00  0.00     0.006 C 
HETATM    8  C   UNL     1     -42.128 -46.578  11.160  1.00  0.00    -0.017 C 
HETATM    9  C   UNL     1     -42.557 -45.527  10.130  1.00  0.00     0.010 C 
HETATM   10  C   UNL     1     -42.977 -47.852  11.017  1.00  0.00     0.024 C 
HETATM   11  C   UNL     1     -43.142 -48.600  12.346  1.00  0.00     0.128 C 
HETATM   12  H   UNL     1     -43.702 -50.938  13.306  1.00  0.00     0.164 HD
ENDROOT
BRANCH   1  13
HETATM   13  C   UNL     1     -42.889 -52.837  12.887  1.00  0.00     0.144 C 
BRANCH  13  14
HETATM   14  C   UNL     1     -44.078 -53.537  12.235  1.00  0.00     0.151 C 
BRANCH  14  15
HETATM   15  N   UNL     1     -45.191 -53.753  13.133  1.00  0.00    -0.329 N 
HETATM   16  C   UNL     1     -46.271 -52.939  13.362  1.00  0.00     0.098 A 
HETATM   17  N   UNL     1     -47.083 -53.551  14.201  1.00  0.00    -0.288 N 
HETATM   18  N   UNL     1     -46.537 -54.771  14.520  1.00  0.00    -0.295 N 
ATOM     19  HN  UNL     1     -47.965 -53.182  14.553  1.00  0.00     0.188 HD
HETATM   20  C   UNL     1     -45.405 -54.878  13.870  1.00  0.00     0.201 A 
ATOM     21  HN  UNL     1     -46.939 -55.465  15.149  1.00  0.00     0.187 HD
BRANCH  16  22
HETATM   22  C   UNL     1     -46.485 -51.596  12.758  1.00  0.00     0.073 C 
HETATM   23  C   UNL     1     -47.197 -51.691  11.418  1.00  0.00     0.013 C 
ENDBRANCH  16  22
ENDBRANCH  14  15
ENDBRANCH  13  14
ENDBRANCH   1  13
TORSDOF 4
ENDMDL
MODEL 6
REMARK VINA RESULT:      -6.1      3.269      5.371
REMARK  4 active torsions:
REMARK  status: ('A' for Active; 'I' for Inactive)
REMARK    1  A    between atoms: C_2  and  C_3 
REMARK    2  A    between atoms: N_9  and  C_10 
REMARK    3  A    between atoms: C_10  and  C_11 
REMARK    4  A    between atoms: C_11  and  N_12 
REMARK       I    between atoms: N_12  and  C_13 
REMARK       I    between atoms: C_13  and  N_15 
ROOT
HETATM    1  N   UNL     1     -42.672 -52.001  12.233  1.00  0.00    -0.341 N 
HETATM    2  C   UNL     1     -43.241 -53.100  12.831  1.00  0.00     0.318 C 
HETATM    3  O   UNL     1     -42.607 -54.139  12.996  1.00  0.00    -0.247 OA
HETATM    4  N   UNL     1     -44.574 -52.948  13.190  1.00  0.00    -0.334 N 
HETATM    5  C   UNL     1     -45.270 -54.130  13.703  1.00  0.00     0.127 C 
HETATM    6  C   UNL     1     -45.234 -54.198  15.226  1.00  0.00     0.020 C 
HETATM    7  C   UNL     1     -46.366 -53.440  15.923  1.00  0.00     0.006 C 
HETATM    8  C   UNL     1     -46.819 -52.119  15.280  1.00  0.00    -0.017 C 
HETATM    9  C   UNL     1     -47.639 -51.314  16.295  1.00  0.00     0.010 C 
HETATM   10  C   UNL     1     -45.659 -51.274  14.731  1.00  0.00     0.024 C 
HETATM   11  C   UNL     1     -45.273 -51.666  13.299  1.00  0.00     0.128 C 
HETATM   12  H   UNL     1     -43.313 -51.528  11.613  1.00  0.00     0.164 HD
ENDROOT
BRANCH   1  13
HETATM   13  C   UNL     1     -41.286 -52.076  11.800  1.00  0.00     0.144 C 
BRANCH  13  14
HETATM   14  C   UNL     1     -40.350 -51.164  12.589  1.00  0.00     0.151 C 
BRANCH  14  15
HETATM   15  N   UNL     1     -40.182 -49.853  12.001  1.00  0.00    -0.329 N 
HETATM   16  C   UNL     1     -39.093 -49.023  12.069  1.00  0.00     0.098 A 
HETATM   17  N   UNL     1     -39.335 -47.957  11.333  1.00  0.00    -0.288 N 
HETATM   18  N   UNL     1     -40.585 -48.089  10.778  1.00  0.00    -0.295 N 
ATOM     19  HN  UNL     1     -38.703 -47.168  11.199  1.00  0.00     0.188 HD
HETATM   20  C   UNL     1     -41.079 -49.232  11.186  1.00  0.00     0.201 A 
ATOM     21  HN  UNL     1     -41.045 -47.419  10.161  1.00  0.00     0.187 HD
BRANCH  16  22
HETATM   22  C   UNL     1     -37.849 -49.290  12.841  1.00  0.00     0.073 C 
HETATM   23  C   UNL     1     -37.670 -48.295  13.977  1.00  0.00     0.013 C 
ENDBRANCH  16  22
ENDBRANCH  14  15
ENDBRANCH  13  14
ENDBRANCH   1  13
TORSDOF 4
ENDMDL
MODEL 7
REMARK VINA RESULT:      -6.1      1.436      2.352
REMARK  4 active torsions:
REMARK  status: ('A' for Active; 'I' for Inactive)
REMARK    1  A    between atoms: C_2  and  C_3 
REMARK    2  A    between atoms: N_9  and  C_10 
REMARK    3  A    between atoms: C_10  and  C_11 
REMARK    4  A    between atoms: C_11  and  N_12 
REMARK       I    between atoms: N_12  and  C_13 
REMARK       I    between atoms: C_13  and  N_15 
ROOT
HETATM    1  N   UNL     1     -42.458 -49.828  11.749  1.00  0.00    -0.341 N 
HETATM    2  C   UNL     1     -41.393 -50.660  12.003  1.00  0.00     0.318 C 
HETATM    3  O   UNL     1     -40.240 -50.238  12.014  1.00  0.00    -0.247 OA
HETATM    4  N   UNL     1     -41.726 -51.993  12.204  1.00  0.00    -0.334 N 
HETATM    5  C   UNL     1     -40.623 -52.947  12.340  1.00  0.00     0.127 C 
HETATM    6  C   UNL     1     -40.251 -53.186  13.799  1.00  0.00     0.020 C 
HETATM    7  C   UNL     1     -41.061 -54.286  14.489  1.00  0.00     0.006 C 
HETATM    8  C   UNL     1     -42.546 -54.405  14.104  1.00  0.00    -0.017 C 
HETATM    9  C   UNL     1     -43.278 -55.248  15.153  1.00  0.00     0.010 C 
HETATM   10  C   UNL     1     -43.242 -53.047  13.920  1.00  0.00     0.024 C 
HETATM   11  C   UNL     1     -43.072 -52.487  12.502  1.00  0.00     0.128 C 
HETATM   12  H   UNL     1     -43.157 -50.268  11.170  1.00  0.00     0.164 HD
ENDROOT
BRANCH   1  13
HETATM   13  C   UNL     1     -42.204 -48.418  11.501  1.00  0.00     0.144 C 
BRANCH  13  14
HETATM   14  C   UNL     1     -42.251 -48.040  10.023  1.00  0.00     0.151 C 
BRANCH  14  15
HETATM   15  N   UNL     1     -43.222 -47.013   9.714  1.00  0.00    -0.329 N 
HETATM   16  C   UNL     1     -43.130 -45.662   9.931  1.00  0.00     0.098 A 
HETATM   17  N   UNL     1     -44.206 -45.087   9.435  1.00  0.00    -0.288 N 
HETATM   18  N   UNL     1     -45.005 -46.061   8.887  1.00  0.00    -0.295 N 
ATOM     19  HN  UNL     1     -44.412 -44.088   9.454  1.00  0.00     0.188 HD
HETATM   20  C   UNL     1     -44.400 -47.210   9.061  1.00  0.00     0.201 A 
ATOM     21  HN  UNL     1     -45.906 -45.917   8.430  1.00  0.00     0.187 HD
BRANCH  16  22
HETATM   22  C   UNL     1     -42.000 -44.970  10.609  1.00  0.00     0.073 C 
HETATM   23  C   UNL     1     -42.293 -44.728  12.081  1.00  0.00     0.013 C 
ENDBRANCH  16  22
ENDBRANCH  14  15
ENDBRANCH  13  14
ENDBRANCH   1  13
TORSDOF 4
ENDMDL
MODEL 8
REMARK VINA RESULT:      -6.0      3.654      5.169
REMARK  4 active torsions:
REMARK  status: ('A' for Active; 'I' for Inactive)
REMARK    1  A    between atoms: C_2  and  C_3 
REMARK    2  A    between atoms: N_9  and  C_10 
REMARK    3  A    between atoms: C_10  and  C_11 
REMARK    4  A    between atoms: C_11  and  N_12 
REMARK       I    between atoms: N_12  and  C_13 
REMARK       I    between atoms: C_13  and  N_15 
ROOT
HETATM    1  N   UNL     1     -40.509 -50.448  14.434  1.00  0.00    -0.341 N 
HETATM    2  C   UNL     1     -40.988 -51.537  13.746  1.00  0.00     0.318 C 
HETATM    3  O   UNL     1     -40.308 -52.549  13.596  1.00  0.00    -0.247 OA
HETATM    4  N   UNL     1     -42.263 -51.383  13.217  1.00  0.00    -0.334 N 
HETATM    5  C   UNL     1     -42.768 -52.456  12.358  1.00  0.00     0.127 C 
HETATM    6  C   UNL     1     -43.598 -53.469  13.139  1.00  0.00     0.020 C 
HETATM    7  C   UNL     1     -45.080 -53.110  13.271  1.00  0.00     0.006 C 
HETATM    8  C   UNL     1     -45.423 -51.622  13.448  1.00  0.00    -0.017 C 
HETATM    9  C   UNL     1     -46.860 -51.488  13.964  1.00  0.00     0.010 C 
HETATM   10  C   UNL     1     -44.447 -50.872  14.368  1.00  0.00     0.024 C 
HETATM   11  C   UNL     1     -43.217 -50.346  13.617  1.00  0.00     0.128 C 
HETATM   12  H   UNL     1     -40.776 -49.576  14.003  1.00  0.00     0.164 HD
ENDROOT
BRANCH   1  13
HETATM   13  C   UNL     1     -39.172 -50.509  15.002  1.00  0.00     0.144 C 
BRANCH  13  14
HETATM   14  C   UNL     1     -38.165 -49.609  14.291  1.00  0.00     0.151 C 
BRANCH  14  15
HETATM   15  N   UNL     1     -38.006 -49.909  12.885  1.00  0.00    -0.329 N 
HETATM   16  C   UNL     1     -38.519 -49.235  11.807  1.00  0.00     0.098 A 
HETATM   17  N   UNL     1     -38.070 -49.805  10.707  1.00  0.00    -0.288 N 
HETATM   18  N   UNL     1     -37.257 -50.853  11.064  1.00  0.00    -0.295 N 
ATOM     19  HN  UNL     1     -38.289 -49.517   9.753  1.00  0.00     0.188 HD
HETATM   20  C   UNL     1     -37.226 -50.901  12.372  1.00  0.00     0.201 A 
ATOM     21  HN  UNL     1     -36.767 -51.480  10.425  1.00  0.00     0.187 HD
BRANCH  16  22
HETATM   22  C   UNL     1     -39.426 -48.057  11.876  1.00  0.00     0.073 C 
HETATM   23  C   UNL     1     -40.834 -48.407  11.422  1.00  0.00     0.013 C 
ENDBRANCH  16  22
ENDBRANCH  14  15
ENDBRANCH  13  14
ENDBRANCH   1  13
TORSDOF 4
ENDMDL
MODEL 9
REMARK VINA RESULT:      -5.9      4.031      6.200
REMARK  4 active torsions:
REMARK  status: ('A' for Active; 'I' for Inactive)
REMARK    1  A    between atoms: C_2  and  C_3 
REMARK    2  A    between atoms: N_9  and  C_10 
REMARK    3  A    between atoms: C_10  and  C_11 
REMARK    4  A    between atoms: C_11  and  N_12 
REMARK       I    between atoms: N_12  and  C_13 
REMARK       I    between atoms: C_13  and  N_15 
ROOT
HETATM    1  N   UNL     1     -42.865 -52.217  12.230  1.00  0.00    -0.341 N 
HETATM    2  C   UNL     1     -43.306 -53.235  13.042  1.00  0.00     0.318 C 
HETATM    3  O   UNL     1     -42.574 -54.172  13.348  1.00  0.00    -0.247 OA
HETATM    4  N   UNL     1     -44.631 -53.133  13.444  1.00  0.00    -0.334 N 
HETATM    5  C   UNL     1     -45.194 -54.258  14.193  1.00  0.00     0.127 C 
HETATM    6  C   UNL     1     -45.090 -54.051  15.700  1.00  0.00     0.020 C 
HETATM    7  C   UNL     1     -46.257 -53.277  16.317  1.00  0.00     0.006 C 
HETATM    8  C   UNL     1     -46.855 -52.133  15.482  1.00  0.00    -0.017 C 
HETATM    9  C   UNL     1     -47.702 -51.231  16.386  1.00  0.00     0.010 C 
HETATM   10  C   UNL     1     -45.800 -51.307  14.730  1.00  0.00     0.024 C 
HETATM   11  C   UNL     1     -45.439 -51.913  13.368  1.00  0.00     0.128 C 
HETATM   12  H   UNL     1     -43.571 -51.917  11.575  1.00  0.00     0.164 HD
ENDROOT
BRANCH   1  13
HETATM   13  C   UNL     1     -41.497 -52.253  11.739  1.00  0.00     0.144 C 
BRANCH  13  14
HETATM   14  C   UNL     1     -40.712 -50.975  12.024  1.00  0.00     0.151 C 
BRANCH  14  15
HETATM   15  N   UNL     1     -39.662 -51.143  13.004  1.00  0.00    -0.329 N 
HETATM   16  C   UNL     1     -38.482 -50.453  13.114  1.00  0.00     0.098 A 
HETATM   17  N   UNL     1     -37.851 -50.876  14.191  1.00  0.00    -0.288 N 
HETATM   18  N   UNL     1     -38.621 -51.842  14.793  1.00  0.00    -0.295 N 
ATOM     19  HN  UNL     1     -36.946 -50.543  14.522  1.00  0.00     0.188 HD
HETATM   20  C   UNL     1     -39.704 -51.989  14.071  1.00  0.00     0.201 A 
ATOM     21  HN  UNL     1     -38.391 -52.352  15.646  1.00  0.00     0.187 HD
BRANCH  16  22
HETATM   22  C   UNL     1     -38.002 -49.404  12.174  1.00  0.00     0.073 C 
HETATM   23  C   UNL     1     -37.255 -50.007  10.996  1.00  0.00     0.013 C 
ENDBRANCH  16  22
ENDBRANCH  14  15
ENDBRANCH  13  14
ENDBRANCH   1  13
TORSDOF 4
ENDMDL
