MODEL 1
REMARK VINA RESULT:      -5.7      0.000      0.000
REMARK  4 active torsions:
REMARK  status: ('A' for Active; 'I' for Inactive)
REMARK    1  A    between atoms: C_2  and  C_3 
REMARK    2  A    between atoms: C_2  and  N_10 
REMARK    3  A    between atoms: C_3  and  N_4 
REMARK       I    between atoms: N_10  and  C_11 
REMARK    4  A    between atoms: C_11  and  C_13 
ROOT
HETATM    1  N   UNL     1     -39.890 -46.975  11.030  1.00  0.00    -0.355 N 
HETATM    2  C   UNL     1     -39.463 -47.708  12.117  1.00  0.00     0.224 C 
HETATM    3  O   UNL     1     -39.297 -47.202  13.221  1.00  0.00    -0.273 OA
HETATM    4  H   UNL     1     -39.814 -47.391  10.109  1.00  0.00     0.162 HD
ENDROOT
BRANCH   1   5
HETATM    5  C   UNL     1     -40.138 -45.525  11.120  1.00  0.00     0.098 C 
HETATM    6  C   UNL     1     -39.529 -44.844   9.891  1.00  0.00     0.034 C 
BRANCH   5   7
HETATM    7  C   UNL     1     -41.645 -45.206  11.253  1.00  0.00     0.153 C 
BRANCH   7   8
HETATM    8  N   UNL     1     -42.531 -46.203  10.683  1.00  0.00    -0.350 N 
HETATM    9  C   UNL     1     -42.871 -46.325   9.364  1.00  0.00     0.108 A 
HETATM   10  C   UNL     1     -43.650 -47.458   9.304  1.00  0.00     0.106 A 
HETATM   11  N   UNL     1     -43.783 -48.022  10.546  1.00  0.00    -0.361 N 
HETATM   12  C   UNL     1     -43.089 -47.254  11.355  1.00  0.00     0.182 A 
ATOM     13  HN  UNL     1     -44.310 -48.860  10.790  1.00  0.00     0.166 HD
ENDBRANCH   7   8
ENDBRANCH   5   7
ENDBRANCH   1   5
BRANCH   2  14
HETATM   14  C   UNL     1     -39.293 -49.192  11.855  1.00  0.00     0.104 C 
HETATM   15  C   UNL     1     -39.717 -50.007  13.069  1.00  0.00     0.139 C 
HETATM   16  N   UNL     1     -38.902 -51.189  13.001  1.00  0.00    -0.356 N 
HETATM   17  C   UNL     1     -38.977 -52.213  14.019  1.00  0.00     0.152 C 
HETATM   18  C   UNL     1     -37.744 -50.969  12.270  1.00  0.00     0.220 C 
HETATM   19  O   UNL     1     -36.780 -51.713  12.190  1.00  0.00    -0.273 OA
HETATM   20  C   UNL     1     -37.842 -49.609  11.622  1.00  0.00     0.118 C 
ENDBRANCH   2  14
TORSDOF 4
ENDMDL
MODEL 2
REMARK VINA RESULT:      -5.3      4.321      6.391
REMARK  4 active torsions:
REMARK  status: ('A' for Active; 'I' for Inactive)
REMARK    1  A    between atoms: C_2  and  C_3 
REMARK    2  A    between atoms: C_2  and  N_10 
REMARK    3  A    between atoms: C_3  and  N_4 
REMARK       I    between atoms: N_10  and  C_11 
REMARK    4  A    between atoms: C_11  and  C_13 
ROOT
HETATM    1  N   UNL     1     -42.479 -51.483  12.991  1.00  0.00    -0.355 N 
HETATM    2  C   UNL     1     -41.999 -52.639  12.412  1.00  0.00     0.224 C 
HETATM    3  O   UNL     1     -41.109 -52.627  11.569  1.00  0.00    -0.273 OA
HETATM    4  H   UNL     1     -43.342 -51.532  13.520  1.00  0.00     0.162 HD
ENDROOT
BRANCH   1   5
HETATM    5  C   UNL     1     -41.975 -50.153  12.602  1.00  0.00     0.098 C 
HETATM    6  C   UNL     1     -43.090 -49.124  12.810  1.00  0.00     0.034 C 
BRANCH   5   7
HETATM    7  C   UNL     1     -40.699 -49.770  13.387  1.00  0.00     0.153 C 
BRANCH   7   8
HETATM    8  N   UNL     1     -39.457 -49.971  12.664  1.00  0.00    -0.350 N 
HETATM    9  C   UNL     1     -38.355 -50.640  13.117  1.00  0.00     0.108 A 
HETATM   10  C   UNL     1     -37.480 -50.641  12.055  1.00  0.00     0.106 A 
HETATM   11  N   UNL     1     -38.027 -49.996  10.976  1.00  0.00    -0.361 N 
HETATM   12  C   UNL     1     -39.222 -49.615  11.366  1.00  0.00     0.182 A 
ATOM     13  HN  UNL     1     -37.597 -49.844  10.064  1.00  0.00     0.166 HD
ENDBRANCH   7   8
ENDBRANCH   5   7
ENDBRANCH   1   5
BRANCH   2  14
HETATM   14  C   UNL     1     -42.604 -53.919  12.955  1.00  0.00     0.104 C 
HETATM   15  C   UNL     1     -44.123 -53.880  12.862  1.00  0.00     0.139 C 
HETATM   16  N   UNL     1     -44.564 -54.700  13.958  1.00  0.00    -0.356 N 
HETATM   17  C   UNL     1     -45.969 -54.885  14.241  1.00  0.00     0.152 C 
HETATM   18  C   UNL     1     -43.601 -54.781  14.953  1.00  0.00     0.220 C 
HETATM   19  O   UNL     1     -43.748 -55.244  16.073  1.00  0.00    -0.273 OA
HETATM   20  C   UNL     1     -42.333 -54.141  14.442  1.00  0.00     0.118 C 
ENDBRANCH   2  14
TORSDOF 4
ENDMDL
MODEL 3
REMARK VINA RESULT:      -5.3      1.536      2.478
REMARK  4 active torsions:
REMARK  status: ('A' for Active; 'I' for Inactive)
REMARK    1  A    between atoms: C_2  and  C_3 
REMARK    2  A    between atoms: C_2  and  N_10 
REMARK    3  A    between atoms: C_3  and  N_4 
REMARK       I    between atoms: N_10  and  C_11 
REMARK    4  A    between atoms: C_11  and  C_13 
ROOT
HETATM    1  N   UNL     1     -39.922 -47.024  10.864  1.00  0.00    -0.355 N 
HETATM    2  C   UNL     1     -39.626 -47.733  12.009  1.00  0.00     0.224 C 
HETATM    3  O   UNL     1     -39.622 -47.211  13.117  1.00  0.00    -0.273 OA
HETATM    4  H   UNL     1     -39.712 -47.447   9.967  1.00  0.00     0.162 HD
ENDROOT
BRANCH   1   5
HETATM    5  C   UNL     1     -40.216 -45.579  10.900  1.00  0.00     0.098 C 
HETATM    6  C   UNL     1     -39.334 -44.872   9.866  1.00  0.00     0.034 C 
BRANCH   5   7
HETATM    7  C   UNL     1     -41.716 -45.292  10.655  1.00  0.00     0.153 C 
BRANCH   7   8
HETATM    8  N   UNL     1     -42.278 -44.245  11.487  1.00  0.00    -0.350 N 
HETATM    9  C   UNL     1     -42.147 -44.130  12.843  1.00  0.00     0.108 A 
HETATM   10  C   UNL     1     -42.769 -42.944  13.159  1.00  0.00     0.106 A 
HETATM   11  N   UNL     1     -43.266 -42.342  12.032  1.00  0.00    -0.361 N 
HETATM   12  C   UNL     1     -42.944 -43.140  11.039  1.00  0.00     0.182 A 
ATOM     13  HN  UNL     1     -43.777 -41.461  11.977  1.00  0.00     0.166 HD
ENDBRANCH   7   8
ENDBRANCH   5   7
ENDBRANCH   1   5
BRANCH   2  14
HETATM   14  C   UNL     1     -39.384 -49.214  11.792  1.00  0.00     0.104 C 
HETATM   15  C   UNL     1     -39.818 -50.016  13.012  1.00  0.00     0.139 C 
HETATM   16  N   UNL     1     -38.953 -51.164  13.004  1.00  0.00    -0.356 N 
HETATM   17  C   UNL     1     -39.023 -52.165  14.045  1.00  0.00     0.152 C 
HETATM   18  C   UNL     1     -37.779 -50.913  12.309  1.00  0.00     0.220 C 
HETATM   19  O   UNL     1     -36.783 -51.617  12.284  1.00  0.00    -0.273 OA
HETATM   20  C   UNL     1     -37.910 -49.576  11.622  1.00  0.00     0.118 C 
ENDBRANCH   2  14
TORSDOF 4
ENDMDL
MODEL 4
REMARK VINA RESULT:      -5.3      2.383      2.900
REMARK  4 active torsions:
REMARK  status: ('A' for Active; 'I' for Inactive)
REMARK    1  A    between atoms: C_2  and  C_3 
REMARK    2  A    between atoms: C_2  and  N_10 
REMARK    3  A    between atoms: C_3  and  N_4 
REMARK       I    between atoms: N_10  and  C_11 
REMARK    4  A    between atoms: C_11  and  C_13 
ROOT
HETATM    1  N   UNL     1     -41.432 -48.577  11.207  1.00  0.00    -0.355 N 
HETATM    2  C   UNL     1     -41.979 -49.574  11.987  1.00  0.00     0.224 C 
HETATM    3  O   UNL     1     -42.958 -49.383  12.699  1.00  0.00    -0.273 OA
HETATM    4  H   UNL     1     -40.515 -48.730  10.803  1.00  0.00     0.162 HD
ENDROOT
BRANCH   1   5
HETATM    5  C   UNL     1     -41.970 -47.204  11.211  1.00  0.00     0.098 C 
HETATM    6  C   UNL     1     -40.950 -46.277  11.878  1.00  0.00     0.034 C 
BRANCH   5   7
HETATM    7  C   UNL     1     -42.325 -46.722   9.785  1.00  0.00     0.153 C 
BRANCH   7   8
HETATM    8  N   UNL     1     -43.525 -47.313   9.224  1.00  0.00    -0.350 N 
HETATM    9  C   UNL     1     -44.754 -47.371   9.818  1.00  0.00     0.108 A 
HETATM   10  C   UNL     1     -45.578 -47.937   8.872  1.00  0.00     0.106 A 
HETATM   11  N   UNL     1     -44.880 -48.216   7.726  1.00  0.00    -0.361 N 
HETATM   12  C   UNL     1     -43.650 -47.819   7.961  1.00  0.00     0.182 A 
ATOM     13  HN  UNL     1     -45.240 -48.642   6.872  1.00  0.00     0.166 HD
ENDBRANCH   7   8
ENDBRANCH   5   7
ENDBRANCH   1   5
BRANCH   2  14
HETATM   14  C   UNL     1     -41.323 -50.932  11.833  1.00  0.00     0.104 C 
HETATM   15  C   UNL     1     -42.209 -52.029  12.408  1.00  0.00     0.139 C 
HETATM   16  N   UNL     1     -41.282 -53.037  12.844  1.00  0.00    -0.356 N 
HETATM   17  C   UNL     1     -41.737 -54.244  13.497  1.00  0.00     0.152 C 
HETATM   18  C   UNL     1     -40.025 -52.504  13.088  1.00  0.00     0.220 C 
HETATM   19  O   UNL     1     -39.090 -53.063  13.637  1.00  0.00    -0.273 OA
HETATM   20  C   UNL     1     -40.015 -51.072  12.610  1.00  0.00     0.118 C 
ENDBRANCH   2  14
TORSDOF 4
ENDMDL
MODEL 5
REMARK VINA RESULT:      -5.2      4.312      6.521
REMARK  4 active torsions:
REMARK  status: ('A' for Active; 'I' for Inactive)
REMARK    1  A    between atoms: C_2  and  C_3 
REMARK    2  A    between atoms: C_2  and  N_10 
REMARK    3  A    between atoms: C_3  and  N_4 
REMARK       I    between atoms: N_10  and  C_11 
REMARK    4  A    between atoms: C_11  and  C_13 
ROOT
HETATM    1  N   UNL     1     -43.133 -49.644  12.371  1.00  0.00    -0.355 N 
HETATM    2  C   UNL     1     -41.834 -49.670  11.909  1.00  0.00     0.224 C 
HETATM    3  O   UNL     1     -41.023 -50.507  12.288  1.00  0.00    -0.273 OA
HETATM    4  H   UNL     1     -43.694 -48.820  12.185  1.00  0.00     0.162 HD
ENDROOT
BRANCH   1   5
HETATM    5  C   UNL     1     -43.617 -50.601  13.382  1.00  0.00     0.098 C 
HETATM    6  C   UNL     1     -43.518 -49.949  14.764  1.00  0.00     0.034 C 
BRANCH   5   7
HETATM    7  C   UNL     1     -45.059 -51.074  13.082  1.00  0.00     0.153 C 
BRANCH   7   8
HETATM    8  N   UNL     1     -45.292 -52.489  13.298  1.00  0.00    -0.350 N 
HETATM    9  C   UNL     1     -44.458 -53.511  12.940  1.00  0.00     0.108 A 
HETATM   10  C   UNL     1     -45.062 -54.647  13.429  1.00  0.00     0.106 A 
HETATM   11  N   UNL     1     -46.231 -54.336  14.074  1.00  0.00    -0.361 N 
HETATM   12  C   UNL     1     -46.338 -53.029  13.991  1.00  0.00     0.182 A 
ATOM     13  HN  UNL     1     -46.879 -54.983  14.522  1.00  0.00     0.166 HD
ENDBRANCH   7   8
ENDBRANCH   5   7
ENDBRANCH   1   5
BRANCH   2  14
HETATM   14  C   UNL     1     -41.517 -48.636  10.846  1.00  0.00     0.104 C 
HETATM   15  C   UNL     1     -40.538 -47.598  11.377  1.00  0.00     0.139 C 
HETATM   16  N   UNL     1     -40.861 -46.403  10.645  1.00  0.00    -0.356 N 
HETATM   17  C   UNL     1     -40.169 -45.159  10.894  1.00  0.00     0.152 C 
HETATM   18  C   UNL     1     -42.164 -46.433  10.169  1.00  0.00     0.220 C 
HETATM   19  O   UNL     1     -42.781 -45.503   9.677  1.00  0.00    -0.273 OA
HETATM   20  C   UNL     1     -42.728 -47.812  10.414  1.00  0.00     0.118 C 
ENDBRANCH   2  14
TORSDOF 4
ENDMDL
MODEL 6
REMARK VINA RESULT:      -5.1     14.481     17.475
REMARK  4 active torsions:
REMARK  status: ('A' for Active; 'I' for Inactive)
REMARK    1  A    between atoms: C_2  and  C_3 
REMARK    2  A    between atoms: C_2  and  N_10 
REMARK    3  A    between atoms: C_3  and  N_4 
REMARK       I    between atoms: N_10  and  C_11 
REMARK    4  A    between atoms: C_11  and  C_13 
ROOT
HETATM    1  N   UNL     1     -51.622 -52.343  -0.869  1.00  0.00    -0.355 N 
HETATM    2  C   UNL     1     -50.493 -51.794  -0.298  1.00  0.00     0.224 C 
HETATM    3  O   UNL     1     -49.545 -52.481   0.065  1.00  0.00    -0.273 OA
HETATM    4  H   UNL     1     -52.447 -51.762  -0.960  1.00  0.00     0.162 HD
ENDROOT
BRANCH   1   5
HETATM    5  C   UNL     1     -51.774 -53.799  -1.043  1.00  0.00     0.098 C 
HETATM    6  C   UNL     1     -53.145 -54.219  -0.505  1.00  0.00     0.034 C 
BRANCH   5   7
HETATM    7  C   UNL     1     -51.593 -54.223  -2.520  1.00  0.00     0.153 C 
BRANCH   7   8
HETATM    8  N   UNL     1     -50.569 -55.225  -2.744  1.00  0.00    -0.350 N 
HETATM    9  C   UNL     1     -50.712 -56.388  -3.449  1.00  0.00     0.108 A 
HETATM   10  C   UNL     1     -49.458 -56.953  -3.457  1.00  0.00     0.106 A 
HETATM   11  N   UNL     1     -48.565 -56.163  -2.782  1.00  0.00    -0.361 N 
HETATM   12  C   UNL     1     -49.257 -55.124  -2.374  1.00  0.00     0.182 A 
ATOM     13  HN  UNL     1     -47.573 -56.344  -2.628  1.00  0.00     0.166 HD
ENDBRANCH   7   8
ENDBRANCH   5   7
ENDBRANCH   1   5
BRANCH   2  14
HETATM   14  C   UNL     1     -50.490 -50.280  -0.228  1.00  0.00     0.104 C 
HETATM   15  C   UNL     1     -49.385 -49.701  -1.102  1.00  0.00     0.139 C 
HETATM   16  N   UNL     1     -49.029 -48.470  -0.450  1.00  0.00    -0.356 N 
HETATM   17  C   UNL     1     -47.968 -47.631  -0.959  1.00  0.00     0.152 C 
HETATM   18  C   UNL     1     -49.364 -48.490   0.895  1.00  0.00     0.220 C 
HETATM   19  O   UNL     1     -49.028 -47.679   1.742  1.00  0.00    -0.273 OA
HETATM   20  C   UNL     1     -50.181 -49.732   1.164  1.00  0.00     0.118 C 
ENDBRANCH   2  14
TORSDOF 4
ENDMDL
MODEL 7
REMARK VINA RESULT:      -5.1      2.022      2.671
REMARK  4 active torsions:
REMARK  status: ('A' for Active; 'I' for Inactive)
REMARK    1  A    between atoms: C_2  and  C_3 
REMARK    2  A    between atoms: C_2  and  N_10 
REMARK    3  A    between atoms: C_3  and  N_4 
REMARK       I    between atoms: N_10  and  C_11 
REMARK    4  A    between atoms: C_11  and  C_13 
ROOT
HETATM    1  N   UNL     1     -41.651 -47.073  11.644  1.00  0.00    -0.355 N 
HETATM    2  C   UNL     1     -41.978 -48.343  12.068  1.00  0.00     0.224 C 
HETATM    3  O   UNL     1     -43.120 -48.782  11.998  1.00  0.00    -0.273 OA
HETATM    4  H   UNL     1     -40.750 -46.692  11.910  1.00  0.00     0.162 HD
ENDROOT
BRANCH   1   5
HETATM    5  C   UNL     1     -42.668 -46.146  11.112  1.00  0.00     0.098 C 
HETATM    6  C   UNL     1     -42.369 -44.737  11.631  1.00  0.00     0.034 C 
BRANCH   5   7
HETATM    7  C   UNL     1     -42.723 -46.180   9.566  1.00  0.00     0.153 C 
BRANCH   7   8
HETATM    8  N   UNL     1     -43.760 -47.030   9.013  1.00  0.00    -0.350 N 
HETATM    9  C   UNL     1     -45.034 -47.167   9.489  1.00  0.00     0.108 A 
HETATM   10  C   UNL     1     -45.658 -48.002   8.590  1.00  0.00     0.106 A 
HETATM   11  N   UNL     1     -44.798 -48.365   7.587  1.00  0.00    -0.361 N 
HETATM   12  C   UNL     1     -43.667 -47.755   7.860  1.00  0.00     0.182 A 
ATOM     13  HN  UNL     1     -44.995 -48.979   6.797  1.00  0.00     0.166 HD
ENDBRANCH   7   8
ENDBRANCH   5   7
ENDBRANCH   1   5
BRANCH   2  14
HETATM   14  C   UNL     1     -40.804 -49.172  12.553  1.00  0.00     0.104 C 
HETATM   15  C   UNL     1     -39.968 -48.389  13.556  1.00  0.00     0.139 C 
HETATM   16  N   UNL     1     -38.639 -48.910  13.389  1.00  0.00    -0.356 N 
HETATM   17  C   UNL     1     -37.525 -48.385  14.146  1.00  0.00     0.152 C 
HETATM   18  C   UNL     1     -38.467 -49.476  12.134  1.00  0.00     0.220 C 
HETATM   19  O   UNL     1     -37.413 -49.832  11.633  1.00  0.00    -0.273 OA
HETATM   20  C   UNL     1     -39.812 -49.531  11.449  1.00  0.00     0.118 C 
ENDBRANCH   2  14
TORSDOF 4
ENDMDL
MODEL 8
REMARK VINA RESULT:      -5.1      2.599      6.722
REMARK  4 active torsions:
REMARK  status: ('A' for Active; 'I' for Inactive)
REMARK    1  A    between atoms: C_2  and  C_3 
REMARK    2  A    between atoms: C_2  and  N_10 
REMARK    3  A    between atoms: C_3  and  N_4 
REMARK       I    between atoms: N_10  and  C_11 
REMARK    4  A    between atoms: C_11  and  C_13 
ROOT
HETATM    1  N   UNL     1     -42.332 -49.911  11.835  1.00  0.00    -0.355 N 
HETATM    2  C   UNL     1     -41.406 -48.906  12.017  1.00  0.00     0.224 C 
HETATM    3  O   UNL     1     -40.661 -48.872  12.990  1.00  0.00    -0.273 OA
HETATM    4  H   UNL     1     -43.051 -49.782  11.133  1.00  0.00     0.162 HD
ENDROOT
BRANCH   1   5
HETATM    5  C   UNL     1     -42.511 -50.991  12.823  1.00  0.00     0.098 C 
HETATM    6  C   UNL     1     -43.984 -51.041  13.236  1.00  0.00     0.034 C 
BRANCH   5   7
HETATM    7  C   UNL     1     -42.029 -52.355  12.277  1.00  0.00     0.153 C 
BRANCH   7   8
HETATM    8  N   UNL     1     -40.935 -52.955  13.017  1.00  0.00    -0.350 N 
HETATM    9  C   UNL     1     -40.730 -54.291  13.218  1.00  0.00     0.108 A 
HETATM   10  C   UNL     1     -39.531 -54.367  13.890  1.00  0.00     0.106 A 
HETATM   11  N   UNL     1     -39.010 -53.117  14.094  1.00  0.00    -0.361 N 
HETATM   12  C   UNL     1     -39.869 -52.286  13.547  1.00  0.00     0.182 A 
ATOM     13  HN  UNL     1     -38.140 -52.880  14.571  1.00  0.00     0.166 HD
ENDBRANCH   7   8
ENDBRANCH   5   7
ENDBRANCH   1   5
BRANCH   2  14
HETATM   14  C   UNL     1     -41.332 -47.898  10.887  1.00  0.00     0.104 C 
HETATM   15  C   UNL     1     -40.250 -46.861  11.157  1.00  0.00     0.139 C 
HETATM   16  N   UNL     1     -40.723 -45.678  10.490  1.00  0.00    -0.356 N 
HETATM   17  C   UNL     1     -39.983 -44.438  10.547  1.00  0.00     0.152 C 
HETATM   18  C   UNL     1     -42.100 -45.702  10.324  1.00  0.00     0.220 C 
HETATM   19  O   UNL     1     -42.806 -44.774   9.965  1.00  0.00    -0.273 OA
HETATM   20  C   UNL     1     -42.603 -47.068  10.723  1.00  0.00     0.118 C 
ENDBRANCH   2  14
TORSDOF 4
ENDMDL
MODEL 9
REMARK VINA RESULT:      -5.1      3.530      5.155
REMARK  4 active torsions:
REMARK  status: ('A' for Active; 'I' for Inactive)
REMARK    1  A    between atoms: C_2  and  C_3 
REMARK    2  A    between atoms: C_2  and  N_10 
REMARK    3  A    between atoms: C_3  and  N_4 
REMARK       I    between atoms: N_10  and  C_11 
REMARK    4  A    between atoms: C_11  and  C_13 
ROOT
HETATM    1  N   UNL     1     -40.412 -51.395  12.873  1.00  0.00    -0.355 N 
HETATM    2  C   UNL     1     -40.118 -52.691  13.242  1.00  0.00     0.224 C 
HETATM    3  O   UNL     1     -39.041 -52.999  13.740  1.00  0.00    -0.273 OA
HETATM    4  H   UNL     1     -41.223 -51.234  12.286  1.00  0.00     0.162 HD
ENDROOT
BRANCH   1   5
HETATM    5  C   UNL     1     -39.432 -50.304  13.022  1.00  0.00     0.098 C 
HETATM    6  C   UNL     1     -38.519 -50.291  11.793  1.00  0.00     0.034 C 
BRANCH   5   7
HETATM    7  C   UNL     1     -40.124 -48.935  13.227  1.00  0.00     0.153 C 
BRANCH   7   8
HETATM    8  N   UNL     1     -40.649 -48.332  12.016  1.00  0.00    -0.350 N 
HETATM    9  C   UNL     1     -41.786 -48.702  11.355  1.00  0.00     0.108 A 
HETATM   10  C   UNL     1     -41.913 -47.789  10.332  1.00  0.00     0.106 A 
HETATM   11  N   UNL     1     -40.887 -46.881  10.363  1.00  0.00    -0.361 N 
HETATM   12  C   UNL     1     -40.149 -47.223  11.395  1.00  0.00     0.182 A 
ATOM     13  HN  UNL     1     -40.731 -46.104   9.722  1.00  0.00     0.166 HD
ENDBRANCH   7   8
ENDBRANCH   5   7
ENDBRANCH   1   5
BRANCH   2  14
HETATM   14  C   UNL     1     -41.253 -53.678  13.052  1.00  0.00     0.104 C 
HETATM   15  C   UNL     1     -42.518 -52.965  12.595  1.00  0.00     0.139 C 
HETATM   16  N   UNL     1     -43.586 -53.774  13.117  1.00  0.00    -0.356 N 
HETATM   17  C   UNL     1     -44.970 -53.402  12.931  1.00  0.00     0.152 C 
HETATM   18  C   UNL     1     -43.171 -54.524  14.208  1.00  0.00     0.220 C 
HETATM   19  O   UNL     1     -43.883 -55.158  14.969  1.00  0.00    -0.273 OA
HETATM   20  C   UNL     1     -41.673 -54.382  14.340  1.00  0.00     0.118 C 
ENDBRANCH   2  14
TORSDOF 4
ENDMDL
