MODEL 1
REMARK VINA RESULT:      -5.5      0.000      0.000
REMARK  6 active torsions:
REMARK  status: ('A' for Active; 'I' for Inactive)
REMARK       I    between atoms: N_2  and  C_3 
REMARK    1  A    between atoms: C_3  and  C_5 
REMARK    2  A    between atoms: C_5  and  S_7 
REMARK    3  A    between atoms: S_7  and  C_8 
REMARK    4  A    between atoms: N_17  and  C_18 
REMARK    5  A    between atoms: C_18  and  C_19 
REMARK    6  A    between atoms: C_19  and  O_20 
ROOT
HETATM    1  C   UNL     1     -41.508 -49.140  11.721  1.00  0.00     0.148 A 
HETATM    2  N   UNL     1     -40.396 -48.902  11.072  1.00  0.00    -0.335 N 
ATOM      3  HN  UNL     1     -40.262 -48.262  10.289  1.00  0.00     0.168 HD
HETATM    4  C   UNL     1     -39.453 -49.690  11.665  1.00  0.00     0.061 A 
HETATM    5  C   UNL     1     -38.083 -49.787  11.380  1.00  0.00     0.032 A 
HETATM    6  C   UNL     1     -37.291 -50.641  12.155  1.00  0.00     0.002 A 
HETATM    7  C   UNL     1     -37.858 -51.393  13.182  1.00  0.00     0.002 A 
HETATM    8  C   UNL     1     -39.231 -51.324  13.469  1.00  0.00     0.032 A 
HETATM    9  C   UNL     1     -40.007 -50.457  12.691  1.00  0.00     0.063 A 
HETATM   10  N   UNL     1     -41.347 -50.103  12.690  1.00  0.00    -0.324 N 
ENDROOT
BRANCH   1  11
HETATM   11  S   UNL     1     -42.967 -48.248  11.458  1.00  0.00    -0.080 SA
BRANCH  11  12
HETATM   12  C   UNL     1     -42.596 -47.361   9.891  1.00  0.00     0.143 C 
HETATM   13  C   UNL     1     -42.426 -45.853  10.045  1.00  0.00     0.031 C 
BRANCH  12  14
HETATM   14  C   UNL     1     -43.736 -47.646   8.907  1.00  0.00     0.231 C 
HETATM   15  N   UNL     1     -44.979 -47.812   9.487  1.00  0.00    -0.364 N 
HETATM   16  C   UNL     1     -46.148 -48.106   8.699  1.00  0.00     0.149 C 
HETATM   17  H   UNL     1     -45.017 -47.969  10.488  1.00  0.00     0.161 HD
HETATM   18  O   UNL     1     -43.554 -47.690   7.691  1.00  0.00    -0.272 OA
ENDBRANCH  12  14
ENDBRANCH  11  12
ENDBRANCH   1  11
BRANCH  10  19
HETATM   19  C   UNL     1     -42.365 -50.628  13.583  1.00  0.00     0.157 C 
BRANCH  19  20
HETATM   20  C   UNL     1     -43.275 -51.657  12.915  1.00  0.00     0.187 C 
BRANCH  20  21
HETATM   21  O   UNL     1     -42.484 -52.691  12.323  1.00  0.00    -0.394 OA
HETATM   22  C   UNL     1     -42.170 -53.701  13.279  1.00  0.00     0.201 C 
ENDBRANCH  20  21
ENDBRANCH  19  20
ENDBRANCH  10  19
TORSDOF 6
ENDMDL
MODEL 2
REMARK VINA RESULT:      -5.4      2.579      4.965
REMARK  6 active torsions:
REMARK  status: ('A' for Active; 'I' for Inactive)
REMARK       I    between atoms: N_2  and  C_3 
REMARK    1  A    between atoms: C_3  and  C_5 
REMARK    2  A    between atoms: C_5  and  S_7 
REMARK    3  A    between atoms: S_7  and  C_8 
REMARK    4  A    between atoms: N_17  and  C_18 
REMARK    5  A    between atoms: C_18  and  C_19 
REMARK    6  A    between atoms: C_19  and  O_20 
ROOT
HETATM    1  C   UNL     1     -41.368 -51.057  13.528  1.00  0.00     0.148 A 
HETATM    2  N   UNL     1     -42.397 -50.388  13.987  1.00  0.00    -0.335 N 
ATOM      3  HN  UNL     1     -42.381 -49.516  14.515  1.00  0.00     0.168 HD
HETATM    4  C   UNL     1     -43.494 -51.106  13.610  1.00  0.00     0.061 A 
HETATM    5  C   UNL     1     -44.851 -50.810  13.813  1.00  0.00     0.032 A 
HETATM    6  C   UNL     1     -45.817 -51.680  13.296  1.00  0.00     0.002 A 
HETATM    7  C   UNL     1     -45.436 -52.828  12.604  1.00  0.00     0.002 A 
HETATM    8  C   UNL     1     -44.084 -53.151  12.407  1.00  0.00     0.032 A 
HETATM    9  C   UNL     1     -43.131 -52.265  12.922  1.00  0.00     0.063 A 
HETATM   10  N   UNL     1     -41.745 -52.224  12.905  1.00  0.00    -0.324 N 
ENDROOT
BRANCH   1  11
HETATM   11  S   UNL     1     -39.746 -50.461  13.596  1.00  0.00    -0.080 SA
BRANCH  11  12
HETATM   12  C   UNL     1     -39.441 -49.984  11.846  1.00  0.00     0.143 C 
HETATM   13  C   UNL     1     -37.992 -49.626  11.534  1.00  0.00     0.031 C 
BRANCH  12  14
HETATM   14  C   UNL     1     -40.341 -48.786  11.522  1.00  0.00     0.231 C 
HETATM   15  N   UNL     1     -41.224 -48.985  10.477  1.00  0.00    -0.364 N 
HETATM   16  C   UNL     1     -42.122 -47.949  10.038  1.00  0.00     0.149 C 
HETATM   17  H   UNL     1     -41.062 -49.779   9.867  1.00  0.00     0.161 HD
HETATM   18  O   UNL     1     -40.296 -47.741  12.169  1.00  0.00    -0.272 OA
ENDBRANCH  12  14
ENDBRANCH  11  12
ENDBRANCH   1  11
BRANCH  10  19
HETATM   19  C   UNL     1     -40.873 -53.215  12.300  1.00  0.00     0.157 C 
BRANCH  19  20
HETATM   20  C   UNL     1     -40.467 -54.327  13.266  1.00  0.00     0.187 C 
BRANCH  20  21
HETATM   21  O   UNL     1     -39.103 -54.155  13.657  1.00  0.00    -0.394 OA
HETATM   22  C   UNL     1     -39.001 -53.945  15.064  1.00  0.00     0.201 C 
ENDBRANCH  20  21
ENDBRANCH  19  20
ENDBRANCH  10  19
TORSDOF 6
ENDMDL
MODEL 3
REMARK VINA RESULT:      -5.3      3.238      4.249
REMARK  6 active torsions:
REMARK  status: ('A' for Active; 'I' for Inactive)
REMARK       I    between atoms: N_2  and  C_3 
REMARK    1  A    between atoms: C_3  and  C_5 
REMARK    2  A    between atoms: C_5  and  S_7 
REMARK    3  A    between atoms: S_7  and  C_8 
REMARK    4  A    between atoms: N_17  and  C_18 
REMARK    5  A    between atoms: C_18  and  C_19 
REMARK    6  A    between atoms: C_19  and  O_20 
ROOT
HETATM    1  C   UNL     1     -40.142 -47.045  11.679  1.00  0.00     0.148 A 
HETATM    2  N   UNL     1     -39.685 -48.078  11.016  1.00  0.00    -0.335 N 
ATOM      3  HN  UNL     1     -39.811 -48.281  10.024  1.00  0.00     0.168 HD
HETATM    4  C   UNL     1     -39.003 -48.825  11.932  1.00  0.00     0.061 A 
HETATM    5  C   UNL     1     -38.285 -50.014  11.737  1.00  0.00     0.032 A 
HETATM    6  C   UNL     1     -37.621 -50.590  12.826  1.00  0.00     0.002 A 
HETATM    7  C   UNL     1     -37.686 -49.997  14.086  1.00  0.00     0.002 A 
HETATM    8  C   UNL     1     -38.416 -48.818  14.305  1.00  0.00     0.032 A 
HETATM    9  C   UNL     1     -39.065 -48.250  13.202  1.00  0.00     0.063 A 
HETATM   10  N   UNL     1     -39.832 -47.110  13.018  1.00  0.00    -0.324 N 
ENDROOT
BRANCH   1  11
HETATM   11  S   UNL     1     -40.930 -45.706  10.919  1.00  0.00    -0.080 SA
BRANCH  11  12
HETATM   12  C   UNL     1     -42.685 -46.254  10.904  1.00  0.00     0.143 C 
HETATM   13  C   UNL     1     -42.941 -47.571  11.630  1.00  0.00     0.031 C 
BRANCH  12  14
HETATM   14  C   UNL     1     -43.125 -46.386   9.442  1.00  0.00     0.231 C 
HETATM   15  N   UNL     1     -42.991 -47.652   8.904  1.00  0.00    -0.364 N 
HETATM   16  C   UNL     1     -43.342 -47.934   7.537  1.00  0.00     0.149 C 
HETATM   17  H   UNL     1     -42.416 -48.320   9.405  1.00  0.00     0.161 HD
HETATM   18  O   UNL     1     -43.591 -45.438   8.811  1.00  0.00    -0.272 OA
ENDBRANCH  12  14
ENDBRANCH  11  12
ENDBRANCH   1  11
BRANCH  10  19
HETATM   19  C   UNL     1     -40.193 -46.153  14.049  1.00  0.00     0.157 C 
BRANCH  19  20
HETATM   20  C   UNL     1     -39.123 -45.087  14.280  1.00  0.00     0.187 C 
BRANCH  20  21
HETATM   21  O   UNL     1     -39.716 -43.923  14.859  1.00  0.00    -0.394 OA
HETATM   22  C   UNL     1     -40.930 -43.584  14.192  1.00  0.00     0.201 C 
ENDBRANCH  20  21
ENDBRANCH  19  20
ENDBRANCH  10  19
TORSDOF 6
ENDMDL
MODEL 4
REMARK VINA RESULT:      -5.3      2.048      3.883
REMARK  6 active torsions:
REMARK  status: ('A' for Active; 'I' for Inactive)
REMARK       I    between atoms: N_2  and  C_3 
REMARK    1  A    between atoms: C_3  and  C_5 
REMARK    2  A    between atoms: C_5  and  S_7 
REMARK    3  A    between atoms: S_7  and  C_8 
REMARK    4  A    between atoms: N_17  and  C_18 
REMARK    5  A    between atoms: C_18  and  C_19 
REMARK    6  A    between atoms: C_19  and  O_20 
ROOT
HETATM    1  C   UNL     1     -41.333 -50.540  12.157  1.00  0.00     0.148 A 
HETATM    2  N   UNL     1     -42.348 -51.325  11.896  1.00  0.00    -0.335 N 
ATOM      3  HN  UNL     1     -43.033 -51.222  11.147  1.00  0.00     0.168 HD
HETATM    4  C   UNL     1     -42.296 -52.310  12.839  1.00  0.00     0.061 A 
HETATM    5  C   UNL     1     -43.129 -53.429  12.987  1.00  0.00     0.032 A 
HETATM    6  C   UNL     1     -42.859 -54.341  14.013  1.00  0.00     0.002 A 
HETATM    7  C   UNL     1     -41.789 -54.132  14.881  1.00  0.00     0.002 A 
HETATM    8  C   UNL     1     -40.956 -53.008  14.760  1.00  0.00     0.032 A 
HETATM    9  C   UNL     1     -41.234 -52.112  13.722  1.00  0.00     0.063 A 
HETATM   10  N   UNL     1     -40.640 -50.942  13.275  1.00  0.00    -0.324 N 
ENDROOT
BRANCH   1  11
HETATM   11  S   UNL     1     -40.860 -49.231  11.129  1.00  0.00    -0.080 SA
BRANCH  11  12
HETATM   12  C   UNL     1     -42.071 -47.926  11.592  1.00  0.00     0.143 C 
HETATM   13  C   UNL     1     -42.812 -48.188  12.899  1.00  0.00     0.031 C 
BRANCH  12  14
HETATM   14  C   UNL     1     -43.086 -47.799  10.450  1.00  0.00     0.231 C 
HETATM   15  N   UNL     1     -42.553 -47.919   9.180  1.00  0.00    -0.364 N 
HETATM   16  C   UNL     1     -43.374 -47.804   8.003  1.00  0.00     0.149 C 
HETATM   17  H   UNL     1     -41.548 -47.845   9.080  1.00  0.00     0.161 HD
HETATM   18  O   UNL     1     -44.287 -47.634  10.658  1.00  0.00    -0.272 OA
ENDBRANCH  12  14
ENDBRANCH  11  12
ENDBRANCH   1  11
BRANCH  10  19
HETATM   19  C   UNL     1     -39.478 -50.300  13.864  1.00  0.00     0.157 C 
BRANCH  19  20
HETATM   20  C   UNL     1     -38.191 -51.103  13.681  1.00  0.00     0.187 C 
BRANCH  20  21
HETATM   21  O   UNL     1     -38.009 -51.418  12.298  1.00  0.00    -0.394 OA
HETATM   22  C   UNL     1     -37.389 -50.335  11.607  1.00  0.00     0.201 C 
ENDBRANCH  20  21
ENDBRANCH  19  20
ENDBRANCH  10  19
TORSDOF 6
ENDMDL
MODEL 5
REMARK VINA RESULT:      -5.3      1.944      3.973
REMARK  6 active torsions:
REMARK  status: ('A' for Active; 'I' for Inactive)
REMARK       I    between atoms: N_2  and  C_3 
REMARK    1  A    between atoms: C_3  and  C_5 
REMARK    2  A    between atoms: C_5  and  S_7 
REMARK    3  A    between atoms: S_7  and  C_8 
REMARK    4  A    between atoms: N_17  and  C_18 
REMARK    5  A    between atoms: C_18  and  C_19 
REMARK    6  A    between atoms: C_19  and  O_20 
ROOT
HETATM    1  C   UNL     1     -42.569 -49.683  13.099  1.00  0.00     0.148 A 
HETATM    2  N   UNL     1     -43.735 -50.245  12.898  1.00  0.00    -0.335 N 
ATOM      3  HN  UNL     1     -44.621 -49.778  12.704  1.00  0.00     0.168 HD
HETATM    4  C   UNL     1     -43.514 -51.587  13.005  1.00  0.00     0.061 A 
HETATM    5  C   UNL     1     -44.421 -52.644  12.835  1.00  0.00     0.032 A 
HETATM    6  C   UNL     1     -43.958 -53.958  12.952  1.00  0.00     0.002 A 
HETATM    7  C   UNL     1     -42.619 -54.211  13.245  1.00  0.00     0.002 A 
HETATM    8  C   UNL     1     -41.700 -53.168  13.437  1.00  0.00     0.032 A 
HETATM    9  C   UNL     1     -42.178 -51.859  13.306  1.00  0.00     0.063 A 
HETATM   10  N   UNL     1     -41.591 -50.606  13.389  1.00  0.00    -0.324 N 
ENDROOT
BRANCH   1  11
HETATM   11  S   UNL     1     -42.288 -47.988  12.893  1.00  0.00    -0.080 SA
BRANCH  11  12
HETATM   12  C   UNL     1     -41.675 -47.911  11.161  1.00  0.00     0.143 C 
HETATM   13  C   UNL     1     -40.741 -46.739  10.875  1.00  0.00     0.031 C 
BRANCH  12  14
HETATM   14  C   UNL     1     -42.893 -47.828  10.234  1.00  0.00     0.231 C 
HETATM   15  N   UNL     1     -42.606 -47.909   8.885  1.00  0.00    -0.364 N 
HETATM   16  C   UNL     1     -43.640 -47.827   7.886  1.00  0.00     0.149 C 
HETATM   17  H   UNL     1     -41.642 -47.781   8.598  1.00  0.00     0.161 HD
HETATM   18  O   UNL     1     -44.039 -47.728  10.669  1.00  0.00    -0.272 OA
ENDBRANCH  12  14
ENDBRANCH  11  12
ENDBRANCH   1  11
BRANCH  10  19
HETATM   19  C   UNL     1     -40.195 -50.340  13.685  1.00  0.00     0.157 C 
BRANCH  19  20
HETATM   20  C   UNL     1     -39.249 -50.796  12.575  1.00  0.00     0.187 C 
BRANCH  20  21
HETATM   21  O   UNL     1     -38.813 -49.666  11.816  1.00  0.00    -0.394 OA
HETATM   22  C   UNL     1     -37.468 -49.838  11.374  1.00  0.00     0.201 C 
ENDBRANCH  20  21
ENDBRANCH  19  20
ENDBRANCH  10  19
TORSDOF 6
ENDMDL
MODEL 6
REMARK VINA RESULT:      -5.2      3.505      6.192
REMARK  6 active torsions:
REMARK  status: ('A' for Active; 'I' for Inactive)
REMARK       I    between atoms: N_2  and  C_3 
REMARK    1  A    between atoms: C_3  and  C_5 
REMARK    2  A    between atoms: C_5  and  S_7 
REMARK    3  A    between atoms: S_7  and  C_8 
REMARK    4  A    between atoms: N_17  and  C_18 
REMARK    5  A    between atoms: C_18  and  C_19 
REMARK    6  A    between atoms: C_19  and  O_20 
ROOT
HETATM    1  C   UNL     1     -42.709 -52.221  12.877  1.00  0.00     0.148 A 
HETATM    2  N   UNL     1     -43.768 -51.466  12.714  1.00  0.00    -0.335 N 
ATOM      3  HN  UNL     1     -43.876 -50.683  12.070  1.00  0.00     0.168 HD
HETATM    4  C   UNL     1     -44.696 -51.951  13.590  1.00  0.00     0.061 A 
HETATM    5  C   UNL     1     -46.018 -51.529  13.791  1.00  0.00     0.032 A 
HETATM    6  C   UNL     1     -46.810 -52.207  14.724  1.00  0.00     0.002 A 
HETATM    7  C   UNL     1     -46.286 -53.275  15.450  1.00  0.00     0.002 A 
HETATM    8  C   UNL     1     -44.960 -53.700  15.277  1.00  0.00     0.032 A 
HETATM    9  C   UNL     1     -44.185 -53.017  14.332  1.00  0.00     0.063 A 
HETATM   10  N   UNL     1     -42.885 -53.156  13.870  1.00  0.00    -0.324 N 
ENDROOT
BRANCH   1  11
HETATM   11  S   UNL     1     -41.310 -52.119  11.863  1.00  0.00    -0.080 SA
BRANCH  11  12
HETATM   12  C   UNL     1     -40.438 -50.659  12.562  1.00  0.00     0.143 C 
HETATM   13  C   UNL     1     -40.950 -49.315  12.053  1.00  0.00     0.031 C 
BRANCH  12  14
HETATM   14  C   UNL     1     -38.948 -50.795  12.225  1.00  0.00     0.231 C 
HETATM   15  N   UNL     1     -38.516 -50.019  11.167  1.00  0.00    -0.364 N 
HETATM   16  C   UNL     1     -37.149 -50.050  10.716  1.00  0.00     0.149 C 
HETATM   17  H   UNL     1     -39.219 -49.615  10.558  1.00  0.00     0.161 HD
HETATM   18  O   UNL     1     -38.196 -51.520  12.874  1.00  0.00    -0.272 OA
ENDBRANCH  12  14
ENDBRANCH  11  12
ENDBRANCH   1  11
BRANCH  10  19
HETATM   19  C   UNL     1     -41.920 -54.138  14.330  1.00  0.00     0.157 C 
BRANCH  19  20
HETATM   20  C   UNL     1     -41.056 -53.635  15.485  1.00  0.00     0.187 C 
BRANCH  20  21
HETATM   21  O   UNL     1     -39.678 -53.650  15.102  1.00  0.00    -0.394 OA
HETATM   22  C   UNL     1     -39.463 -54.545  14.013  1.00  0.00     0.201 C 
ENDBRANCH  20  21
ENDBRANCH  19  20
ENDBRANCH  10  19
TORSDOF 6
ENDMDL
MODEL 7
REMARK VINA RESULT:      -5.2      2.692      5.345
REMARK  6 active torsions:
REMARK  status: ('A' for Active; 'I' for Inactive)
REMARK       I    between atoms: N_2  and  C_3 
REMARK    1  A    between atoms: C_3  and  C_5 
REMARK    2  A    between atoms: C_5  and  S_7 
REMARK    3  A    between atoms: S_7  and  C_8 
REMARK    4  A    between atoms: N_17  and  C_18 
REMARK    5  A    between atoms: C_18  and  C_19 
REMARK    6  A    between atoms: C_19  and  O_20 
ROOT
HETATM    1  C   UNL     1     -42.950 -50.993  14.351  1.00  0.00     0.148 A 
HETATM    2  N   UNL     1     -44.151 -50.471  14.405  1.00  0.00    -0.335 N 
ATOM      3  HN  UNL     1     -44.399 -49.484  14.345  1.00  0.00     0.168 HD
HETATM    4  C   UNL     1     -44.999 -51.529  14.557  1.00  0.00     0.061 A 
HETATM    5  C   UNL     1     -46.400 -51.529  14.628  1.00  0.00     0.032 A 
HETATM    6  C   UNL     1     -47.071 -52.751  14.744  1.00  0.00     0.002 A 
HETATM    7  C   UNL     1     -46.356 -53.946  14.803  1.00  0.00     0.002 A 
HETATM    8  C   UNL     1     -44.954 -53.965  14.754  1.00  0.00     0.032 A 
HETATM    9  C   UNL     1     -44.299 -52.735  14.627  1.00  0.00     0.063 A 
HETATM   10  N   UNL     1     -42.969 -52.358  14.518  1.00  0.00    -0.324 N 
ENDROOT
BRANCH   1  11
HETATM   11  S   UNL     1     -41.533 -50.070  13.985  1.00  0.00    -0.080 SA
BRANCH  11  12
HETATM   12  C   UNL     1     -41.519 -50.104  12.146  1.00  0.00     0.143 C 
HETATM   13  C   UNL     1     -40.126 -50.097  11.526  1.00  0.00     0.031 C 
BRANCH  12  14
HETATM   14  C   UNL     1     -42.304 -48.885  11.647  1.00  0.00     0.231 C 
HETATM   15  N   UNL     1     -42.138 -48.595  10.306  1.00  0.00    -0.364 N 
HETATM   16  C   UNL     1     -42.793 -47.470   9.691  1.00  0.00     0.149 C 
HETATM   17  H   UNL     1     -41.364 -49.032   9.819  1.00  0.00     0.161 HD
HETATM   18  O   UNL     1     -43.047 -48.240  12.384  1.00  0.00    -0.272 OA
ENDBRANCH  12  14
ENDBRANCH  11  12
ENDBRANCH   1  11
BRANCH  10  19
HETATM   19  C   UNL     1     -41.828 -53.255  14.534  1.00  0.00     0.157 C 
BRANCH  19  20
HETATM   20  C   UNL     1     -41.451 -53.774  13.147  1.00  0.00     0.187 C 
BRANCH  20  21
HETATM   21  O   UNL     1     -40.089 -53.449  12.861  1.00  0.00    -0.394 OA
HETATM   22  C   UNL     1     -39.360 -53.208  14.064  1.00  0.00     0.201 C 
ENDBRANCH  20  21
ENDBRANCH  19  20
ENDBRANCH  10  19
TORSDOF 6
ENDMDL
MODEL 8
REMARK VINA RESULT:      -5.2      3.329      5.531
REMARK  6 active torsions:
REMARK  status: ('A' for Active; 'I' for Inactive)
REMARK       I    between atoms: N_2  and  C_3 
REMARK    1  A    between atoms: C_3  and  C_5 
REMARK    2  A    between atoms: C_5  and  S_7 
REMARK    3  A    between atoms: S_7  and  C_8 
REMARK    4  A    between atoms: N_17  and  C_18 
REMARK    5  A    between atoms: C_18  and  C_19 
REMARK    6  A    between atoms: C_19  and  O_20 
ROOT
HETATM    1  C   UNL     1     -42.831 -53.685  13.560  1.00  0.00     0.148 A 
HETATM    2  N   UNL     1     -42.983 -54.359  14.673  1.00  0.00    -0.335 N 
ATOM      3  HN  UNL     1     -43.860 -54.591  15.140  1.00  0.00     0.168 HD
HETATM    4  C   UNL     1     -41.721 -54.686  15.075  1.00  0.00     0.061 A 
HETATM    5  C   UNL     1     -41.322 -55.443  16.187  1.00  0.00     0.032 A 
HETATM    6  C   UNL     1     -39.958 -55.690  16.382  1.00  0.00     0.002 A 
HETATM    7  C   UNL     1     -39.014 -55.180  15.493  1.00  0.00     0.002 A 
HETATM    8  C   UNL     1     -39.393 -54.405  14.386  1.00  0.00     0.032 A 
HETATM    9  C   UNL     1     -40.761 -54.176  14.200  1.00  0.00     0.063 A 
HETATM   10  N   UNL     1     -41.505 -53.507  13.240  1.00  0.00    -0.324 N 
ENDROOT
BRANCH   1  11
HETATM   11  S   UNL     1     -44.155 -53.196  12.560  1.00  0.00    -0.080 SA
BRANCH  11  12
HETATM   12  C   UNL     1     -45.029 -51.996  13.645  1.00  0.00     0.143 C 
HETATM   13  C   UNL     1     -46.419 -51.600  13.156  1.00  0.00     0.031 C 
BRANCH  12  14
HETATM   14  C   UNL     1     -44.155 -50.742  13.761  1.00  0.00     0.231 C 
HETATM   15  N   UNL     1     -43.854 -50.128  12.560  1.00  0.00    -0.364 N 
HETATM   16  C   UNL     1     -43.026 -48.951  12.500  1.00  0.00     0.149 C 
HETATM   17  H   UNL     1     -44.017 -50.651  11.707  1.00  0.00     0.161 HD
HETATM   18  O   UNL     1     -43.779 -50.305  14.848  1.00  0.00    -0.272 OA
ENDBRANCH  12  14
ENDBRANCH  11  12
ENDBRANCH   1  11
BRANCH  10  19
HETATM   19  C   UNL     1     -40.968 -52.796  12.093  1.00  0.00     0.157 C 
BRANCH  19  20
HETATM   20  C   UNL     1     -40.377 -51.434  12.455  1.00  0.00     0.187 C 
BRANCH  20  21
HETATM   21  O   UNL     1     -38.949 -51.500  12.418  1.00  0.00    -0.394 OA
HETATM   22  C   UNL     1     -38.395 -50.261  11.980  1.00  0.00     0.201 C 
ENDBRANCH  20  21
ENDBRANCH  19  20
ENDBRANCH  10  19
TORSDOF 6
ENDMDL
MODEL 9
REMARK VINA RESULT:      -5.2      2.569      4.961
REMARK  6 active torsions:
REMARK  status: ('A' for Active; 'I' for Inactive)
REMARK       I    between atoms: N_2  and  C_3 
REMARK    1  A    between atoms: C_3  and  C_5 
REMARK    2  A    between atoms: C_5  and  S_7 
REMARK    3  A    between atoms: S_7  and  C_8 
REMARK    4  A    between atoms: N_17  and  C_18 
REMARK    5  A    between atoms: C_18  and  C_19 
REMARK    6  A    between atoms: C_19  and  O_20 
ROOT
HETATM    1  C   UNL     1     -42.594 -50.425  12.442  1.00  0.00     0.148 A 
HETATM    2  N   UNL     1     -43.783 -50.065  12.857  1.00  0.00    -0.335 N 
ATOM      3  HN  UNL     1     -44.139 -49.115  12.964  1.00  0.00     0.168 HD
HETATM    4  C   UNL     1     -44.445 -51.230  13.115  1.00  0.00     0.061 A 
HETATM    5  C   UNL     1     -45.768 -51.412  13.546  1.00  0.00     0.032 A 
HETATM    6  C   UNL     1     -46.253 -52.714  13.707  1.00  0.00     0.002 A 
HETATM    7  C   UNL     1     -45.429 -53.810  13.458  1.00  0.00     0.002 A 
HETATM    8  C   UNL     1     -44.098 -53.648  13.046  1.00  0.00     0.032 A 
HETATM    9  C   UNL     1     -43.632 -52.339  12.879  1.00  0.00     0.063 A 
HETATM   10  N   UNL     1     -42.427 -51.790  12.468  1.00  0.00    -0.324 N 
ENDROOT
BRANCH   1  11
HETATM   11  S   UNL     1     -41.431 -49.307  11.817  1.00  0.00    -0.080 SA
BRANCH  11  12
HETATM   12  C   UNL     1     -42.456 -47.807  11.536  1.00  0.00     0.143 C 
HETATM   13  C   UNL     1     -43.252 -47.822  10.234  1.00  0.00     0.031 C 
BRANCH  12  14
HETATM   14  C   UNL     1     -41.523 -46.590  11.546  1.00  0.00     0.231 C 
HETATM   15  N   UNL     1     -40.655 -46.511  10.474  1.00  0.00    -0.364 N 
HETATM   16  C   UNL     1     -39.703 -45.438  10.350  1.00  0.00     0.149 C 
HETATM   17  H   UNL     1     -40.528 -47.341   9.906  1.00  0.00     0.161 HD
HETATM   18  O   UNL     1     -41.573 -45.737  12.431  1.00  0.00    -0.272 OA
ENDBRANCH  12  14
ENDBRANCH  11  12
ENDBRANCH   1  11
BRANCH  10  19
HETATM   19  C   UNL     1     -41.236 -52.535  12.098  1.00  0.00     0.157 C 
BRANCH  19  20
HETATM   20  C   UNL     1     -40.250 -52.702  13.253  1.00  0.00     0.187 C 
BRANCH  20  21
HETATM   21  O   UNL     1     -39.043 -51.991  12.966  1.00  0.00    -0.394 OA
HETATM   22  C   UNL     1     -38.598 -51.263  14.109  1.00  0.00     0.201 C 
ENDBRANCH  20  21
ENDBRANCH  19  20
ENDBRANCH  10  19
TORSDOF 6
ENDMDL
