MODEL 1
REMARK VINA RESULT:      -5.8      0.000      0.000
REMARK  4 active torsions:
REMARK  status: ('A' for Active; 'I' for Inactive)
REMARK    1  A    between atoms: C_7  and  C_8 
REMARK    2  A    between atoms: C_8  and  C_9 
REMARK       I    between atoms: C_9  and  N_11 
REMARK    3  A    between atoms: N_11  and  C_12 
REMARK    4  A    between atoms: C_12  and  C_13 
ROOT
HETATM    1  C   UNL     1     -40.781 -51.906  12.132  1.00  0.00     0.089 C 
HETATM    2  C   UNL     1     -41.897 -52.749  12.678  1.00  0.00     0.080 A 
HETATM    3  N   UNL     1     -41.697 -53.512  13.698  1.00  0.00    -0.349 N 
ATOM      4  HN  UNL     1     -40.787 -53.543  14.159  1.00  0.00     0.167 HD
HETATM    5  C   UNL     1     -42.746 -54.284  14.147  1.00  0.00     0.018 A 
HETATM    6  C   UNL     1     -42.383 -55.167  15.312  1.00  0.00     0.069 C 
HETATM    7  C   UNL     1     -43.979 -54.266  13.601  1.00  0.00     0.041 A 
HETATM    8  C   UNL     1     -44.193 -53.339  12.462  1.00  0.00     0.255 A 
HETATM    9  O   UNL     1     -45.293 -53.204  11.935  1.00  0.00    -0.268 OA
HETATM   10  N   UNL     1     -43.093 -52.653  12.041  1.00  0.00    -0.313 N 
HETATM   11  H   UNL     1     -43.222 -52.030  11.257  1.00  0.00     0.170 HD
ENDROOT
BRANCH   7  12
HETATM   12  C   UNL     1     -45.146 -55.134  13.965  1.00  0.00     0.149 C 
BRANCH  12  13
HETATM   13  C   UNL     1     -46.142 -54.392  14.842  1.00  0.00     0.222 C 
HETATM   14  O   UNL     1     -47.354 -54.551  14.737  1.00  0.00    -0.273 OA
HETATM   15  N   UNL     1     -45.601 -53.509  15.747  1.00  0.00    -0.352 N 
HETATM   16  H   UNL     1     -44.599 -53.516  15.919  1.00  0.00     0.162 HD
BRANCH  15  17
HETATM   17  C   UNL     1     -46.480 -52.667  16.564  1.00  0.00     0.239 C 
BRANCH  17  18
HETATM   18  C   UNL     1     -46.764 -51.250  16.027  1.00  0.00     0.403 C 
HETATM   19  F   UNL     1     -45.686 -50.439  16.094  1.00  0.00    -0.169 F 
HETATM   20  F   UNL     1     -47.199 -51.270  14.748  1.00  0.00    -0.169 F 
HETATM   21  F   UNL     1     -47.741 -50.663  16.766  1.00  0.00    -0.169 F 
ENDBRANCH  17  18
ENDBRANCH  15  17
ENDBRANCH  12  13
ENDBRANCH   7  12
TORSDOF 4
ENDMDL
MODEL 2
REMARK VINA RESULT:      -5.7      2.882      5.477
REMARK  4 active torsions:
REMARK  status: ('A' for Active; 'I' for Inactive)
REMARK    1  A    between atoms: C_7  and  C_8 
REMARK    2  A    between atoms: C_8  and  C_9 
REMARK       I    between atoms: C_9  and  N_11 
REMARK    3  A    between atoms: N_11  and  C_12 
REMARK    4  A    between atoms: C_12  and  C_13 
ROOT
HETATM    1  C   UNL     1     -47.935 -50.941  17.017  1.00  0.00     0.089 C 
HETATM    2  C   UNL     1     -47.157 -51.724  15.999  1.00  0.00     0.080 A 
HETATM    3  N   UNL     1     -47.117 -51.335  14.771  1.00  0.00    -0.349 N 
ATOM      4  HN  UNL     1     -47.597 -50.485  14.474  1.00  0.00     0.167 HD
HETATM    5  C   UNL     1     -46.409 -52.100  13.870  1.00  0.00     0.018 A 
HETATM    6  C   UNL     1     -46.471 -51.575  12.460  1.00  0.00     0.069 C 
HETATM    7  C   UNL     1     -45.729 -53.217  14.205  1.00  0.00     0.041 A 
HETATM    8  C   UNL     1     -45.750 -53.610  15.635  1.00  0.00     0.255 A 
HETATM    9  O   UNL     1     -45.115 -54.573  16.051  1.00  0.00    -0.268 OA
HETATM   10  N   UNL     1     -46.519 -52.835  16.452  1.00  0.00    -0.313 N 
HETATM   11  H   UNL     1     -46.554 -53.101  17.426  1.00  0.00     0.170 HD
ENDROOT
BRANCH   7  12
HETATM   12  C   UNL     1     -45.012 -54.154  13.280  1.00  0.00     0.149 C 
BRANCH  12  13
HETATM   13  C   UNL     1     -43.543 -53.787  13.141  1.00  0.00     0.222 C 
HETATM   14  O   UNL     1     -42.693 -54.171  13.939  1.00  0.00    -0.273 OA
HETATM   15  N   UNL     1     -43.227 -52.974  12.078  1.00  0.00    -0.352 N 
HETATM   16  H   UNL     1     -43.918 -52.805  11.352  1.00  0.00     0.162 HD
BRANCH  15  17
HETATM   17  C   UNL     1     -41.858 -52.477  11.918  1.00  0.00     0.239 C 
BRANCH  17  18
HETATM   18  C   UNL     1     -41.620 -50.996  12.275  1.00  0.00     0.403 C 
HETATM   19  F   UNL     1     -40.907 -50.340  11.334  1.00  0.00    -0.169 F 
HETATM   20  F   UNL     1     -42.778 -50.330  12.470  1.00  0.00    -0.169 F 
HETATM   21  F   UNL     1     -40.915 -50.907  13.432  1.00  0.00    -0.169 F 
ENDBRANCH  17  18
ENDBRANCH  15  17
ENDBRANCH  12  13
ENDBRANCH   7  12
TORSDOF 4
ENDMDL
MODEL 3
REMARK VINA RESULT:      -5.6      3.503      5.887
REMARK  4 active torsions:
REMARK  status: ('A' for Active; 'I' for Inactive)
REMARK    1  A    between atoms: C_7  and  C_8 
REMARK    2  A    between atoms: C_8  and  C_9 
REMARK       I    between atoms: C_9  and  N_11 
REMARK    3  A    between atoms: N_11  and  C_12 
REMARK    4  A    between atoms: C_12  and  C_13 
ROOT
HETATM    1  C   UNL     1     -47.773 -51.134  17.093  1.00  0.00     0.089 C 
HETATM    2  C   UNL     1     -47.008 -51.856  16.022  1.00  0.00     0.080 A 
HETATM    3  N   UNL     1     -47.060 -51.452  14.799  1.00  0.00    -0.349 N 
ATOM      4  HN  UNL     1     -47.605 -50.629  14.542  1.00  0.00     0.167 HD
HETATM    5  C   UNL     1     -46.359 -52.162  13.850  1.00  0.00     0.018 A 
HETATM    6  C   UNL     1     -46.530 -51.625  12.453  1.00  0.00     0.069 C 
HETATM    7  C   UNL     1     -45.596 -53.239  14.130  1.00  0.00     0.041 A 
HETATM    8  C   UNL     1     -45.513 -53.650  15.553  1.00  0.00     0.255 A 
HETATM    9  O   UNL     1     -44.800 -54.578  15.919  1.00  0.00    -0.268 OA
HETATM   10  N   UNL     1     -46.280 -52.932  16.422  1.00  0.00    -0.313 N 
HETATM   11  H   UNL     1     -46.245 -53.211  17.392  1.00  0.00     0.170 HD
ENDROOT
BRANCH   7  12
HETATM   12  C   UNL     1     -44.877 -54.121  13.153  1.00  0.00     0.149 C 
BRANCH  12  13
HETATM   13  C   UNL     1     -43.444 -53.661  12.934  1.00  0.00     0.222 C 
HETATM   14  O   UNL     1     -43.163 -52.716  12.204  1.00  0.00    -0.273 OA
HETATM   15  N   UNL     1     -42.476 -54.388  13.587  1.00  0.00    -0.352 N 
HETATM   16  H   UNL     1     -42.747 -55.057  14.303  1.00  0.00     0.162 HD
BRANCH  15  17
HETATM   17  C   UNL     1     -41.059 -54.092  13.357  1.00  0.00     0.239 C 
BRANCH  17  18
HETATM   18  C   UNL     1     -40.104 -54.356  14.538  1.00  0.00     0.403 C 
HETATM   19  F   UNL     1     -39.690 -53.218  15.139  1.00  0.00    -0.169 F 
HETATM   20  F   UNL     1     -40.664 -55.150  15.476  1.00  0.00    -0.169 F 
HETATM   21  F   UNL     1     -38.989 -54.992  14.097  1.00  0.00    -0.169 F 
ENDBRANCH  17  18
ENDBRANCH  15  17
ENDBRANCH  12  13
ENDBRANCH   7  12
TORSDOF 4
ENDMDL
MODEL 4
REMARK VINA RESULT:      -5.5      7.973      9.841
REMARK  4 active torsions:
REMARK  status: ('A' for Active; 'I' for Inactive)
REMARK    1  A    between atoms: C_7  and  C_8 
REMARK    2  A    between atoms: C_8  and  C_9 
REMARK       I    between atoms: C_9  and  N_11 
REMARK    3  A    between atoms: N_11  and  C_12 
REMARK    4  A    between atoms: C_12  and  C_13 
ROOT
HETATM    1  C   UNL     1     -40.176 -41.182  13.252  1.00  0.00     0.089 C 
HETATM    2  C   UNL     1     -40.089 -42.615  12.812  1.00  0.00     0.080 A 
HETATM    3  N   UNL     1     -40.007 -43.560  13.684  1.00  0.00    -0.349 N 
ATOM      4  HN  UNL     1     -40.018 -43.354  14.683  1.00  0.00     0.167 HD
HETATM    5  C   UNL     1     -39.906 -44.857  13.230  1.00  0.00     0.018 A 
HETATM    6  C   UNL     1     -39.771 -45.870  14.336  1.00  0.00     0.069 C 
HETATM    7  C   UNL     1     -39.917 -45.197  11.924  1.00  0.00     0.041 A 
HETATM    8  C   UNL     1     -40.065 -44.093  10.945  1.00  0.00     0.255 A 
HETATM    9  O   UNL     1     -40.147 -44.302   9.740  1.00  0.00    -0.268 OA
HETATM   10  N   UNL     1     -40.102 -42.835  11.471  1.00  0.00    -0.313 N 
HETATM   11  H   UNL     1     -40.187 -42.073  10.814  1.00  0.00     0.170 HD
ENDROOT
BRANCH   7  12
HETATM   12  C   UNL     1     -39.722 -46.565  11.342  1.00  0.00     0.149 C 
BRANCH  12  13
HETATM   13  C   UNL     1     -41.044 -47.297  11.177  1.00  0.00     0.222 C 
HETATM   14  O   UNL     1     -41.458 -48.098  12.009  1.00  0.00    -0.273 OA
HETATM   15  N   UNL     1     -41.739 -47.025  10.022  1.00  0.00    -0.352 N 
HETATM   16  H   UNL     1     -41.452 -46.246   9.434  1.00  0.00     0.162 HD
BRANCH  15  17
HETATM   17  C   UNL     1     -42.971 -47.758   9.718  1.00  0.00     0.239 C 
BRANCH  17  18
HETATM   18  C   UNL     1     -43.546 -47.574   8.300  1.00  0.00     0.403 C 
HETATM   19  F   UNL     1     -42.940 -48.363   7.384  1.00  0.00    -0.169 F 
HETATM   20  F   UNL     1     -44.873 -47.818   8.254  1.00  0.00    -0.169 F 
HETATM   21  F   UNL     1     -43.365 -46.292   7.890  1.00  0.00    -0.169 F 
ENDBRANCH  17  18
ENDBRANCH  15  17
ENDBRANCH  12  13
ENDBRANCH   7  12
TORSDOF 4
ENDMDL
MODEL 5
REMARK VINA RESULT:      -5.5      6.992      8.783
REMARK  4 active torsions:
REMARK  status: ('A' for Active; 'I' for Inactive)
REMARK    1  A    between atoms: C_7  and  C_8 
REMARK    2  A    between atoms: C_8  and  C_9 
REMARK       I    between atoms: C_9  and  N_11 
REMARK    3  A    between atoms: N_11  and  C_12 
REMARK    4  A    between atoms: C_12  and  C_13 
ROOT
HETATM    1  C   UNL     1     -43.544 -45.230  15.740  1.00  0.00     0.089 C 
HETATM    2  C   UNL     1     -43.141 -45.509  14.321  1.00  0.00     0.080 A 
HETATM    3  N   UNL     1     -43.098 -46.721  13.883  1.00  0.00    -0.349 N 
ATOM      4  HN  UNL     1     -43.352 -47.505  14.485  1.00  0.00     0.167 HD
HETATM    5  C   UNL     1     -42.700 -46.927  12.581  1.00  0.00     0.018 A 
HETATM    6  C   UNL     1     -42.644 -48.382  12.195  1.00  0.00     0.069 C 
HETATM    7  C   UNL     1     -42.382 -45.932  11.727  1.00  0.00     0.041 A 
HETATM    8  C   UNL     1     -42.492 -44.545  12.243  1.00  0.00     0.255 A 
HETATM    9  O   UNL     1     -42.283 -43.570  11.529  1.00  0.00    -0.268 OA
HETATM   10  N   UNL     1     -42.836 -44.428  13.557  1.00  0.00    -0.313 N 
HETATM   11  H   UNL     1     -42.899 -43.489  13.925  1.00  0.00     0.170 HD
ENDROOT
BRANCH   7  12
HETATM   12  C   UNL     1     -41.854 -46.069  10.330  1.00  0.00     0.149 C 
BRANCH  12  13
HETATM   13  C   UNL     1     -42.980 -46.221   9.320  1.00  0.00     0.222 C 
HETATM   14  O   UNL     1     -43.632 -45.263   8.915  1.00  0.00    -0.273 OA
HETATM   15  N   UNL     1     -43.243 -47.506   8.905  1.00  0.00    -0.352 N 
HETATM   16  H   UNL     1     -42.590 -48.251   9.134  1.00  0.00     0.162 HD
BRANCH  15  17
HETATM   17  C   UNL     1     -44.377 -47.771   8.016  1.00  0.00     0.239 C 
BRANCH  17  18
HETATM   18  C   UNL     1     -45.753 -47.941   8.692  1.00  0.00     0.403 C 
HETATM   19  F   UNL     1     -46.522 -46.834   8.595  1.00  0.00    -0.169 F 
HETATM   20  F   UNL     1     -46.444 -48.982   8.181  1.00  0.00    -0.169 F 
HETATM   21  F   UNL     1     -45.589 -48.187  10.017  1.00  0.00    -0.169 F 
ENDBRANCH  17  18
ENDBRANCH  15  17
ENDBRANCH  12  13
ENDBRANCH   7  12
TORSDOF 4
ENDMDL
MODEL 6
REMARK VINA RESULT:      -5.5      7.351      8.876
REMARK  4 active torsions:
REMARK  status: ('A' for Active; 'I' for Inactive)
REMARK    1  A    between atoms: C_7  and  C_8 
REMARK    2  A    between atoms: C_8  and  C_9 
REMARK       I    between atoms: C_9  and  N_11 
REMARK    3  A    between atoms: N_11  and  C_12 
REMARK    4  A    between atoms: C_12  and  C_13 
ROOT
HETATM    1  C   UNL     1     -43.056 -43.975  15.017  1.00  0.00     0.089 C 
HETATM    2  C   UNL     1     -42.596 -44.706  13.789  1.00  0.00     0.080 A 
HETATM    3  N   UNL     1     -41.681 -44.201  13.035  1.00  0.00    -0.349 N 
ATOM      4  HN  UNL     1     -41.243 -43.309  13.268  1.00  0.00     0.167 HD
HETATM    5  C   UNL     1     -41.310 -44.898  11.906  1.00  0.00     0.018 A 
HETATM    6  C   UNL     1     -40.267 -44.191  11.082  1.00  0.00     0.069 C 
HETATM    7  C   UNL     1     -41.828 -46.095  11.560  1.00  0.00     0.041 A 
HETATM    8  C   UNL     1     -42.842 -46.676  12.474  1.00  0.00     0.255 A 
HETATM    9  O   UNL     1     -43.329 -47.785  12.280  1.00  0.00    -0.268 OA
HETATM   10  N   UNL     1     -43.196 -45.899  13.537  1.00  0.00    -0.313 N 
HETATM   11  H   UNL     1     -43.897 -46.277  14.159  1.00  0.00     0.170 HD
ENDROOT
BRANCH   7  12
HETATM   12  C   UNL     1     -41.551 -46.876  10.310  1.00  0.00     0.149 C 
BRANCH  12  13
HETATM   13  C   UNL     1     -42.687 -46.749   9.308  1.00  0.00     0.222 C 
HETATM   14  O   UNL     1     -43.050 -45.665   8.862  1.00  0.00    -0.273 OA
HETATM   15  N   UNL     1     -43.304 -47.925   8.950  1.00  0.00    -0.352 N 
HETATM   16  H   UNL     1     -42.883 -48.813   9.211  1.00  0.00     0.162 HD
BRANCH  15  17
HETATM   17  C   UNL     1     -44.479 -47.899   8.074  1.00  0.00     0.239 C 
BRANCH  17  18
HETATM   18  C   UNL     1     -45.853 -47.863   8.771  1.00  0.00     0.403 C 
HETATM   19  F   UNL     1     -46.454 -46.655   8.680  1.00  0.00    -0.169 F 
HETATM   20  F   UNL     1     -46.697 -48.793   8.277  1.00  0.00    -0.169 F 
HETATM   21  F   UNL     1     -45.706 -48.126  10.096  1.00  0.00    -0.169 F 
ENDBRANCH  17  18
ENDBRANCH  15  17
ENDBRANCH  12  13
ENDBRANCH   7  12
TORSDOF 4
ENDMDL
MODEL 7
REMARK VINA RESULT:      -5.4      8.029      9.728
REMARK  4 active torsions:
REMARK  status: ('A' for Active; 'I' for Inactive)
REMARK    1  A    between atoms: C_7  and  C_8 
REMARK    2  A    between atoms: C_8  and  C_9 
REMARK       I    between atoms: C_9  and  N_11 
REMARK    3  A    between atoms: N_11  and  C_12 
REMARK    4  A    between atoms: C_12  and  C_13 
ROOT
HETATM    1  C   UNL     1     -40.745 -41.039  12.472  1.00  0.00     0.089 C 
HETATM    2  C   UNL     1     -40.956 -42.448  12.000  1.00  0.00     0.080 A 
HETATM    3  N   UNL     1     -40.157 -42.972  11.135  1.00  0.00    -0.349 N 
ATOM      4  HN  UNL     1     -39.361 -42.447  10.771  1.00  0.00     0.167 HD
HETATM    5  C   UNL     1     -40.407 -44.260  10.715  1.00  0.00     0.018 A 
HETATM    6  C   UNL     1     -39.436 -44.749   9.673  1.00  0.00     0.069 C 
HETATM    7  C   UNL     1     -41.422 -45.017  11.180  1.00  0.00     0.041 A 
HETATM    8  C   UNL     1     -42.294 -44.406  12.214  1.00  0.00     0.255 A 
HETATM    9  O   UNL     1     -43.207 -45.032  12.743  1.00  0.00    -0.268 OA
HETATM   10  N   UNL     1     -42.016 -43.110  12.533  1.00  0.00    -0.313 N 
HETATM   11  H   UNL     1     -42.612 -42.678  13.225  1.00  0.00     0.170 HD
ENDROOT
BRANCH   7  12
HETATM   12  C   UNL     1     -41.820 -46.386  10.716  1.00  0.00     0.149 C 
BRANCH  12  13
HETATM   13  C   UNL     1     -42.898 -46.322   9.646  1.00  0.00     0.222 C 
HETATM   14  O   UNL     1     -42.668 -45.932   8.505  1.00  0.00    -0.273 OA
HETATM   15  N   UNL     1     -44.158 -46.704  10.042  1.00  0.00    -0.352 N 
HETATM   16  H   UNL     1     -44.285 -47.169  10.937  1.00  0.00     0.162 HD
BRANCH  15  17
HETATM   17  C   UNL     1     -45.287 -46.577   9.116  1.00  0.00     0.239 C 
BRANCH  17  18
HETATM   18  C   UNL     1     -46.219 -47.799   8.999  1.00  0.00     0.403 C 
HETATM   19  F   UNL     1     -46.088 -48.446   7.820  1.00  0.00    -0.169 F 
HETATM   20  F   UNL     1     -46.016 -48.689   9.995  1.00  0.00    -0.169 F 
HETATM   21  F   UNL     1     -47.515 -47.402   9.084  1.00  0.00    -0.169 F 
ENDBRANCH  17  18
ENDBRANCH  15  17
ENDBRANCH  12  13
ENDBRANCH   7  12
TORSDOF 4
ENDMDL
MODEL 8
REMARK VINA RESULT:      -5.3      3.435      5.636
REMARK  4 active torsions:
REMARK  status: ('A' for Active; 'I' for Inactive)
REMARK    1  A    between atoms: C_7  and  C_8 
REMARK    2  A    between atoms: C_8  and  C_9 
REMARK       I    between atoms: C_9  and  N_11 
REMARK    3  A    between atoms: N_11  and  C_12 
REMARK    4  A    between atoms: C_12  and  C_13 
ROOT
HETATM    1  C   UNL     1     -47.709 -51.211  16.773  1.00  0.00     0.089 C 
HETATM    2  C   UNL     1     -46.888 -51.828  15.678  1.00  0.00     0.080 A 
HETATM    3  N   UNL     1     -46.091 -52.809  15.935  1.00  0.00    -0.349 N 
ATOM      4  HN  UNL     1     -46.018 -53.191  16.877  1.00  0.00     0.167 HD
HETATM    5  C   UNL     1     -45.342 -53.324  14.900  1.00  0.00     0.018 A 
HETATM    6  C   UNL     1     -44.417 -54.434  15.327  1.00  0.00     0.069 C 
HETATM    7  C   UNL     1     -45.416 -52.884  13.627  1.00  0.00     0.041 A 
HETATM    8  C   UNL     1     -46.380 -51.790  13.352  1.00  0.00     0.255 A 
HETATM    9  O   UNL     1     -46.565 -51.360  12.218  1.00  0.00    -0.268 OA
HETATM   10  N   UNL     1     -47.041 -51.295  14.437  1.00  0.00    -0.313 N 
HETATM   11  H   UNL     1     -47.689 -50.540  14.266  1.00  0.00     0.170 HD
ENDROOT
BRANCH   7  12
HETATM   12  C   UNL     1     -44.577 -53.323  12.465  1.00  0.00     0.149 C 
BRANCH  12  13
HETATM   13  C   UNL     1     -43.141 -52.842  12.598  1.00  0.00     0.222 C 
HETATM   14  O   UNL     1     -42.858 -51.657  12.752  1.00  0.00    -0.273 OA
HETATM   15  N   UNL     1     -42.173 -53.814  12.510  1.00  0.00    -0.352 N 
HETATM   16  H   UNL     1     -42.440 -54.795  12.542  1.00  0.00     0.162 HD
BRANCH  15  17
HETATM   17  C   UNL     1     -40.756 -53.440  12.519  1.00  0.00     0.239 C 
BRANCH  17  18
HETATM   18  C   UNL     1     -39.954 -53.824  13.778  1.00  0.00     0.403 C 
HETATM   19  F   UNL     1     -40.736 -53.974  14.871  1.00  0.00    -0.169 F 
HETATM   20  F   UNL     1     -39.250 -54.963  13.603  1.00  0.00    -0.169 F 
HETATM   21  F   UNL     1     -39.058 -52.847  14.071  1.00  0.00    -0.169 F 
ENDBRANCH  17  18
ENDBRANCH  15  17
ENDBRANCH  12  13
ENDBRANCH   7  12
TORSDOF 4
ENDMDL
MODEL 9
REMARK VINA RESULT:      -5.3      6.379      7.750
REMARK  4 active torsions:
REMARK  status: ('A' for Active; 'I' for Inactive)
REMARK    1  A    between atoms: C_7  and  C_8 
REMARK    2  A    between atoms: C_8  and  C_9 
REMARK       I    between atoms: C_9  and  N_11 
REMARK    3  A    between atoms: N_11  and  C_12 
REMARK    4  A    between atoms: C_12  and  C_13 
ROOT
HETATM    1  C   UNL     1     -38.965 -46.921  15.031  1.00  0.00     0.089 C 
HETATM    2  C   UNL     1     -39.671 -47.244  13.745  1.00  0.00     0.080 A 
HETATM    3  N   UNL     1     -39.596 -46.438  12.741  1.00  0.00    -0.349 N 
ATOM      4  HN  UNL     1     -39.045 -45.581  12.798  1.00  0.00     0.167 HD
HETATM    5  C   UNL     1     -40.279 -46.767  11.592  1.00  0.00     0.018 A 
HETATM    6  C   UNL     1     -40.155 -45.731  10.505  1.00  0.00     0.069 C 
HETATM    7  C   UNL     1     -40.999 -47.898  11.444  1.00  0.00     0.041 A 
HETATM    8  C   UNL     1     -41.024 -48.832  12.597  1.00  0.00     0.255 A 
HETATM    9  O   UNL     1     -41.598 -49.914  12.542  1.00  0.00    -0.268 OA
HETATM   10  N   UNL     1     -40.370 -48.408  13.716  1.00  0.00    -0.313 N 
HETATM   11  H   UNL     1     -40.393 -49.027  14.514  1.00  0.00     0.170 HD
ENDROOT
BRANCH   7  12
HETATM   12  C   UNL     1     -41.843 -48.290  10.268  1.00  0.00     0.149 C 
BRANCH  12  13
HETATM   13  C   UNL     1     -43.202 -47.609  10.305  1.00  0.00     0.222 C 
HETATM   14  O   UNL     1     -43.625 -47.044  11.308  1.00  0.00    -0.273 OA
HETATM   15  N   UNL     1     -43.942 -47.688   9.148  1.00  0.00    -0.352 N 
HETATM   16  H   UNL     1     -43.505 -48.020   8.293  1.00  0.00     0.162 HD
BRANCH  15  17
HETATM   17  C   UNL     1     -45.308 -47.157   9.115  1.00  0.00     0.239 C 
BRANCH  17  18
HETATM   18  C   UNL     1     -46.437 -48.185   8.907  1.00  0.00     0.403 C 
HETATM   19  F   UNL     1     -46.422 -48.735   7.672  1.00  0.00    -0.169 F 
HETATM   20  F   UNL     1     -46.389 -49.184   9.815  1.00  0.00    -0.169 F 
HETATM   21  F   UNL     1     -47.645 -47.580   9.049  1.00  0.00    -0.169 F 
ENDBRANCH  17  18
ENDBRANCH  15  17
ENDBRANCH  12  13
ENDBRANCH   7  12
TORSDOF 4
ENDMDL
