MODEL 1
REMARK VINA RESULT:      -6.0      0.000      0.000
REMARK  2 active torsions:
REMARK  status: ('A' for Active; 'I' for Inactive)
REMARK       I    between atoms: N_1  and  C_2 
REMARK    1  A    between atoms: C_2  and  C_4 
REMARK    2  A    between atoms: N_6  and  C_10 
ROOT
HETATM    1  C   UNL     1     -42.291 -48.566  11.342  1.00  0.00     0.104 A 
HETATM    2  C   UNL     1     -43.083 -48.261  12.451  1.00  0.00     0.050 A 
HETATM    3  C   UNL     1     -43.288 -49.197  13.469  1.00  0.00     0.030 A 
HETATM    4  C   UNL     1     -42.686 -50.442  13.380  1.00  0.00     0.071 A 
HETATM    5 CL   UNL     1     -42.940 -51.579  14.647  1.00  0.00    -0.081 Cl
HETATM    6  C   UNL     1     -41.898 -50.688  12.269  1.00  0.00     0.137 A 
HETATM    7  C   UNL     1     -41.209 -51.938  12.093  1.00  0.00     0.119 C 
HETATM    8  N   UNL     1     -40.656 -52.955  11.993  1.00  0.00    -0.190 NA
HETATM    9  N   UNL     1     -41.694 -49.774  11.276  1.00  0.00    -0.333 N 
ATOM     10  HN  UNL     1     -41.092 -50.004  10.485  1.00  0.00     0.168 HD
ENDROOT
BRANCH   1  11
HETATM   11  N   UNL     1     -42.050 -47.659  10.332  1.00  0.00    -0.362 N 
HETATM   12  C   UNL     1     -42.647 -47.872   8.994  1.00  0.00     0.166 C 
HETATM   13  C   UNL     1     -43.665 -46.766   8.637  1.00  0.00     0.230 C 
HETATM   14  O   UNL     1     -43.162 -45.438   8.881  1.00  0.00    -0.373 OA
HETATM   15  C   UNL     1     -42.658 -45.285  10.215  1.00  0.00     0.189 C 
HETATM   16  C   UNL     1     -41.550 -46.296  10.534  1.00  0.00     0.150 C 
BRANCH  13  17
HETATM   17  C   UNL     1     -45.062 -47.045   9.221  1.00  0.00     0.246 C 
HETATM   18  N   UNL     1     -46.023 -46.136   8.873  1.00  0.00    -0.368 N 
HETATM   19  H   UNL     1     -46.974 -46.308   9.169  1.00  0.00     0.159 HD
HETATM   20  H   UNL     1     -45.817 -45.378   8.234  1.00  0.00     0.159 HD
HETATM   21  O   UNL     1     -45.365 -48.040   9.870  1.00  0.00    -0.271 OA
ENDBRANCH  13  17
ENDBRANCH   1  11
TORSDOF 2
ENDMDL
MODEL 2
REMARK VINA RESULT:      -5.8      4.654      6.509
REMARK  2 active torsions:
REMARK  status: ('A' for Active; 'I' for Inactive)
REMARK       I    between atoms: N_1  and  C_2 
REMARK    1  A    between atoms: C_2  and  C_4 
REMARK    2  A    between atoms: N_6  and  C_10 
ROOT
HETATM    1  C   UNL     1     -42.387 -53.879  13.417  1.00  0.00     0.104 A 
HETATM    2  C   UNL     1     -42.656 -54.727  14.494  1.00  0.00     0.050 A 
HETATM    3  C   UNL     1     -43.968 -54.955  14.921  1.00  0.00     0.030 A 
HETATM    4  C   UNL     1     -45.016 -54.338  14.258  1.00  0.00     0.071 A 
HETATM    5 CL   UNL     1     -46.625 -54.639  14.790  1.00  0.00    -0.081 Cl
HETATM    6  C   UNL     1     -44.697 -53.521  13.188  1.00  0.00     0.137 A 
HETATM    7  C   UNL     1     -45.712 -52.854  12.417  1.00  0.00     0.119 C 
HETATM    8  N   UNL     1     -46.561 -52.343  11.810  1.00  0.00    -0.190 NA
HETATM    9  N   UNL     1     -43.418 -53.300  12.767  1.00  0.00    -0.333 N 
ATOM     10  HN  UNL     1     -43.241 -52.697  11.964  1.00  0.00     0.168 HD
ENDROOT
BRANCH   1  11
HETATM   11  N   UNL     1     -41.109 -53.650  12.956  1.00  0.00    -0.362 N 
HETATM   12  C   UNL     1     -40.868 -52.591  11.951  1.00  0.00     0.166 C 
HETATM   13  C   UNL     1     -39.993 -51.450  12.516  1.00  0.00     0.230 C 
HETATM   14  O   UNL     1     -38.818 -51.928  13.199  1.00  0.00    -0.373 OA
HETATM   15  C   UNL     1     -39.131 -52.905  14.202  1.00  0.00     0.189 C 
HETATM   16  C   UNL     1     -39.886 -54.107  13.622  1.00  0.00     0.150 C 
BRANCH  13  17
HETATM   17  C   UNL     1     -40.819 -50.414  13.301  1.00  0.00     0.246 C 
HETATM   18  N   UNL     1     -40.093 -49.377  13.824  1.00  0.00    -0.368 N 
HETATM   19  H   UNL     1     -40.592 -48.631  14.287  1.00  0.00     0.159 HD
HETATM   20  H   UNL     1     -39.100 -49.295  13.646  1.00  0.00     0.159 HD
HETATM   21  O   UNL     1     -42.040 -50.415  13.395  1.00  0.00    -0.271 OA
ENDBRANCH  13  17
ENDBRANCH   1  11
TORSDOF 2
ENDMDL
MODEL 3
REMARK VINA RESULT:      -5.6      5.403      6.857
REMARK  2 active torsions:
REMARK  status: ('A' for Active; 'I' for Inactive)
REMARK       I    between atoms: N_1  and  C_2 
REMARK    1  A    between atoms: C_2  and  C_4 
REMARK    2  A    between atoms: N_6  and  C_10 
ROOT
HETATM    1  C   UNL     1     -43.247 -53.495  15.179  1.00  0.00     0.104 A 
HETATM    2  C   UNL     1     -42.650 -54.594  15.801  1.00  0.00     0.050 A 
HETATM    3  C   UNL     1     -41.349 -54.987  15.474  1.00  0.00     0.030 A 
HETATM    4  C   UNL     1     -40.638 -54.267  14.527  1.00  0.00     0.071 A 
HETATM    5 CL   UNL     1     -39.033 -54.757  14.145  1.00  0.00    -0.081 Cl
HETATM    6  C   UNL     1     -41.269 -53.177  13.953  1.00  0.00     0.137 A 
HETATM    7  C   UNL     1     -40.612 -52.349  12.979  1.00  0.00     0.119 C 
HETATM    8  N   UNL     1     -40.041 -51.696  12.205  1.00  0.00    -0.190 NA
HETATM    9  N   UNL     1     -42.539 -52.791  14.273  1.00  0.00    -0.333 N 
ATOM     10  HN  UNL     1     -42.951 -51.971  13.828  1.00  0.00     0.168 HD
ENDROOT
BRANCH   1  11
HETATM   11  N   UNL     1     -44.519 -53.068  15.494  1.00  0.00    -0.362 N 
HETATM   12  C   UNL     1     -45.071 -51.858  14.842  1.00  0.00     0.166 C 
HETATM   13  C   UNL     1     -46.284 -52.191  13.946  1.00  0.00     0.230 C 
HETATM   14  O   UNL     1     -47.253 -53.033  14.599  1.00  0.00    -0.373 OA
HETATM   15  C   UNL     1     -46.660 -54.216  15.152  1.00  0.00     0.189 C 
HETATM   16  C   UNL     1     -45.540 -53.891  16.148  1.00  0.00     0.150 C 
BRANCH  13  17
HETATM   17  C   UNL     1     -45.862 -52.662  12.542  1.00  0.00     0.246 C 
HETATM   18  N   UNL     1     -46.665 -52.226  11.523  1.00  0.00    -0.368 N 
HETATM   19  H   UNL     1     -46.396 -52.445  10.574  1.00  0.00     0.159 HD
HETATM   20  H   UNL     1     -47.438 -51.597  11.702  1.00  0.00     0.159 HD
HETATM   21  O   UNL     1     -44.843 -53.295  12.291  1.00  0.00    -0.271 OA
ENDBRANCH  13  17
ENDBRANCH   1  11
TORSDOF 2
ENDMDL
MODEL 4
REMARK VINA RESULT:      -5.6      4.311      6.161
REMARK  2 active torsions:
REMARK  status: ('A' for Active; 'I' for Inactive)
REMARK       I    between atoms: N_1  and  C_2 
REMARK    1  A    between atoms: C_2  and  C_4 
REMARK    2  A    between atoms: N_6  and  C_10 
ROOT
HETATM    1  C   UNL     1     -43.697 -50.680  13.538  1.00  0.00     0.104 A 
HETATM    2  C   UNL     1     -43.428 -49.492  12.855  1.00  0.00     0.050 A 
HETATM    3  C   UNL     1     -42.198 -49.288  12.223  1.00  0.00     0.030 A 
HETATM    4  C   UNL     1     -41.236 -50.284  12.266  1.00  0.00     0.071 A 
HETATM    5 CL   UNL     1     -39.732 -50.021  11.473  1.00  0.00    -0.081 Cl
HETATM    6  C   UNL     1     -41.559 -51.449  12.941  1.00  0.00     0.137 A 
HETATM    7  C   UNL     1     -40.643 -52.554  13.024  1.00  0.00     0.119 C 
HETATM    8  N   UNL     1     -39.881 -53.430  13.056  1.00  0.00    -0.190 NA
HETATM    9  N   UNL     1     -42.761 -51.651  13.557  1.00  0.00    -0.333 N 
ATOM     10  HN  UNL     1     -42.951 -52.534  14.029  1.00  0.00     0.168 HD
ENDROOT
BRANCH   1  11
HETATM   11  N   UNL     1     -44.907 -50.922  14.152  1.00  0.00    -0.362 N 
HETATM   12  C   UNL     1     -46.020 -51.514  13.376  1.00  0.00     0.166 C 
HETATM   13  C   UNL     1     -46.400 -52.919  13.896  1.00  0.00     0.230 C 
HETATM   14  O   UNL     1     -46.554 -52.967  15.327  1.00  0.00    -0.373 OA
HETATM   15  C   UNL     1     -45.413 -52.436  16.016  1.00  0.00     0.189 C 
HETATM   16  C   UNL     1     -45.109 -50.991  15.602  1.00  0.00     0.150 C 
BRANCH  13  17
HETATM   17  C   UNL     1     -45.502 -54.022  13.306  1.00  0.00     0.246 C 
HETATM   18  N   UNL     1     -45.758 -55.283  13.774  1.00  0.00    -0.368 N 
HETATM   19  H   UNL     1     -45.248 -56.056  13.370  1.00  0.00     0.159 HD
HETATM   20  H   UNL     1     -46.522 -55.455  14.416  1.00  0.00     0.159 HD
HETATM   21  O   UNL     1     -44.678 -53.855  12.415  1.00  0.00    -0.271 OA
ENDBRANCH  13  17
ENDBRANCH   1  11
TORSDOF 2
ENDMDL
MODEL 5
REMARK VINA RESULT:      -5.5      3.656      5.897
REMARK  2 active torsions:
REMARK  status: ('A' for Active; 'I' for Inactive)
REMARK       I    between atoms: N_1  and  C_2 
REMARK    1  A    between atoms: C_2  and  C_4 
REMARK    2  A    between atoms: N_6  and  C_10 
ROOT
HETATM    1  C   UNL     1     -39.929 -47.785  12.566  1.00  0.00     0.104 A 
HETATM    2  C   UNL     1     -39.826 -46.499  13.099  1.00  0.00     0.050 A 
HETATM    3  C   UNL     1     -40.590 -45.445  12.589  1.00  0.00     0.030 A 
HETATM    4  C   UNL     1     -41.470 -45.685  11.545  1.00  0.00     0.071 A 
HETATM    5 CL   UNL     1     -42.411 -44.379  10.937  1.00  0.00    -0.081 Cl
HETATM    6  C   UNL     1     -41.546 -46.980  11.065  1.00  0.00     0.137 A 
HETATM    7  C   UNL     1     -42.445 -47.341  10.002  1.00  0.00     0.119 C 
HETATM    8  N   UNL     1     -43.195 -47.596   9.151  1.00  0.00    -0.190 NA
HETATM    9  N   UNL     1     -40.803 -48.011  11.564  1.00  0.00    -0.333 N 
ATOM     10  HN  UNL     1     -40.909 -48.950  11.180  1.00  0.00     0.168 HD
ENDROOT
BRANCH   1  11
HETATM   11  N   UNL     1     -39.208 -48.851  13.060  1.00  0.00    -0.362 N 
HETATM   12  C   UNL     1     -39.895 -49.906  13.839  1.00  0.00     0.166 C 
HETATM   13  C   UNL     1     -39.861 -51.270  13.114  1.00  0.00     0.230 C 
HETATM   14  O   UNL     1     -38.549 -51.618  12.630  1.00  0.00    -0.373 OA
HETATM   15  C   UNL     1     -37.970 -50.576  11.832  1.00  0.00     0.189 C 
HETATM   16  C   UNL     1     -37.877 -49.248  12.592  1.00  0.00     0.150 C 
BRANCH  13  17
HETATM   17  C   UNL     1     -40.989 -51.408  12.075  1.00  0.00     0.246 C 
HETATM   18  N   UNL     1     -40.941 -52.550  11.322  1.00  0.00    -0.368 N 
HETATM   19  H   UNL     1     -41.696 -52.728  10.675  1.00  0.00     0.159 HD
HETATM   20  H   UNL     1     -40.239 -53.259  11.495  1.00  0.00     0.159 HD
HETATM   21  O   UNL     1     -41.933 -50.635  11.957  1.00  0.00    -0.271 OA
ENDBRANCH  13  17
ENDBRANCH   1  11
TORSDOF 2
ENDMDL
MODEL 6
REMARK VINA RESULT:      -5.5      5.434      7.074
REMARK  2 active torsions:
REMARK  status: ('A' for Active; 'I' for Inactive)
REMARK       I    between atoms: N_1  and  C_2 
REMARK    1  A    between atoms: C_2  and  C_4 
REMARK    2  A    between atoms: N_6  and  C_10 
ROOT
HETATM    1  C   UNL     1     -41.945 -53.392  13.891  1.00  0.00     0.104 A 
HETATM    2  C   UNL     1     -40.669 -53.433  13.325  1.00  0.00     0.050 A 
HETATM    3  C   UNL     1     -39.624 -54.117  13.954  1.00  0.00     0.030 A 
HETATM    4  C   UNL     1     -39.863 -54.773  15.150  1.00  0.00     0.071 A 
HETATM    5 CL   UNL     1     -38.568 -55.620  15.905  1.00  0.00    -0.081 Cl
HETATM    6  C   UNL     1     -41.148 -54.717  15.659  1.00  0.00     0.137 A 
HETATM    7  C   UNL     1     -41.508 -55.384  16.881  1.00  0.00     0.119 C 
HETATM    8  N   UNL     1     -41.763 -55.950  17.864  1.00  0.00    -0.190 NA
HETATM    9  N   UNL     1     -42.170 -54.052  15.046  1.00  0.00    -0.333 N 
ATOM     10  HN  UNL     1     -43.102 -54.053  15.459  1.00  0.00     0.168 HD
ENDROOT
BRANCH   1  11
HETATM   11  N   UNL     1     -43.002 -52.747  13.286  1.00  0.00    -0.362 N 
HETATM   12  C   UNL     1     -43.929 -53.507  12.418  1.00  0.00     0.166 C 
HETATM   13  C   UNL     1     -45.356 -53.559  13.008  1.00  0.00     0.230 C 
HETATM   14  O   UNL     1     -45.835 -52.270  13.438  1.00  0.00    -0.373 OA
HETATM   15  C   UNL     1     -44.916 -51.617  14.326  1.00  0.00     0.189 C 
HETATM   16  C   UNL     1     -43.529 -51.442  13.696  1.00  0.00     0.150 C 
BRANCH  13  17
HETATM   17  C   UNL     1     -45.521 -54.686  14.044  1.00  0.00     0.246 C 
HETATM   18  N   UNL     1     -46.792 -54.842  14.528  1.00  0.00    -0.368 N 
HETATM   19  H   UNL     1     -46.973 -55.612  15.156  1.00  0.00     0.159 HD
HETATM   20  H   UNL     1     -47.556 -54.281  14.174  1.00  0.00     0.159 HD
HETATM   21  O   UNL     1     -44.640 -55.474  14.370  1.00  0.00    -0.271 OA
ENDBRANCH  13  17
ENDBRANCH   1  11
TORSDOF 2
ENDMDL
MODEL 7
REMARK VINA RESULT:      -5.4      5.106      6.869
REMARK  2 active torsions:
REMARK  status: ('A' for Active; 'I' for Inactive)
REMARK       I    between atoms: N_1  and  C_2 
REMARK    1  A    between atoms: C_2  and  C_4 
REMARK    2  A    between atoms: N_6  and  C_10 
ROOT
HETATM    1  C   UNL     1     -42.649 -52.399  13.091  1.00  0.00     0.104 A 
HETATM    2  C   UNL     1     -43.067 -51.067  13.119  1.00  0.00     0.050 A 
HETATM    3  C   UNL     1     -44.363 -50.728  13.517  1.00  0.00     0.030 A 
HETATM    4  C   UNL     1     -45.242 -51.728  13.899  1.00  0.00     0.071 A 
HETATM    5 CL   UNL     1     -46.831 -51.292  14.397  1.00  0.00    -0.081 Cl
HETATM    6  C   UNL     1     -44.773 -53.030  13.869  1.00  0.00     0.137 A 
HETATM    7  C   UNL     1     -45.595 -54.139  14.270  1.00  0.00     0.119 C 
HETATM    8  N   UNL     1     -46.286 -55.008  14.616  1.00  0.00    -0.190 NA
HETATM    9  N   UNL     1     -43.507 -53.363  13.484  1.00  0.00    -0.333 N 
ATOM     10  HN  UNL     1     -43.209 -54.338  13.493  1.00  0.00     0.168 HD
ENDROOT
BRANCH   1  11
HETATM   11  N   UNL     1     -41.371 -52.766  12.726  1.00  0.00    -0.362 N 
HETATM   12  C   UNL     1     -40.316 -51.735  12.606  1.00  0.00     0.166 C 
HETATM   13  C   UNL     1     -39.197 -51.934  13.653  1.00  0.00     0.230 C 
HETATM   14  O   UNL     1     -38.725 -53.293  13.721  1.00  0.00    -0.373 OA
HETATM   15  C   UNL     1     -39.794 -54.233  13.900  1.00  0.00     0.189 C 
HETATM   16  C   UNL     1     -40.844 -54.132  12.787  1.00  0.00     0.150 C 
BRANCH  13  17
HETATM   17  C   UNL     1     -39.552 -51.306  15.014  1.00  0.00     0.246 C 
HETATM   18  N   UNL     1     -38.712 -51.646  16.040  1.00  0.00    -0.368 N 
HETATM   19  H   UNL     1     -38.854 -51.207  16.939  1.00  0.00     0.159 HD
HETATM   20  H   UNL     1     -37.897 -52.223  15.877  1.00  0.00     0.159 HD
HETATM   21  O   UNL     1     -40.442 -50.484  15.197  1.00  0.00    -0.271 OA
ENDBRANCH  13  17
ENDBRANCH   1  11
TORSDOF 2
ENDMDL
MODEL 8
REMARK VINA RESULT:      -5.4      2.720      3.585
REMARK  2 active torsions:
REMARK  status: ('A' for Active; 'I' for Inactive)
REMARK       I    between atoms: N_1  and  C_2 
REMARK    1  A    between atoms: C_2  and  C_4 
REMARK    2  A    between atoms: N_6  and  C_10 
ROOT
HETATM    1  C   UNL     1     -40.744 -50.891  12.174  1.00  0.00     0.104 A 
HETATM    2  C   UNL     1     -39.841 -51.611  12.958  1.00  0.00     0.050 A 
HETATM    3  C   UNL     1     -40.233 -52.780  13.619  1.00  0.00     0.030 A 
HETATM    4  C   UNL     1     -41.535 -53.234  13.483  1.00  0.00     0.071 A 
HETATM    5 CL   UNL     1     -41.998 -54.680  14.294  1.00  0.00    -0.081 Cl
HETATM    6  C   UNL     1     -42.385 -52.493  12.681  1.00  0.00     0.137 A 
HETATM    7  C   UNL     1     -43.748 -52.891  12.454  1.00  0.00     0.119 C 
HETATM    8  N   UNL     1     -44.839 -53.253  12.283  1.00  0.00    -0.190 NA
HETATM    9  N   UNL     1     -42.003 -51.354  12.034  1.00  0.00    -0.333 N 
ATOM     10  HN  UNL     1     -42.668 -50.853  11.444  1.00  0.00     0.168 HD
ENDROOT
BRANCH   1  11
HETATM   11  N   UNL     1     -40.384 -49.749  11.492  1.00  0.00    -0.362 N 
HETATM   12  C   UNL     1     -41.388 -49.039  10.666  1.00  0.00     0.166 C 
HETATM   13  C   UNL     1     -41.696 -47.631  11.221  1.00  0.00     0.230 C 
HETATM   14  O   UNL     1     -40.509 -46.875  11.531  1.00  0.00    -0.373 OA
HETATM   15  C   UNL     1     -39.612 -47.598  12.385  1.00  0.00     0.189 C 
HETATM   16  C   UNL     1     -39.194 -48.943  11.778  1.00  0.00     0.150 C 
BRANCH  13  17
HETATM   17  C   UNL     1     -42.752 -47.662  12.342  1.00  0.00     0.246 C 
HETATM   18  N   UNL     1     -43.218 -46.434  12.728  1.00  0.00    -0.368 N 
HETATM   19  H   UNL     1     -43.963 -46.398  13.409  1.00  0.00     0.159 HD
HETATM   20  H   UNL     1     -42.915 -45.591  12.257  1.00  0.00     0.159 HD
HETATM   21  O   UNL     1     -43.242 -48.680  12.816  1.00  0.00    -0.271 OA
ENDBRANCH  13  17
ENDBRANCH   1  11
TORSDOF 2
ENDMDL
MODEL 9
REMARK VINA RESULT:      -5.3      6.143      7.395
REMARK  2 active torsions:
REMARK  status: ('A' for Active; 'I' for Inactive)
REMARK       I    between atoms: N_1  and  C_2 
REMARK    1  A    between atoms: C_2  and  C_4 
REMARK    2  A    between atoms: N_6  and  C_10 
ROOT
HETATM    1  C   UNL     1     -42.878 -54.471  14.211  1.00  0.00     0.104 A 
HETATM    2  C   UNL     1     -42.796 -55.294  15.337  1.00  0.00     0.050 A 
HETATM    3  C   UNL     1     -41.589 -55.456  16.024  1.00  0.00     0.030 A 
HETATM    4  C   UNL     1     -40.461 -54.781  15.587  1.00  0.00     0.071 A 
HETATM    5 CL   UNL     1     -38.986 -54.982  16.450  1.00  0.00    -0.081 Cl
HETATM    6  C   UNL     1     -40.600 -53.965  14.477  1.00  0.00     0.137 A 
HETATM    7  C   UNL     1     -39.498 -53.201  13.957  1.00  0.00     0.119 C 
HETATM    8  N   UNL     1     -38.587 -52.588  13.576  1.00  0.00    -0.190 NA
HETATM    9  N   UNL     1     -41.778 -53.804  13.807  1.00  0.00    -0.333 N 
ATOM     10  HN  UNL     1     -41.827 -53.179  13.002  1.00  0.00     0.168 HD
ENDROOT
BRANCH   1  11
HETATM   11  N   UNL     1     -44.056 -54.272  13.525  1.00  0.00    -0.362 N 
HETATM   12  C   UNL     1     -45.282 -54.989  13.944  1.00  0.00     0.166 C 
HETATM   13  C   UNL     1     -46.368 -54.018  14.458  1.00  0.00     0.230 C 
HETATM   14  O   UNL     1     -46.582 -52.896  13.581  1.00  0.00    -0.373 OA
HETATM   15  C   UNL     1     -45.361 -52.210  13.268  1.00  0.00     0.189 C 
HETATM   16  C   UNL     1     -44.322 -53.141  12.631  1.00  0.00     0.150 C 
BRANCH  13  17
HETATM   17  C   UNL     1     -46.168 -53.650  15.940  1.00  0.00     0.246 C 
HETATM   18  N   UNL     1     -46.697 -52.443  16.310  1.00  0.00    -0.368 N 
HETATM   19  H   UNL     1     -46.658 -52.182  17.285  1.00  0.00     0.159 HD
HETATM   20  H   UNL     1     -47.223 -51.881  15.651  1.00  0.00     0.159 HD
HETATM   21  O   UNL     1     -45.670 -54.385  16.785  1.00  0.00    -0.271 OA
ENDBRANCH  13  17
ENDBRANCH   1  11
TORSDOF 2
ENDMDL
