MODEL 1
REMARK VINA RESULT:      -5.6      0.000      0.000
REMARK  6 active torsions:
REMARK  status: ('A' for Active; 'I' for Inactive)
REMARK    1  A    between atoms: C_2  and  C_3 
REMARK       I    between atoms: C_2  and  N_10 
REMARK    2  A    between atoms: C_3  and  C_4 
REMARK    3  A    between atoms: N_10  and  C_11 
REMARK    4  A    between atoms: C_11  and  C_12 
REMARK    5  A    between atoms: C_12  and  N_13 
REMARK    6  A    between atoms: C_19  and  C_20 
ROOT
HETATM    1  C   UNL     1     -39.667 -52.584  14.284  1.00  0.00     0.143 C 
ENDROOT
BRANCH   1   2
HETATM    2  N   UNL     1     -40.961 -53.125  14.653  1.00  0.00    -0.359 N 
HETATM    3  C   UNL     1     -41.683 -53.915  13.785  1.00  0.00     0.221 C 
HETATM    4  O   UNL     1     -41.281 -54.201  12.660  1.00  0.00    -0.273 OA
HETATM    5  H   UNL     1     -41.264 -53.068  15.618  1.00  0.00     0.162 HD
BRANCH   3   6
HETATM    6  C   UNL     1     -43.024 -54.390  14.324  1.00  0.00     0.136 C 
BRANCH   6   7
HETATM    7  C   UNL     1     -44.124 -53.399  14.025  1.00  0.00    -0.075 A 
HETATM    8  C   UNL     1     -44.696 -53.342  12.815  1.00  0.00    -0.023 A 
HETATM    9  C   UNL     1     -45.810 -52.428  12.443  1.00  0.00     0.027 A 
HETATM   10  C   UNL     1     -46.369 -51.529  13.539  1.00  0.00     0.004 A 
HETATM   11  C   UNL     1     -45.747 -51.596  14.931  1.00  0.00     0.005 A 
HETATM   12  C   UNL     1     -44.557 -52.524  15.165  1.00  0.00     0.034 A 
ENDBRANCH   6   7
ENDBRANCH   3   6
ENDBRANCH   1   2
BRANCH   1  13
HETATM   13  C   UNL     1     -39.650 -51.056  14.164  1.00  0.00     0.151 C 
BRANCH  13  14
HETATM   14  N   UNL     1     -39.685 -50.616  12.787  1.00  0.00    -0.329 N 
HETATM   15  C   UNL     1     -38.612 -50.404  11.979  1.00  0.00     0.201 A 
HETATM   16  N   UNL     1     -39.030 -50.037  10.790  1.00  0.00    -0.295 N 
HETATM   17  N   UNL     1     -40.408 -49.994  10.826  1.00  0.00    -0.288 N 
ATOM     18  HN  UNL     1     -38.442 -49.822   9.984  1.00  0.00     0.187 HD
HETATM   19  C   UNL     1     -40.793 -50.355  12.033  1.00  0.00     0.103 A 
ATOM     20  HN  UNL     1     -41.020 -49.729  10.055  1.00  0.00     0.188 HD
BRANCH  19  21
HETATM   21  C   UNL     1     -42.239 -50.488  12.486  1.00  0.00     0.055 A 
HETATM   22  C   UNL     1     -43.108 -49.251  12.434  1.00  0.00     0.013 A 
HETATM   23  C   UNL     1     -42.683 -49.798  13.755  1.00  0.00     0.013 A 
ENDBRANCH  19  21
ENDBRANCH  13  14
ENDBRANCH   1  13
TORSDOF 6
ENDMDL
MODEL 2
REMARK VINA RESULT:      -5.4      2.692      3.444
REMARK  6 active torsions:
REMARK  status: ('A' for Active; 'I' for Inactive)
REMARK    1  A    between atoms: C_2  and  C_3 
REMARK       I    between atoms: C_2  and  N_10 
REMARK    2  A    between atoms: C_3  and  C_4 
REMARK    3  A    between atoms: N_10  and  C_11 
REMARK    4  A    between atoms: C_11  and  C_12 
REMARK    5  A    between atoms: C_12  and  N_13 
REMARK    6  A    between atoms: C_19  and  C_20 
ROOT
HETATM    1  C   UNL     1     -41.271 -49.978  11.958  1.00  0.00     0.143 C 
ENDROOT
BRANCH   1   2
HETATM    2  N   UNL     1     -42.191 -51.087  11.785  1.00  0.00    -0.359 N 
HETATM    3  C   UNL     1     -42.468 -51.957  12.818  1.00  0.00     0.221 C 
HETATM    4  O   UNL     1     -41.957 -51.849  13.929  1.00  0.00    -0.273 OA
HETATM    5  H   UNL     1     -42.770 -51.125  10.954  1.00  0.00     0.162 HD
BRANCH   3   6
HETATM    6  C   UNL     1     -43.445 -53.069  12.465  1.00  0.00     0.136 C 
BRANCH   6   7
HETATM    7  C   UNL     1     -44.714 -52.969  13.277  1.00  0.00    -0.075 A 
HETATM    8  C   UNL     1     -45.191 -54.024  13.953  1.00  0.00    -0.023 A 
HETATM    9  C   UNL     1     -46.410 -54.007  14.807  1.00  0.00     0.027 A 
HETATM   10  C   UNL     1     -47.135 -52.675  14.958  1.00  0.00     0.004 A 
HETATM   11  C   UNL     1     -46.594 -51.456  14.217  1.00  0.00     0.005 A 
HETATM   12  C   UNL     1     -45.377 -51.623  13.310  1.00  0.00     0.034 A 
ENDBRANCH   6   7
ENDBRANCH   3   6
ENDBRANCH   1   2
BRANCH   1  13
HETATM   13  C   UNL     1     -41.967 -48.624  12.135  1.00  0.00     0.151 C 
BRANCH  13  14
HETATM   14  N   UNL     1     -41.344 -47.583  11.350  1.00  0.00    -0.329 N 
HETATM   15  C   UNL     1     -40.027 -47.243  11.359  1.00  0.00     0.201 A 
HETATM   16  N   UNL     1     -39.825 -46.272  10.498  1.00  0.00    -0.295 N 
HETATM   17  N   UNL     1     -41.039 -45.961   9.925  1.00  0.00    -0.288 N 
ATOM     18  HN  UNL     1     -38.930 -45.828  10.290  1.00  0.00     0.187 HD
HETATM   19  C   UNL     1     -41.947 -46.765  10.438  1.00  0.00     0.103 A 
ATOM     20  HN  UNL     1     -41.205 -45.237   9.226  1.00  0.00     0.188 HD
BRANCH  19  21
HETATM   21  C   UNL     1     -43.417 -46.789  10.045  1.00  0.00     0.055 A 
HETATM   22  C   UNL     1     -43.795 -47.543   8.789  1.00  0.00     0.013 A 
HETATM   23  C   UNL     1     -43.862 -46.053   8.802  1.00  0.00     0.013 A 
ENDBRANCH  19  21
ENDBRANCH  13  14
ENDBRANCH   1  13
TORSDOF 6
ENDMDL
MODEL 3
REMARK VINA RESULT:      -5.3      2.274      3.692
REMARK  6 active torsions:
REMARK  status: ('A' for Active; 'I' for Inactive)
REMARK    1  A    between atoms: C_2  and  C_3 
REMARK       I    between atoms: C_2  and  N_10 
REMARK    2  A    between atoms: C_3  and  C_4 
REMARK    3  A    between atoms: N_10  and  C_11 
REMARK    4  A    between atoms: C_11  and  C_12 
REMARK    5  A    between atoms: C_12  and  N_13 
REMARK    6  A    between atoms: C_19  and  C_20 
ROOT
HETATM    1  C   UNL     1     -40.110 -51.623  15.211  1.00  0.00     0.143 C 
ENDROOT
BRANCH   1   2
HETATM    2  N   UNL     1     -41.387 -51.169  15.732  1.00  0.00    -0.359 N 
HETATM    3  C   UNL     1     -41.981 -50.016  15.268  1.00  0.00     0.221 C 
HETATM    4  O   UNL     1     -41.472 -49.310  14.402  1.00  0.00    -0.273 OA
HETATM    5  H   UNL     1     -41.932 -51.792  16.316  1.00  0.00     0.162 HD
BRANCH   3   6
HETATM    6  C   UNL     1     -43.310 -49.679  15.928  1.00  0.00     0.136 C 
BRANCH   6   7
HETATM    7  C   UNL     1     -44.450 -50.446  15.301  1.00  0.00    -0.075 A 
HETATM    8  C   UNL     1     -45.499 -50.849  16.031  1.00  0.00    -0.023 A 
HETATM    9  C   UNL     1     -46.682 -51.575  15.492  1.00  0.00     0.027 A 
HETATM   10  C   UNL     1     -46.717 -51.829  13.990  1.00  0.00     0.004 A 
HETATM   11  C   UNL     1     -45.544 -51.356  13.138  1.00  0.00     0.005 A 
HETATM   12  C   UNL     1     -44.353 -50.690  13.823  1.00  0.00     0.034 A 
ENDBRANCH   6   7
ENDBRANCH   3   6
ENDBRANCH   1   2
BRANCH   1  13
HETATM   13  C   UNL     1     -40.183 -52.980  14.503  1.00  0.00     0.151 C 
BRANCH  13  14
HETATM   14  N   UNL     1     -41.107 -52.967  13.391  1.00  0.00    -0.329 N 
HETATM   15  C   UNL     1     -40.967 -52.270  12.232  1.00  0.00     0.201 A 
HETATM   16  N   UNL     1     -41.988 -52.525  11.447  1.00  0.00    -0.295 N 
HETATM   17  N   UNL     1     -42.822 -53.396  12.115  1.00  0.00    -0.288 N 
ATOM     18  HN  UNL     1     -42.137 -52.147  10.511  1.00  0.00     0.187 HD
HETATM   19  C   UNL     1     -42.276 -53.664  13.283  1.00  0.00     0.103 A 
ATOM     20  HN  UNL     1     -43.705 -53.768  11.766  1.00  0.00     0.188 HD
BRANCH  19  21
HETATM   21  C   UNL     1     -42.849 -54.623  14.316  1.00  0.00     0.055 A 
HETATM   22  C   UNL     1     -44.354 -54.737  14.409  1.00  0.00     0.013 A 
HETATM   23  C   UNL     1     -43.597 -54.067  15.506  1.00  0.00     0.013 A 
ENDBRANCH  19  21
ENDBRANCH  13  14
ENDBRANCH   1  13
TORSDOF 6
ENDMDL
MODEL 4
REMARK VINA RESULT:      -5.3      2.033      2.555
REMARK  6 active torsions:
REMARK  status: ('A' for Active; 'I' for Inactive)
REMARK    1  A    between atoms: C_2  and  C_3 
REMARK       I    between atoms: C_2  and  N_10 
REMARK    2  A    between atoms: C_3  and  C_4 
REMARK    3  A    between atoms: N_10  and  C_11 
REMARK    4  A    between atoms: C_11  and  C_12 
REMARK    5  A    between atoms: C_12  and  N_13 
REMARK    6  A    between atoms: C_19  and  C_20 
ROOT
HETATM    1  C   UNL     1     -41.084 -53.699  16.359  1.00  0.00     0.143 C 
ENDROOT
BRANCH   1   2
HETATM    2  N   UNL     1     -42.518 -53.488  16.425  1.00  0.00    -0.359 N 
HETATM    3  C   UNL     1     -43.406 -54.497  16.123  1.00  0.00     0.221 C 
HETATM    4  O   UNL     1     -43.042 -55.619  15.780  1.00  0.00    -0.273 OA
HETATM    5  H   UNL     1     -42.874 -52.647  16.864  1.00  0.00     0.162 HD
BRANCH   3   6
HETATM    6  C   UNL     1     -44.872 -54.105  16.232  1.00  0.00     0.136 C 
BRANCH   6   7
HETATM    7  C   UNL     1     -45.319 -53.294  15.039  1.00  0.00    -0.075 A 
HETATM    8  C   UNL     1     -44.956 -53.632  13.794  1.00  0.00    -0.023 A 
HETATM    9  C   UNL     1     -45.380 -52.916  12.560  1.00  0.00     0.027 A 
HETATM   10  C   UNL     1     -46.339 -51.744  12.730  1.00  0.00     0.004 A 
HETATM   11  C   UNL     1     -46.785 -51.359  14.137  1.00  0.00     0.005 A 
HETATM   12  C   UNL     1     -46.217 -52.127  15.329  1.00  0.00     0.034 A 
ENDBRANCH   6   7
ENDBRANCH   3   6
ENDBRANCH   1   2
BRANCH   1  13
HETATM   13  C   UNL     1     -40.369 -52.762  15.379  1.00  0.00     0.151 C 
BRANCH  13  14
HETATM   14  N   UNL     1     -40.777 -52.989  14.011  1.00  0.00    -0.329 N 
HETATM   15  C   UNL     1     -40.648 -54.148  13.311  1.00  0.00     0.201 A 
HETATM   16  N   UNL     1     -41.153 -53.986  12.110  1.00  0.00    -0.295 N 
HETATM   17  N   UNL     1     -41.609 -52.688  12.019  1.00  0.00    -0.288 N 
ATOM     18  HN  UNL     1     -41.201 -54.694  11.376  1.00  0.00     0.187 HD
HETATM   19  C   UNL     1     -41.386 -52.098  13.174  1.00  0.00     0.103 A 
ATOM     20  HN  UNL     1     -42.043 -52.261  11.200  1.00  0.00     0.188 HD
BRANCH  19  21
HETATM   21  C   UNL     1     -41.780 -50.670  13.517  1.00  0.00     0.055 A 
HETATM   22  C   UNL     1     -43.055 -50.463  14.306  1.00  0.00     0.013 A 
HETATM   23  C   UNL     1     -43.005 -50.065  12.870  1.00  0.00     0.013 A 
ENDBRANCH  19  21
ENDBRANCH  13  14
ENDBRANCH   1  13
TORSDOF 6
ENDMDL
MODEL 5
REMARK VINA RESULT:      -5.3      0.889      2.570
REMARK  6 active torsions:
REMARK  status: ('A' for Active; 'I' for Inactive)
REMARK    1  A    between atoms: C_2  and  C_3 
REMARK       I    between atoms: C_2  and  N_10 
REMARK    2  A    between atoms: C_3  and  C_4 
REMARK    3  A    between atoms: N_10  and  C_11 
REMARK    4  A    between atoms: C_11  and  C_12 
REMARK    5  A    between atoms: C_12  and  N_13 
REMARK    6  A    between atoms: C_19  and  C_20 
ROOT
HETATM    1  C   UNL     1     -40.359 -52.581  14.851  1.00  0.00     0.143 C 
ENDROOT
BRANCH   1   2
HETATM    2  N   UNL     1     -41.654 -53.211  15.027  1.00  0.00    -0.359 N 
HETATM    3  C   UNL     1     -42.188 -54.034  14.059  1.00  0.00     0.221 C 
HETATM    4  O   UNL     1     -41.610 -54.276  13.003  1.00  0.00    -0.273 OA
HETATM    5  H   UNL     1     -42.095 -53.189  15.939  1.00  0.00     0.162 HD
BRANCH   3   6
HETATM    6  C   UNL     1     -43.558 -54.604  14.397  1.00  0.00     0.136 C 
BRANCH   6   7
HETATM    7  C   UNL     1     -44.643 -53.564  14.250  1.00  0.00    -0.075 A 
HETATM    8  C   UNL     1     -45.205 -52.990  15.323  1.00  0.00    -0.023 A 
HETATM    9  C   UNL     1     -46.250 -51.931  15.272  1.00  0.00     0.027 A 
HETATM   10  C   UNL     1     -46.670 -51.434  13.894  1.00  0.00     0.004 A 
HETATM   11  C   UNL     1     -46.025 -52.057  12.660  1.00  0.00     0.005 A 
HETATM   12  C   UNL     1     -45.018 -53.190  12.845  1.00  0.00     0.034 A 
ENDBRANCH   6   7
ENDBRANCH   3   6
ENDBRANCH   1   2
BRANCH   1  13
HETATM   13  C   UNL     1     -40.439 -51.073  14.591  1.00  0.00     0.151 C 
BRANCH  13  14
HETATM   14  N   UNL     1     -40.745 -50.772  13.211  1.00  0.00    -0.329 N 
HETATM   15  C   UNL     1     -41.982 -50.573  12.681  1.00  0.00     0.201 A 
HETATM   16  N   UNL     1     -41.866 -50.296  11.403  1.00  0.00    -0.295 N 
HETATM   17  N   UNL     1     -40.525 -50.330  11.087  1.00  0.00    -0.288 N 
ATOM     18  HN  UNL     1     -42.632 -50.092  10.760  1.00  0.00     0.187 HD
HETATM   19  C   UNL     1     -39.856 -50.608  12.187  1.00  0.00     0.103 A 
ATOM     20  HN  UNL     1     -40.122 -50.168  10.164  1.00  0.00     0.188 HD
BRANCH  19  21
HETATM   21  C   UNL     1     -38.341 -50.694  12.290  1.00  0.00     0.055 A 
HETATM   22  C   UNL     1     -37.593 -49.443  12.693  1.00  0.00     0.013 A 
HETATM   23  C   UNL     1     -37.488 -49.946  11.293  1.00  0.00     0.013 A 
ENDBRANCH  19  21
ENDBRANCH  13  14
ENDBRANCH   1  13
TORSDOF 6
ENDMDL
MODEL 6
REMARK VINA RESULT:      -5.2      1.697      2.882
REMARK  6 active torsions:
REMARK  status: ('A' for Active; 'I' for Inactive)
REMARK    1  A    between atoms: C_2  and  C_3 
REMARK       I    between atoms: C_2  and  N_10 
REMARK    2  A    between atoms: C_3  and  C_4 
REMARK    3  A    between atoms: N_10  and  C_11 
REMARK    4  A    between atoms: C_11  and  C_12 
REMARK    5  A    between atoms: C_12  and  N_13 
REMARK    6  A    between atoms: C_19  and  C_20 
ROOT
HETATM    1  C   UNL     1     -41.193 -51.993  11.769  1.00  0.00     0.143 C 
ENDROOT
BRANCH   1   2
HETATM    2  N   UNL     1     -42.534 -52.542  11.835  1.00  0.00    -0.359 N 
HETATM    3  C   UNL     1     -42.864 -53.521  12.747  1.00  0.00     0.221 C 
HETATM    4  O   UNL     1     -42.052 -53.984  13.544  1.00  0.00    -0.273 OA
HETATM    5  H   UNL     1     -43.282 -52.084  11.327  1.00  0.00     0.162 HD
BRANCH   3   6
HETATM    6  C   UNL     1     -44.308 -53.994  12.676  1.00  0.00     0.136 C 
BRANCH   6   7
HETATM    7  C   UNL     1     -45.190 -53.228  13.632  1.00  0.00    -0.075 A 
HETATM    8  C   UNL     1     -45.861 -52.137  13.235  1.00  0.00    -0.023 A 
HETATM    9  C   UNL     1     -46.781 -51.344  14.096  1.00  0.00     0.027 A 
HETATM   10  C   UNL     1     -47.009 -51.845  15.517  1.00  0.00     0.004 A 
HETATM   11  C   UNL     1     -46.274 -53.099  15.980  1.00  0.00     0.005 A 
HETATM   12  C   UNL     1     -45.297 -53.780  15.024  1.00  0.00     0.034 A 
ENDBRANCH   6   7
ENDBRANCH   3   6
ENDBRANCH   1   2
BRANCH   1  13
HETATM   13  C   UNL     1     -40.986 -50.767  12.665  1.00  0.00     0.151 C 
BRANCH  13  14
HETATM   14  N   UNL     1     -40.775 -49.560  11.899  1.00  0.00    -0.329 N 
HETATM   15  C   UNL     1     -41.727 -48.835  11.254  1.00  0.00     0.201 A 
HETATM   16  N   UNL     1     -41.168 -47.790  10.689  1.00  0.00    -0.295 N 
HETATM   17  N   UNL     1     -39.817 -47.841  10.959  1.00  0.00    -0.288 N 
ATOM     18  HN  UNL     1     -41.647 -47.069  10.148  1.00  0.00     0.187 HD
HETATM   19  C   UNL     1     -39.592 -48.907  11.698  1.00  0.00     0.103 A 
ATOM     20  HN  UNL     1     -39.116 -47.172  10.642  1.00  0.00     0.188 HD
BRANCH  19  21
HETATM   21  C   UNL     1     -38.236 -49.313  12.257  1.00  0.00     0.055 A 
HETATM   22  C   UNL     1     -37.218 -49.877  11.291  1.00  0.00     0.013 A 
HETATM   23  C   UNL     1     -37.859 -50.776  12.294  1.00  0.00     0.013 A 
ENDBRANCH  19  21
ENDBRANCH  13  14
ENDBRANCH   1  13
TORSDOF 6
ENDMDL
MODEL 7
REMARK VINA RESULT:      -5.1      3.121      4.366
REMARK  6 active torsions:
REMARK  status: ('A' for Active; 'I' for Inactive)
REMARK    1  A    between atoms: C_2  and  C_3 
REMARK       I    between atoms: C_2  and  N_10 
REMARK    2  A    between atoms: C_3  and  C_4 
REMARK    3  A    between atoms: N_10  and  C_11 
REMARK    4  A    between atoms: C_11  and  C_12 
REMARK    5  A    between atoms: C_12  and  N_13 
REMARK    6  A    between atoms: C_19  and  C_20 
ROOT
HETATM    1  C   UNL     1     -41.775 -48.996  11.914  1.00  0.00     0.143 C 
ENDROOT
BRANCH   1   2
HETATM    2  N   UNL     1     -41.796 -50.425  11.662  1.00  0.00    -0.359 N 
HETATM    3  C   UNL     1     -41.371 -51.328  12.613  1.00  0.00     0.221 C 
HETATM    4  O   UNL     1     -40.952 -50.981  13.714  1.00  0.00    -0.273 OA
HETATM    5  H   UNL     1     -42.287 -50.777  10.848  1.00  0.00     0.162 HD
BRANCH   3   6
HETATM    6  C   UNL     1     -41.448 -52.785  12.183  1.00  0.00     0.136 C 
BRANCH   6   7
HETATM    7  C   UNL     1     -42.523 -53.529  12.939  1.00  0.00    -0.075 A 
HETATM    8  C   UNL     1     -42.225 -54.285  14.006  1.00  0.00    -0.023 A 
HETATM    9  C   UNL     1     -43.222 -55.020  14.832  1.00  0.00     0.027 A 
HETATM   10  C   UNL     1     -44.691 -54.856  14.460  1.00  0.00     0.004 A 
HETATM   11  C   UNL     1     -45.052 -53.981  13.264  1.00  0.00     0.005 A 
HETATM   12  C   UNL     1     -43.930 -53.340  12.451  1.00  0.00     0.034 A 
ENDBRANCH   6   7
ENDBRANCH   3   6
ENDBRANCH   1   2
BRANCH   1  13
HETATM   13  C   UNL     1     -41.296 -48.168  10.717  1.00  0.00     0.151 C 
BRANCH  13  14
HETATM   14  N   UNL     1     -41.879 -46.845  10.701  1.00  0.00    -0.329 N 
HETATM   15  C   UNL     1     -41.260 -45.685  11.049  1.00  0.00     0.201 A 
HETATM   16  N   UNL     1     -42.093 -44.683  10.881  1.00  0.00    -0.295 N 
HETATM   17  N   UNL     1     -43.287 -45.203  10.429  1.00  0.00    -0.288 N 
ATOM     18  HN  UNL     1     -41.892 -43.698  11.055  1.00  0.00     0.187 HD
HETATM   19  C   UNL     1     -43.144 -46.506  10.314  1.00  0.00     0.103 A 
ATOM     20  HN  UNL     1     -44.131 -44.671  10.220  1.00  0.00     0.188 HD
BRANCH  19  21
HETATM   21  C   UNL     1     -44.211 -47.461   9.799  1.00  0.00     0.055 A 
HETATM   22  C   UNL     1     -44.294 -47.681   8.304  1.00  0.00     0.013 A 
HETATM   23  C   UNL     1     -45.369 -46.913   8.997  1.00  0.00     0.013 A 
ENDBRANCH  19  21
ENDBRANCH  13  14
ENDBRANCH   1  13
TORSDOF 6
ENDMDL
MODEL 8
REMARK VINA RESULT:      -5.1      3.290      4.513
REMARK  6 active torsions:
REMARK  status: ('A' for Active; 'I' for Inactive)
REMARK    1  A    between atoms: C_2  and  C_3 
REMARK       I    between atoms: C_2  and  N_10 
REMARK    2  A    between atoms: C_3  and  C_4 
REMARK    3  A    between atoms: N_10  and  C_11 
REMARK    4  A    between atoms: C_11  and  C_12 
REMARK    5  A    between atoms: C_12  and  N_13 
REMARK    6  A    between atoms: C_19  and  C_20 
ROOT
HETATM    1  C   UNL     1     -41.950 -49.212  11.932  1.00  0.00     0.143 C 
ENDROOT
BRANCH   1   2
HETATM    2  N   UNL     1     -41.922 -50.654  11.770  1.00  0.00    -0.359 N 
HETATM    3  C   UNL     1     -41.114 -51.448  12.554  1.00  0.00     0.221 C 
HETATM    4  O   UNL     1     -40.375 -50.990  13.421  1.00  0.00    -0.273 OA
HETATM    5  H   UNL     1     -42.629 -51.100  11.197  1.00  0.00     0.162 HD
BRANCH   3   6
HETATM    6  C   UNL     1     -41.198 -52.936  12.247  1.00  0.00     0.136 C 
BRANCH   6   7
HETATM    7  C   UNL     1     -42.325 -53.596  13.006  1.00  0.00    -0.075 A 
HETATM    8  C   UNL     1     -43.583 -53.568  12.544  1.00  0.00    -0.023 A 
HETATM    9  C   UNL     1     -44.746 -54.222  13.204  1.00  0.00     0.027 A 
HETATM   10  C   UNL     1     -44.468 -55.022  14.471  1.00  0.00     0.004 A 
HETATM   11  C   UNL     1     -43.038 -55.087  14.999  1.00  0.00     0.005 A 
HETATM   12  C   UNL     1     -41.945 -54.308  14.271  1.00  0.00     0.034 A 
ENDBRANCH   6   7
ENDBRANCH   3   6
ENDBRANCH   1   2
BRANCH   1  13
HETATM   13  C   UNL     1     -41.512 -48.444  10.680  1.00  0.00     0.151 C 
BRANCH  13  14
HETATM   14  N   UNL     1     -42.393 -47.338  10.382  1.00  0.00    -0.329 N 
HETATM   15  C   UNL     1     -43.730 -47.411  10.145  1.00  0.00     0.201 A 
HETATM   16  N   UNL     1     -44.200 -46.203   9.939  1.00  0.00    -0.295 N 
HETATM   17  N   UNL     1     -43.144 -45.322  10.028  1.00  0.00    -0.288 N 
ATOM     18  HN  UNL     1     -45.173 -45.959   9.747  1.00  0.00     0.187 HD
HETATM   19  C   UNL     1     -42.060 -46.016  10.305  1.00  0.00     0.103 A 
ATOM     20  HN  UNL     1     -43.193 -44.311   9.901  1.00  0.00     0.188 HD
BRANCH  19  21
HETATM   21  C   UNL     1     -40.677 -45.424  10.535  1.00  0.00     0.055 A 
HETATM   22  C   UNL     1     -40.265 -45.137  11.962  1.00  0.00     0.013 A 
HETATM   23  C   UNL     1     -40.555 -44.004  11.037  1.00  0.00     0.013 A 
ENDBRANCH  19  21
ENDBRANCH  13  14
ENDBRANCH   1  13
TORSDOF 6
ENDMDL
MODEL 9
REMARK VINA RESULT:      -5.1      1.476      1.987
REMARK  6 active torsions:
REMARK  status: ('A' for Active; 'I' for Inactive)
REMARK    1  A    between atoms: C_2  and  C_3 
REMARK       I    between atoms: C_2  and  N_10 
REMARK    2  A    between atoms: C_3  and  C_4 
REMARK    3  A    between atoms: N_10  and  C_11 
REMARK    4  A    between atoms: C_11  and  C_12 
REMARK    5  A    between atoms: C_12  and  N_13 
REMARK    6  A    between atoms: C_19  and  C_20 
ROOT
HETATM    1  C   UNL     1     -41.146 -53.818  14.629  1.00  0.00     0.143 C 
ENDROOT
BRANCH   1   2
HETATM    2  N   UNL     1     -42.483 -54.054  14.116  1.00  0.00    -0.359 N 
HETATM    3  C   UNL     1     -43.323 -54.977  14.700  1.00  0.00     0.221 C 
HETATM    4  O   UNL     1     -42.993 -55.648  15.674  1.00  0.00    -0.273 OA
HETATM    5  H   UNL     1     -42.869 -53.416  13.430  1.00  0.00     0.162 HD
BRANCH   3   6
HETATM    6  C   UNL     1     -44.683 -55.109  14.032  1.00  0.00     0.136 C 
BRANCH   6   7
HETATM    7  C   UNL     1     -45.495 -53.844  14.173  1.00  0.00    -0.075 A 
HETATM    8  C   UNL     1     -45.884 -53.400  15.377  1.00  0.00    -0.023 A 
HETATM    9  C   UNL     1     -46.651 -52.146  15.614  1.00  0.00     0.027 A 
HETATM   10  C   UNL     1     -46.970 -51.285  14.398  1.00  0.00     0.004 A 
HETATM   11  C   UNL     1     -46.515 -51.760  13.022  1.00  0.00     0.005 A 
HETATM   12  C   UNL     1     -45.800 -53.105  12.903  1.00  0.00     0.034 A 
ENDBRANCH   6   7
ENDBRANCH   3   6
ENDBRANCH   1   2
BRANCH   1  13
HETATM   13  C   UNL     1     -40.794 -52.333  14.767  1.00  0.00     0.151 C 
BRANCH  13  14
HETATM   14  N   UNL     1     -40.584 -51.700  13.484  1.00  0.00    -0.329 N 
HETATM   15  C   UNL     1     -39.420 -51.668  12.780  1.00  0.00     0.201 A 
HETATM   16  N   UNL     1     -39.616 -51.029  11.650  1.00  0.00    -0.295 N 
HETATM   17  N   UNL     1     -40.933 -50.622  11.621  1.00  0.00    -0.288 N 
ATOM     18  HN  UNL     1     -38.919 -50.864  10.923  1.00  0.00     0.187 HD
HETATM   19  C   UNL     1     -41.510 -51.040  12.728  1.00  0.00     0.103 A 
ATOM     20  HN  UNL     1     -41.380 -50.090  10.875  1.00  0.00     0.188 HD
BRANCH  19  21
HETATM   21  C   UNL     1     -42.978 -50.844  13.077  1.00  0.00     0.055 A 
HETATM   22  C   UNL     1     -43.505 -49.427  13.122  1.00  0.00     0.013 A 
HETATM   23  C   UNL     1     -43.346 -50.195  14.391  1.00  0.00     0.013 A 
ENDBRANCH  19  21
ENDBRANCH  13  14
ENDBRANCH   1  13
TORSDOF 6
ENDMDL
