MODEL 1
REMARK VINA RESULT:      -7.6      0.000      0.000
REMARK  6 active torsions:
REMARK  status: ('A' for Active; 'I' for Inactive)
REMARK    1  A    between atoms: N_1  and  C_8 
REMARK    2  A    between atoms: N_2  and  C_7 
REMARK    3  A    between atoms: C_8  and  C_9 
REMARK       I    between atoms: C_9  and  N_10 
REMARK    4  A    between atoms: N_10  and  C_12 
REMARK    5  A    between atoms: S_11  and  C_14 
REMARK    6  A    between atoms: S_11  and  C_19 
ROOT
HETATM    1  C   UNL     1     -39.642 -50.020  13.657  1.00  0.00     0.240 C 
HETATM    2  N   UNL     1     -39.957 -51.098  12.831  1.00  0.00    -0.325 N 
HETATM    3  O   UNL     1     -39.932 -49.946  14.849  1.00  0.00    -0.271 OA
HETATM    4  H   UNL     1     -40.199 -50.832  11.873  1.00  0.00     0.169 HD
ENDROOT
BRANCH   1   5
HETATM    5  C   UNL     1     -38.917 -48.865  12.932  1.00  0.00     0.240 C 
BRANCH   5   6
HETATM    6  N   UNL     1     -39.778 -47.742  12.551  1.00  0.00    -0.255 N 
HETATM    7  C   UNL     1     -40.531 -47.869  11.394  1.00  0.00     0.334 C 
HETATM    8  N   UNL     1     -41.426 -46.844  11.115  1.00  0.00    -0.279 N 
HETATM    9  O   UNL     1     -40.452 -48.867  10.672  1.00  0.00    -0.246 OA
HETATM   10  C   UNL     1     -41.380 -45.642  11.783  1.00  0.00     0.146 C 
HETATM   11  C   UNL     1     -40.493 -45.433  12.753  1.00  0.00     0.200 C 
HETATM   12  C   UNL     1     -39.580 -46.516  13.178  1.00  0.00     0.292 C 
HETATM   13  F   UNL     1     -40.390 -44.249  13.387  1.00  0.00    -0.199 F 
HETATM   14  O   UNL     1     -38.694 -46.292  13.998  1.00  0.00    -0.264 OA
BRANCH   8  15
HETATM   15  C   UNL     1     -42.424 -47.133  10.096  1.00  0.00     0.232 C 
HETATM   16  O   UNL     1     -42.737 -45.998   9.275  1.00  0.00    -0.366 OA
HETATM   17  C   UNL     1     -44.091 -46.158   8.812  1.00  0.00     0.170 C 
HETATM   18  C   UNL     1     -44.702 -47.331   9.554  1.00  0.00     0.031 C 
HETATM   19  C   UNL     1     -43.762 -47.528  10.709  1.00  0.00     0.056 C 
ENDBRANCH   8  15
ENDBRANCH   5   6
ENDBRANCH   1   5
BRANCH   2  20
HETATM   20  C   UNL     1     -40.607 -52.242  13.344  1.00  0.00     0.052 A 
HETATM   21  C   UNL     1     -42.011 -52.369  13.326  1.00  0.00     0.032 A 
HETATM   22  C   UNL     1     -42.591 -53.528  13.869  1.00  0.00     0.021 A 
HETATM   23  C   UNL     1     -41.793 -54.522  14.449  1.00  0.00     0.002 A 
HETATM   24  C   UNL     1     -40.412 -54.357  14.523  1.00  0.00     0.002 A 
HETATM   25  C   UNL     1     -39.822 -53.212  13.984  1.00  0.00     0.031 A 
BRANCH  21  26
HETATM   26  S   UNL     1     -43.047 -50.946  12.948  1.00  0.00    -0.088 SA
BRANCH  26  27
HETATM   27  C   UNL     1     -44.461 -51.086  14.014  1.00  0.00     0.005 A 
HETATM   28  C   UNL     1     -44.311 -50.744  15.366  1.00  0.00     0.020 A 
HETATM   29  C   UNL     1     -45.403 -50.793  16.239  1.00  0.00     0.025 A 
HETATM   30  C   UNL     1     -46.651 -51.178  15.759  1.00  0.00     0.034 A 
HETATM   31  C   UNL     1     -46.822 -51.483  14.410  1.00  0.00     0.025 A 
HETATM   32 CL   UNL     1     -47.987 -51.280  16.837  1.00  0.00    -0.084 Cl
HETATM   33  C   UNL     1     -45.728 -51.432  13.539  1.00  0.00     0.020 A 
ENDBRANCH  26  27
ENDBRANCH  21  26
ENDBRANCH   2  20
TORSDOF 6
ENDMDL
MODEL 2
REMARK VINA RESULT:      -7.3      2.220      3.506
REMARK  6 active torsions:
REMARK  status: ('A' for Active; 'I' for Inactive)
REMARK    1  A    between atoms: N_1  and  C_8 
REMARK    2  A    between atoms: N_2  and  C_7 
REMARK    3  A    between atoms: C_8  and  C_9 
REMARK       I    between atoms: C_9  and  N_10 
REMARK    4  A    between atoms: N_10  and  C_12 
REMARK    5  A    between atoms: S_11  and  C_14 
REMARK    6  A    between atoms: S_11  and  C_19 
ROOT
HETATM    1  C   UNL     1     -39.211 -52.801  14.491  1.00  0.00     0.240 C 
HETATM    2  N   UNL     1     -40.249 -52.819  15.423  1.00  0.00    -0.325 N 
HETATM    3  O   UNL     1     -39.010 -53.677  13.654  1.00  0.00    -0.271 OA
HETATM    4  H   UNL     1     -39.995 -52.434  16.336  1.00  0.00     0.169 HD
ENDROOT
BRANCH   1   5
HETATM    5  C   UNL     1     -38.272 -51.582  14.622  1.00  0.00     0.240 C 
BRANCH   5   6
HETATM    6  N   UNL     1     -38.373 -50.609  13.530  1.00  0.00    -0.255 N 
HETATM    7  C   UNL     1     -39.463 -49.751  13.529  1.00  0.00     0.334 C 
HETATM    8  N   UNL     1     -39.478 -48.762  12.554  1.00  0.00    -0.279 N 
HETATM    9  O   UNL     1     -40.350 -49.826  14.383  1.00  0.00    -0.246 OA
HETATM   10  C   UNL     1     -38.618 -48.792  11.480  1.00  0.00     0.146 C 
HETATM   11  C   UNL     1     -37.711 -49.758  11.357  1.00  0.00     0.200 C 
HETATM   12  C   UNL     1     -37.564 -50.784  12.413  1.00  0.00     0.292 C 
HETATM   13  F   UNL     1     -36.893 -49.842  10.291  1.00  0.00    -0.199 F 
HETATM   14  O   UNL     1     -36.800 -51.731  12.251  1.00  0.00    -0.264 OA
BRANCH   8  15
HETATM   15  C   UNL     1     -40.438 -47.687  12.756  1.00  0.00     0.232 C 
HETATM   16  O   UNL     1     -41.615 -47.824  11.947  1.00  0.00    -0.366 OA
HETATM   17  C   UNL     1     -42.132 -46.501  11.708  1.00  0.00     0.170 C 
HETATM   18  C   UNL     1     -41.108 -45.501  12.211  1.00  0.00     0.031 C 
HETATM   19  C   UNL     1     -39.866 -46.334  12.354  1.00  0.00     0.056 C 
ENDBRANCH   8  15
ENDBRANCH   5   6
ENDBRANCH   1   5
BRANCH   2  20
HETATM   20  C   UNL     1     -41.204 -53.858  15.427  1.00  0.00     0.052 A 
HETATM   21  C   UNL     1     -42.419 -53.753  14.720  1.00  0.00     0.032 A 
HETATM   22  C   UNL     1     -43.330 -54.822  14.781  1.00  0.00     0.021 A 
HETATM   23  C   UNL     1     -43.054 -55.953  15.558  1.00  0.00     0.002 A 
HETATM   24  C   UNL     1     -41.881 -56.020  16.306  1.00  0.00     0.002 A 
HETATM   25  C   UNL     1     -40.964 -54.968  16.251  1.00  0.00     0.031 A 
BRANCH  21  26
HETATM   26  S   UNL     1     -42.947 -52.167  14.053  1.00  0.00    -0.088 SA
BRANCH  26  27
HETATM   27  C   UNL     1     -44.432 -51.747  14.934  1.00  0.00     0.005 A 
HETATM   28  C   UNL     1     -45.637 -51.692  14.218  1.00  0.00     0.020 A 
HETATM   29  C   UNL     1     -46.841 -51.410  14.869  1.00  0.00     0.025 A 
HETATM   30  C   UNL     1     -46.845 -51.189  16.244  1.00  0.00     0.034 A 
HETATM   31  C   UNL     1     -45.661 -51.279  16.973  1.00  0.00     0.025 A 
HETATM   32 CL   UNL     1     -48.317 -50.801  17.043  1.00  0.00    -0.084 Cl
HETATM   33  C   UNL     1     -44.457 -51.562  16.317  1.00  0.00     0.020 A 
ENDBRANCH  26  27
ENDBRANCH  21  26
ENDBRANCH   2  20
TORSDOF 6
ENDMDL
MODEL 3
REMARK VINA RESULT:      -7.3      1.693      2.196
REMARK  6 active torsions:
REMARK  status: ('A' for Active; 'I' for Inactive)
REMARK    1  A    between atoms: N_1  and  C_8 
REMARK    2  A    between atoms: N_2  and  C_7 
REMARK    3  A    between atoms: C_8  and  C_9 
REMARK       I    between atoms: C_9  and  N_10 
REMARK    4  A    between atoms: N_10  and  C_12 
REMARK    5  A    between atoms: S_11  and  C_14 
REMARK    6  A    between atoms: S_11  and  C_19 
ROOT
HETATM    1  C   UNL     1     -37.902 -51.012  13.113  1.00  0.00     0.240 C 
HETATM    2  N   UNL     1     -39.011 -51.138  13.948  1.00  0.00    -0.325 N 
HETATM    3  O   UNL     1     -37.173 -51.941  12.775  1.00  0.00    -0.271 OA
HETATM    4  H   UNL     1     -39.149 -50.345  14.580  1.00  0.00     0.169 HD
ENDROOT
BRANCH   1   5
HETATM    5  C   UNL     1     -37.618 -49.561  12.663  1.00  0.00     0.240 C 
BRANCH   5   6
HETATM    6  N   UNL     1     -38.762 -48.651  12.768  1.00  0.00    -0.255 N 
HETATM    7  C   UNL     1     -39.745 -48.735  11.794  1.00  0.00     0.334 C 
HETATM    8  N   UNL     1     -40.874 -47.947  11.977  1.00  0.00    -0.279 N 
HETATM    9  O   UNL     1     -39.650 -49.511  10.840  1.00  0.00    -0.246 OA
HETATM   10  C   UNL     1     -40.907 -46.935  12.909  1.00  0.00     0.146 C 
HETATM   11  C   UNL     1     -39.863 -46.700  13.700  1.00  0.00     0.200 C 
HETATM   12  C   UNL     1     -38.667 -47.569  13.636  1.00  0.00     0.292 C 
HETATM   13  F   UNL     1     -39.847 -45.684  14.583  1.00  0.00    -0.199 F 
HETATM   14  O   UNL     1     -37.666 -47.289  14.290  1.00  0.00    -0.264 OA
BRANCH   8  15
HETATM   15  C   UNL     1     -42.020 -48.277  11.141  1.00  0.00     0.232 C 
HETATM   16  O   UNL     1     -41.939 -47.708   9.826  1.00  0.00    -0.366 OA
HETATM   17  C   UNL     1     -43.286 -47.511   9.357  1.00  0.00     0.170 C 
HETATM   18  C   UNL     1     -44.228 -47.770  10.517  1.00  0.00     0.031 C 
HETATM   19  C   UNL     1     -43.316 -47.715  11.710  1.00  0.00     0.056 C 
ENDBRANCH   8  15
ENDBRANCH   5   6
ENDBRANCH   1   5
BRANCH   2  20
HETATM   20  C   UNL     1     -39.415 -52.401  14.434  1.00  0.00     0.052 A 
HETATM   21  C   UNL     1     -40.234 -53.262  13.675  1.00  0.00     0.032 A 
HETATM   22  C   UNL     1     -40.609 -54.498  14.229  1.00  0.00     0.021 A 
HETATM   23  C   UNL     1     -40.207 -54.854  15.521  1.00  0.00     0.002 A 
HETATM   24  C   UNL     1     -39.454 -53.970  16.289  1.00  0.00     0.002 A 
HETATM   25  C   UNL     1     -39.070 -52.739  15.751  1.00  0.00     0.031 A 
BRANCH  21  26
HETATM   26  S   UNL     1     -41.066 -52.655  12.199  1.00  0.00    -0.088 SA
BRANCH  26  27
HETATM   27  C   UNL     1     -42.706 -52.213  12.721  1.00  0.00     0.005 A 
HETATM   28  C   UNL     1     -43.742 -53.133  12.508  1.00  0.00     0.020 A 
HETATM   29  C   UNL     1     -45.043 -52.855  12.939  1.00  0.00     0.025 A 
HETATM   30  C   UNL     1     -45.310 -51.655  13.592  1.00  0.00     0.034 A 
HETATM   31  C   UNL     1     -44.281 -50.749  13.845  1.00  0.00     0.025 A 
HETATM   32 CL   UNL     1     -46.915 -51.290  14.087  1.00  0.00    -0.084 Cl
HETATM   33  C   UNL     1     -42.981 -51.032  13.413  1.00  0.00     0.020 A 
ENDBRANCH  26  27
ENDBRANCH  21  26
ENDBRANCH   2  20
TORSDOF 6
ENDMDL
MODEL 4
REMARK VINA RESULT:      -7.2      3.047      5.054
REMARK  6 active torsions:
REMARK  status: ('A' for Active; 'I' for Inactive)
REMARK    1  A    between atoms: N_1  and  C_8 
REMARK    2  A    between atoms: N_2  and  C_7 
REMARK    3  A    between atoms: C_8  and  C_9 
REMARK       I    between atoms: C_9  and  N_10 
REMARK    4  A    between atoms: N_10  and  C_12 
REMARK    5  A    between atoms: S_11  and  C_14 
REMARK    6  A    between atoms: S_11  and  C_19 
ROOT
HETATM    1  C   UNL     1     -42.757 -51.468  13.183  1.00  0.00     0.240 C 
HETATM    2  N   UNL     1     -43.965 -52.075  12.842  1.00  0.00    -0.325 N 
HETATM    3  O   UNL     1     -42.496 -51.003  14.290  1.00  0.00    -0.271 OA
HETATM    4  H   UNL     1     -44.271 -51.884  11.885  1.00  0.00     0.169 HD
ENDROOT
BRANCH   1   5
HETATM    5  C   UNL     1     -41.750 -51.379  12.015  1.00  0.00     0.240 C 
BRANCH   5   6
HETATM    6  N   UNL     1     -40.678 -50.397  12.202  1.00  0.00    -0.255 N 
HETATM    7  C   UNL     1     -40.896 -49.108  11.739  1.00  0.00     0.334 C 
HETATM    8  N   UNL     1     -39.917 -48.166  12.030  1.00  0.00    -0.279 N 
HETATM    9  O   UNL     1     -41.931 -48.796  11.146  1.00  0.00    -0.246 OA
HETATM   10  C   UNL     1     -38.677 -48.533  12.501  1.00  0.00     0.146 C 
HETATM   11  C   UNL     1     -38.384 -49.811  12.730  1.00  0.00     0.200 C 
HETATM   12  C   UNL     1     -39.412 -50.859  12.546  1.00  0.00     0.292 C 
HETATM   13  F   UNL     1     -37.163 -50.204  13.139  1.00  0.00    -0.199 F 
HETATM   14  O   UNL     1     -39.112 -52.044  12.657  1.00  0.00    -0.264 OA
BRANCH   8  15
HETATM   15  C   UNL     1     -40.297 -46.775  11.832  1.00  0.00     0.232 C 
HETATM   16  O   UNL     1     -39.879 -46.254  10.561  1.00  0.00    -0.366 OA
HETATM   17  C   UNL     1     -39.688 -44.835  10.717  1.00  0.00     0.170 C 
HETATM   18  C   UNL     1     -39.784 -44.510  12.196  1.00  0.00     0.031 C 
HETATM   19  C   UNL     1     -39.630 -45.856  12.847  1.00  0.00     0.056 C 
ENDBRANCH   8  15
ENDBRANCH   5   6
ENDBRANCH   1   5
BRANCH   2  20
HETATM   20  C   UNL     1     -44.986 -52.248  13.802  1.00  0.00     0.052 A 
HETATM   21  C   UNL     1     -45.119 -53.443  14.538  1.00  0.00     0.032 A 
HETATM   22  C   UNL     1     -46.169 -53.552  15.466  1.00  0.00     0.021 A 
HETATM   23  C   UNL     1     -47.087 -52.507  15.632  1.00  0.00     0.002 A 
HETATM   24  C   UNL     1     -46.987 -51.357  14.854  1.00  0.00     0.002 A 
HETATM   25  C   UNL     1     -45.947 -51.234  13.930  1.00  0.00     0.031 A 
BRANCH  21  26
HETATM   26  S   UNL     1     -44.200 -54.914  14.055  1.00  0.00    -0.088 SA
BRANCH  26  27
HETATM   27  C   UNL     1     -42.694 -54.869  14.996  1.00  0.00     0.005 A 
HETATM   28  C   UNL     1     -41.515 -54.476  14.346  1.00  0.00     0.020 A 
HETATM   29  C   UNL     1     -40.311 -54.381  15.049  1.00  0.00     0.025 A 
HETATM   30  C   UNL     1     -40.284 -54.672  16.410  1.00  0.00     0.034 A 
HETATM   31  C   UNL     1     -41.456 -55.025  17.076  1.00  0.00     0.025 A 
HETATM   32 CL   UNL     1     -38.797 -54.596  17.271  1.00  0.00    -0.084 Cl
HETATM   33  C   UNL     1     -42.659 -55.119  16.369  1.00  0.00     0.020 A 
ENDBRANCH  26  27
ENDBRANCH  21  26
ENDBRANCH   2  20
TORSDOF 6
ENDMDL
MODEL 5
REMARK VINA RESULT:      -7.2      2.246      2.700
REMARK  6 active torsions:
REMARK  status: ('A' for Active; 'I' for Inactive)
REMARK    1  A    between atoms: N_1  and  C_8 
REMARK    2  A    between atoms: N_2  and  C_7 
REMARK    3  A    between atoms: C_8  and  C_9 
REMARK       I    between atoms: C_9  and  N_10 
REMARK    4  A    between atoms: N_10  and  C_12 
REMARK    5  A    between atoms: S_11  and  C_14 
REMARK    6  A    between atoms: S_11  and  C_19 
ROOT
HETATM    1  C   UNL     1     -40.575 -51.989  13.526  1.00  0.00     0.240 C 
HETATM    2  N   UNL     1     -40.574 -52.220  14.902  1.00  0.00    -0.325 N 
HETATM    3  O   UNL     1     -40.899 -52.818  12.679  1.00  0.00    -0.271 OA
HETATM    4  H   UNL     1     -39.808 -51.761  15.400  1.00  0.00     0.169 HD
ENDROOT
BRANCH   1   5
HETATM    5  C   UNL     1     -40.077 -50.583  13.127  1.00  0.00     0.240 C 
BRANCH   5   6
HETATM    6  N   UNL     1     -41.129 -49.568  13.010  1.00  0.00    -0.255 N 
HETATM    7  C   UNL     1     -41.364 -49.025  11.757  1.00  0.00     0.334 C 
HETATM    8  N   UNL     1     -42.441 -48.154  11.646  1.00  0.00    -0.279 N 
HETATM    9  O   UNL     1     -40.688 -49.338  10.774  1.00  0.00    -0.246 OA
HETATM   10  C   UNL     1     -43.070 -47.637  12.756  1.00  0.00     0.146 C 
HETATM   11  C   UNL     1     -42.689 -47.986  13.982  1.00  0.00     0.200 C 
HETATM   12  C   UNL     1     -41.621 -48.991  14.176  1.00  0.00     0.292 C 
HETATM   13  F   UNL     1     -43.250 -47.455  15.085  1.00  0.00    -0.199 F 
HETATM   14  O   UNL     1     -41.199 -49.234  15.303  1.00  0.00    -0.264 OA
BRANCH   8  15
HETATM   15  C   UNL     1     -42.873 -47.849  10.290  1.00  0.00     0.232 C 
HETATM   16  O   UNL     1     -42.364 -46.597   9.806  1.00  0.00    -0.366 OA
HETATM   17  C   UNL     1     -43.305 -46.091   8.841  1.00  0.00     0.170 C 
HETATM   18  C   UNL     1     -44.545 -46.964   8.896  1.00  0.00     0.031 C 
HETATM   19  C   UNL     1     -44.386 -47.694  10.199  1.00  0.00     0.056 C 
ENDBRANCH   8  15
ENDBRANCH   5   6
ENDBRANCH   1   5
BRANCH   2  20
HETATM   20  C   UNL     1     -41.017 -53.451  15.432  1.00  0.00     0.052 A 
HETATM   21  C   UNL     1     -42.341 -53.634  15.880  1.00  0.00     0.032 A 
HETATM   22  C   UNL     1     -42.707 -54.884  16.410  1.00  0.00     0.021 A 
HETATM   23  C   UNL     1     -41.767 -55.915  16.525  1.00  0.00     0.002 A 
HETATM   24  C   UNL     1     -40.446 -55.703  16.141  1.00  0.00     0.002 A 
HETATM   25  C   UNL     1     -40.068 -54.469  15.609  1.00  0.00     0.031 A 
BRANCH  21  26
HETATM   26  S   UNL     1     -43.429 -52.218  16.099  1.00  0.00    -0.088 SA
BRANCH  26  27
HETATM   27  C   UNL     1     -44.515 -52.225  14.693  1.00  0.00     0.005 A 
HETATM   28  C   UNL     1     -45.660 -51.416  14.734  1.00  0.00     0.020 A 
HETATM   29  C   UNL     1     -46.526 -51.350  13.637  1.00  0.00     0.025 A 
HETATM   30  C   UNL     1     -46.242 -52.088  12.491  1.00  0.00     0.034 A 
HETATM   31  C   UNL     1     -45.087 -52.865  12.424  1.00  0.00     0.025 A 
HETATM   32 CL   UNL     1     -47.324 -52.042  11.156  1.00  0.00    -0.084 Cl
HETATM   33  C   UNL     1     -44.224 -52.928  13.523  1.00  0.00     0.020 A 
ENDBRANCH  26  27
ENDBRANCH  21  26
ENDBRANCH   2  20
TORSDOF 6
ENDMDL
MODEL 6
REMARK VINA RESULT:      -7.1      3.036      4.835
REMARK  6 active torsions:
REMARK  status: ('A' for Active; 'I' for Inactive)
REMARK    1  A    between atoms: N_1  and  C_8 
REMARK    2  A    between atoms: N_2  and  C_7 
REMARK    3  A    between atoms: C_8  and  C_9 
REMARK       I    between atoms: C_9  and  N_10 
REMARK    4  A    between atoms: N_10  and  C_12 
REMARK    5  A    between atoms: S_11  and  C_14 
REMARK    6  A    between atoms: S_11  and  C_19 
ROOT
HETATM    1  C   UNL     1     -42.316 -51.897  12.732  1.00  0.00     0.240 C 
HETATM    2  N   UNL     1     -43.343 -50.953  12.731  1.00  0.00    -0.325 N 
HETATM    3  O   UNL     1     -42.280 -52.889  13.455  1.00  0.00    -0.271 OA
HETATM    4  H   UNL     1     -43.025 -49.993  12.581  1.00  0.00     0.169 HD
ENDROOT
BRANCH   1   5
HETATM    5  C   UNL     1     -41.164 -51.570  11.756  1.00  0.00     0.240 C 
BRANCH   5   6
HETATM    6  N   UNL     1     -40.273 -50.492  12.196  1.00  0.00    -0.255 N 
HETATM    7  C   UNL     1     -40.511 -49.217  11.705  1.00  0.00     0.334 C 
HETATM    8  N   UNL     1     -39.730 -48.192  12.225  1.00  0.00    -0.279 N 
HETATM    9  O   UNL     1     -41.406 -48.992  10.888  1.00  0.00    -0.246 OA
HETATM   10  C   UNL     1     -38.602 -48.449  12.970  1.00  0.00     0.146 C 
HETATM   11  C   UNL     1     -38.239 -49.698  13.253  1.00  0.00     0.200 C 
HETATM   12  C   UNL     1     -39.081 -50.836  12.825  1.00  0.00     0.292 C 
HETATM   13  F   UNL     1     -37.112 -49.980  13.934  1.00  0.00    -0.199 F 
HETATM   14  O   UNL     1     -38.694 -51.989  12.994  1.00  0.00    -0.264 OA
BRANCH   8  15
HETATM   15  C   UNL     1     -40.196 -46.841  11.953  1.00  0.00     0.232 C 
HETATM   16  O   UNL     1     -39.739 -46.332  10.690  1.00  0.00    -0.366 OA
HETATM   17  C   UNL     1     -39.660 -44.899  10.804  1.00  0.00     0.170 C 
HETATM   18  C   UNL     1     -39.870 -44.534  12.262  1.00  0.00     0.031 C 
HETATM   19  C   UNL     1     -39.660 -45.842  12.971  1.00  0.00     0.056 C 
ENDBRANCH   8  15
ENDBRANCH   5   6
ENDBRANCH   1   5
BRANCH   2  20
HETATM   20  C   UNL     1     -44.477 -51.114  13.556  1.00  0.00     0.052 A 
HETATM   21  C   UNL     1     -44.507 -50.631  14.880  1.00  0.00     0.032 A 
HETATM   22  C   UNL     1     -45.665 -50.841  15.649  1.00  0.00     0.021 A 
HETATM   23  C   UNL     1     -46.754 -51.547  15.124  1.00  0.00     0.002 A 
HETATM   24  C   UNL     1     -46.689 -52.078  13.838  1.00  0.00     0.002 A 
HETATM   25  C   UNL     1     -45.547 -51.874  13.061  1.00  0.00     0.031 A 
BRANCH  21  26
HETATM   26  S   UNL     1     -42.992 -50.081  15.681  1.00  0.00    -0.088 SA
BRANCH  26  27
HETATM   27  C   UNL     1     -42.974 -48.313  15.511  1.00  0.00     0.005 A 
HETATM   28  C   UNL     1     -43.021 -47.769  14.219  1.00  0.00     0.020 A 
HETATM   29  C   UNL     1     -43.054 -46.384  14.029  1.00  0.00     0.025 A 
HETATM   30  C   UNL     1     -43.048 -45.537  15.135  1.00  0.00     0.034 A 
HETATM   31  C   UNL     1     -43.041 -46.066  16.424  1.00  0.00     0.025 A 
HETATM   32 CL   UNL     1     -43.047 -43.833  14.906  1.00  0.00    -0.084 Cl
HETATM   33  C   UNL     1     -43.009 -47.452  16.610  1.00  0.00     0.020 A 
ENDBRANCH  26  27
ENDBRANCH  21  26
ENDBRANCH   2  20
TORSDOF 6
ENDMDL
MODEL 7
REMARK VINA RESULT:      -6.9      4.170      8.369
REMARK  6 active torsions:
REMARK  status: ('A' for Active; 'I' for Inactive)
REMARK    1  A    between atoms: N_1  and  C_8 
REMARK    2  A    between atoms: N_2  and  C_7 
REMARK    3  A    between atoms: C_8  and  C_9 
REMARK       I    between atoms: C_9  and  N_10 
REMARK    4  A    between atoms: N_10  and  C_12 
REMARK    5  A    between atoms: S_11  and  C_14 
REMARK    6  A    between atoms: S_11  and  C_19 
ROOT
HETATM    1  C   UNL     1     -41.447 -51.171  12.109  1.00  0.00     0.240 C 
HETATM    2  N   UNL     1     -40.859 -50.443  11.075  1.00  0.00    -0.325 N 
HETATM    3  O   UNL     1     -41.937 -50.675  13.121  1.00  0.00    -0.271 OA
HETATM    4  H   UNL     1     -40.047 -50.901  10.654  1.00  0.00     0.169 HD
ENDROOT
BRANCH   1   5
HETATM    5  C   UNL     1     -41.397 -52.701  11.906  1.00  0.00     0.240 C 
BRANCH   5   6
HETATM    6  N   UNL     1     -41.481 -53.488  13.140  1.00  0.00    -0.255 N 
HETATM    7  C   UNL     1     -40.292 -53.863  13.748  1.00  0.00     0.334 C 
HETATM    8  N   UNL     1     -40.394 -54.506  14.975  1.00  0.00    -0.279 N 
HETATM    9  O   UNL     1     -39.195 -53.594  13.253  1.00  0.00    -0.246 OA
HETATM   10  C   UNL     1     -41.594 -54.995  15.438  1.00  0.00     0.146 C 
HETATM   11  C   UNL     1     -42.714 -54.836  14.736  1.00  0.00     0.200 C 
HETATM   12  C   UNL     1     -42.700 -54.067  13.472  1.00  0.00     0.292 C 
HETATM   13  F   UNL     1     -43.891 -55.350  15.139  1.00  0.00    -0.199 F 
HETATM   14  O   UNL     1     -43.709 -54.009  12.775  1.00  0.00    -0.264 OA
BRANCH   8  15
HETATM   15  C   UNL     1     -39.162 -54.602  15.745  1.00  0.00     0.232 C 
HETATM   16  O   UNL     1     -38.606 -55.925  15.752  1.00  0.00    -0.366 OA
HETATM   17  C   UNL     1     -37.865 -56.076  16.978  1.00  0.00     0.170 C 
HETATM   18  C   UNL     1     -38.160 -54.872  17.853  1.00  0.00     0.031 C 
HETATM   19  C   UNL     1     -39.388 -54.286  17.218  1.00  0.00     0.056 C 
ENDBRANCH   8  15
ENDBRANCH   5   6
ENDBRANCH   1   5
BRANCH   2  20
HETATM   20  C   UNL     1     -40.837 -49.032  11.102  1.00  0.00     0.052 A 
HETATM   21  C   UNL     1     -39.695 -48.315  11.513  1.00  0.00     0.032 A 
HETATM   22  C   UNL     1     -39.750 -46.910  11.529  1.00  0.00     0.021 A 
HETATM   23  C   UNL     1     -40.925 -46.236  11.178  1.00  0.00     0.002 A 
HETATM   24  C   UNL     1     -42.068 -46.955  10.837  1.00  0.00     0.002 A 
HETATM   25  C   UNL     1     -42.028 -48.350  10.812  1.00  0.00     0.031 A 
BRANCH  21  26
HETATM   26  S   UNL     1     -38.335 -49.164  12.330  1.00  0.00    -0.088 SA
BRANCH  26  27
HETATM   27  C   UNL     1     -38.401 -48.651  14.030  1.00  0.00     0.005 A 
HETATM   28  C   UNL     1     -37.317 -47.927  14.548  1.00  0.00     0.020 A 
HETATM   29  C   UNL     1     -37.336 -47.461  15.867  1.00  0.00     0.025 A 
HETATM   30  C   UNL     1     -38.446 -47.711  16.669  1.00  0.00     0.034 A 
HETATM   31  C   UNL     1     -39.545 -48.395  16.154  1.00  0.00     0.025 A 
HETATM   32 CL   UNL     1     -38.457 -47.176  18.303  1.00  0.00    -0.084 Cl
HETATM   33  C   UNL     1     -39.522 -48.860  14.834  1.00  0.00     0.020 A 
ENDBRANCH  26  27
ENDBRANCH  21  26
ENDBRANCH   2  20
TORSDOF 6
ENDMDL
MODEL 8
REMARK VINA RESULT:      -6.8      4.257      7.274
REMARK  6 active torsions:
REMARK  status: ('A' for Active; 'I' for Inactive)
REMARK    1  A    between atoms: N_1  and  C_8 
REMARK    2  A    between atoms: N_2  and  C_7 
REMARK    3  A    between atoms: C_8  and  C_9 
REMARK       I    between atoms: C_9  and  N_10 
REMARK    4  A    between atoms: N_10  and  C_12 
REMARK    5  A    between atoms: S_11  and  C_14 
REMARK    6  A    between atoms: S_11  and  C_19 
ROOT
HETATM    1  C   UNL     1     -42.396 -53.863  14.180  1.00  0.00     0.240 C 
HETATM    2  N   UNL     1     -42.182 -52.619  14.775  1.00  0.00    -0.325 N 
HETATM    3  O   UNL     1     -41.560 -54.475  13.521  1.00  0.00    -0.271 OA
HETATM    4  H   UNL     1     -42.999 -52.005  14.760  1.00  0.00     0.169 HD
ENDROOT
BRANCH   1   5
HETATM    5  C   UNL     1     -43.826 -54.413  14.378  1.00  0.00     0.240 C 
BRANCH   5   6
HETATM    6  N   UNL     1     -44.877 -53.392  14.426  1.00  0.00    -0.255 N 
HETATM    7  C   UNL     1     -45.511 -53.176  15.640  1.00  0.00     0.334 C 
HETATM    8  N   UNL     1     -46.419 -52.125  15.692  1.00  0.00    -0.279 N 
HETATM    9  O   UNL     1     -45.246 -53.846  16.641  1.00  0.00    -0.246 OA
HETATM   10  C   UNL     1     -46.878 -51.509  14.550  1.00  0.00     0.146 C 
HETATM   11  C   UNL     1     -46.435 -51.876  13.350  1.00  0.00     0.200 C 
HETATM   12  C   UNL     1     -45.388 -52.914  13.225  1.00  0.00     0.292 C 
HETATM   13  F   UNL     1     -46.906 -51.328  12.214  1.00  0.00    -0.199 F 
HETATM   14  O   UNL     1     -45.056 -53.325  12.116  1.00  0.00    -0.264 OA
BRANCH   8  15
HETATM   15  C   UNL     1     -46.829 -51.706  17.024  1.00  0.00     0.232 C 
HETATM   16  O   UNL     1     -48.230 -51.407  17.114  1.00  0.00    -0.366 OA
HETATM   17  C   UNL     1     -48.398 -50.431  18.158  1.00  0.00     0.170 C 
HETATM   18  C   UNL     1     -47.020 -49.954  18.578  1.00  0.00     0.031 C 
HETATM   19  C   UNL     1     -46.145 -50.412  17.446  1.00  0.00     0.056 C 
ENDBRANCH   8  15
ENDBRANCH   5   6
ENDBRANCH   1   5
BRANCH   2  20
HETATM   20  C   UNL     1     -40.922 -51.987  14.700  1.00  0.00     0.052 A 
HETATM   21  C   UNL     1     -40.599 -51.097  13.655  1.00  0.00     0.032 A 
HETATM   22  C   UNL     1     -39.319 -50.516  13.635  1.00  0.00     0.021 A 
HETATM   23  C   UNL     1     -38.372 -50.839  14.613  1.00  0.00     0.002 A 
HETATM   24  C   UNL     1     -38.677 -51.769  15.604  1.00  0.00     0.002 A 
HETATM   25  C   UNL     1     -39.946 -52.352  15.639  1.00  0.00     0.031 A 
BRANCH  21  26
HETATM   26  S   UNL     1     -41.653 -50.984  12.201  1.00  0.00    -0.088 SA
BRANCH  26  27
HETATM   27  C   UNL     1     -41.868 -49.246  11.898  1.00  0.00     0.005 A 
HETATM   28  C   UNL     1     -42.721 -48.525  12.747  1.00  0.00     0.020 A 
HETATM   29  C   UNL     1     -42.892 -47.147  12.582  1.00  0.00     0.025 A 
HETATM   30  C   UNL     1     -42.203 -46.484  11.570  1.00  0.00     0.034 A 
HETATM   31  C   UNL     1     -41.323 -47.183  10.745  1.00  0.00     0.025 A 
HETATM   32 CL   UNL     1     -42.441 -44.797  11.336  1.00  0.00    -0.084 Cl
HETATM   33  C   UNL     1     -41.155 -48.561  10.914  1.00  0.00     0.020 A 
ENDBRANCH  26  27
ENDBRANCH  21  26
ENDBRANCH   2  20
TORSDOF 6
ENDMDL
MODEL 9
REMARK VINA RESULT:      -6.8      3.594      6.107
REMARK  6 active torsions:
REMARK  status: ('A' for Active; 'I' for Inactive)
REMARK    1  A    between atoms: N_1  and  C_8 
REMARK    2  A    between atoms: N_2  and  C_7 
REMARK    3  A    between atoms: C_8  and  C_9 
REMARK       I    between atoms: C_9  and  N_10 
REMARK    4  A    between atoms: N_10  and  C_12 
REMARK    5  A    between atoms: S_11  and  C_14 
REMARK    6  A    between atoms: S_11  and  C_19 
ROOT
HETATM    1  C   UNL     1     -42.337 -53.268  13.256  1.00  0.00     0.240 C 
HETATM    2  N   UNL     1     -42.988 -53.309  14.488  1.00  0.00    -0.325 N 
HETATM    3  O   UNL     1     -42.861 -52.922  12.200  1.00  0.00    -0.271 OA
HETATM    4  H   UNL     1     -42.701 -54.088  15.085  1.00  0.00     0.169 HD
ENDROOT
BRANCH   1   5
HETATM    5  C   UNL     1     -40.869 -53.748  13.307  1.00  0.00     0.240 C 
BRANCH   5   6
HETATM    6  N   UNL     1     -39.988 -52.943  14.158  1.00  0.00    -0.255 N 
HETATM    7  C   UNL     1     -39.376 -51.837  13.588  1.00  0.00     0.334 C 
HETATM    8  N   UNL     1     -38.640 -51.023  14.440  1.00  0.00    -0.279 N 
HETATM    9  O   UNL     1     -39.519 -51.556  12.396  1.00  0.00    -0.246 OA
HETATM   10  C   UNL     1     -38.300 -51.426  15.711  1.00  0.00     0.146 C 
HETATM   11  C   UNL     1     -38.699 -52.605  16.184  1.00  0.00     0.200 C 
HETATM   12  C   UNL     1     -39.576 -53.477  15.373  1.00  0.00     0.292 C 
HETATM   13  F   UNL     1     -38.336 -53.047  17.403  1.00  0.00    -0.199 F 
HETATM   14  O   UNL     1     -39.858 -54.606  15.767  1.00  0.00    -0.264 OA
BRANCH   8  15
HETATM   15  C   UNL     1     -38.280 -49.715  13.913  1.00  0.00     0.232 C 
HETATM   16  O   UNL     1     -37.176 -49.114  14.606  1.00  0.00    -0.366 OA
HETATM   17  C   UNL     1     -37.324 -47.686  14.500  1.00  0.00     0.170 C 
HETATM   18  C   UNL     1     -38.690 -47.401  13.904  1.00  0.00     0.031 C 
HETATM   19  C   UNL     1     -39.411 -48.708  14.074  1.00  0.00     0.056 C 
ENDBRANCH   8  15
ENDBRANCH   5   6
ENDBRANCH   1   5
BRANCH   2  20
HETATM   20  C   UNL     1     -44.330 -52.888  14.615  1.00  0.00     0.052 A 
HETATM   21  C   UNL     1     -44.662 -51.587  15.045  1.00  0.00     0.032 A 
HETATM   22  C   UNL     1     -46.020 -51.241  15.162  1.00  0.00     0.021 A 
HETATM   23  C   UNL     1     -47.023 -52.180  14.893  1.00  0.00     0.002 A 
HETATM   24  C   UNL     1     -46.684 -53.482  14.533  1.00  0.00     0.002 A 
HETATM   25  C   UNL     1     -45.340 -53.839  14.408  1.00  0.00     0.031 A 
BRANCH  21  26
HETATM   26  S   UNL     1     -43.404 -50.518  15.761  1.00  0.00    -0.088 SA
BRANCH  26  27
HETATM   27  C   UNL     1     -43.123 -49.237  14.563  1.00  0.00     0.005 A 
HETATM   28  C   UNL     1     -43.177 -49.575  13.203  1.00  0.00     0.020 A 
HETATM   29  C   UNL     1     -43.008 -48.598  12.218  1.00  0.00     0.025 A 
HETATM   30  C   UNL     1     -42.791 -47.274  12.592  1.00  0.00     0.034 A 
HETATM   31  C   UNL     1     -42.774 -46.918  13.939  1.00  0.00     0.025 A 
HETATM   32 CL   UNL     1     -42.541 -46.075  11.385  1.00  0.00    -0.084 Cl
HETATM   33  C   UNL     1     -42.945 -47.900  14.922  1.00  0.00     0.020 A 
ENDBRANCH  26  27
ENDBRANCH  21  26
ENDBRANCH   2  20
TORSDOF 6
ENDMDL
