MODEL 1
REMARK VINA RESULT:      -7.3      0.000      0.000
REMARK  3 active torsions:
REMARK  status: ('A' for Active; 'I' for Inactive)
REMARK    1  A    between atoms: C_5  and  N_8 
REMARK       I    between atoms: N_8  and  C_9 
REMARK       I    between atoms: C_9  and  N_11 
REMARK    2  A    between atoms: N_11  and  C_12 
REMARK    3  A    between atoms: C_14  and  C_19 
ROOT
HETATM    1  N   UNL     1     -40.014 -48.346  11.422  1.00  0.00    -0.338 N 
HETATM    2  C   UNL     1     -41.222 -47.697  11.351  1.00  0.00     0.321 C 
HETATM    3  O   UNL     1     -41.809 -47.273  12.342  1.00  0.00    -0.247 OA
HETATM    4  N   UNL     1     -41.712 -47.648  10.064  1.00  0.00    -0.304 N 
HETATM    5  H   UNL     1     -39.406 -48.200  10.627  1.00  0.00     0.164 HD
HETATM    6  H   UNL     1     -41.525 -48.498   9.540  1.00  0.00     0.171 HD
ENDROOT
BRANCH   4   7
HETATM    7  C   UNL     1     -42.966 -47.115   9.833  1.00  0.00     0.105 A 
HETATM    8  C   UNL     1     -44.070 -47.858   9.638  1.00  0.00     0.052 A 
HETATM    9  C   UNL     1     -45.313 -47.274   9.168  1.00  0.00     0.065 A 
HETATM   10  C   UNL     1     -45.348 -45.950   8.935  1.00  0.00     0.107 A 
HETATM   11  N   UNL     1     -44.256 -45.154   9.187  1.00  0.00    -0.331 N 
HETATM   12  C   UNL     1     -43.057 -45.625   9.670  1.00  0.00     0.272 A 
HETATM   13  H   UNL     1     -44.297 -44.159   8.998  1.00  0.00     0.168 HD
HETATM   14  O   UNL     1     -42.099 -44.894   9.911  1.00  0.00    -0.266 OA
BRANCH   9  15
HETATM   15  C   UNL     1     -46.478 -48.174   8.887  1.00  0.00     0.418 C 
HETATM   16  F   UNL     1     -46.578 -49.218   9.751  1.00  0.00    -0.166 F 
HETATM   17  F   UNL     1     -47.656 -47.500   8.962  1.00  0.00    -0.166 F 
HETATM   18  F   UNL     1     -46.415 -48.704   7.637  1.00  0.00    -0.166 F 
ENDBRANCH   9  15
ENDBRANCH   4   7
BRANCH   1  19
HETATM   19  C   UNL     1     -39.399 -48.562  12.730  1.00  0.00     0.089 C 
HETATM   20  C   UNL     1     -38.000 -49.180  12.624  1.00  0.00     0.055 C 
HETATM   21  C   UNL     1     -38.061 -50.667  12.280  1.00  0.00     0.274 C 
HETATM   22  N   UNL     1     -38.928 -51.452  13.167  1.00  0.00     0.084 N 
HETATM   23  C   UNL     1     -38.327 -51.657  14.484  1.00  0.00     0.309 C 
HETATM   24  C   UNL     1     -40.276 -50.879  13.254  1.00  0.00     0.274 C 
HETATM   25  C   UNL     1     -40.305 -49.399  13.630  1.00  0.00     0.055 C 
ENDBRANCH   1  19
TORSDOF 3
ENDMDL
MODEL 2
REMARK VINA RESULT:      -6.9      4.458      5.282
REMARK  3 active torsions:
REMARK  status: ('A' for Active; 'I' for Inactive)
REMARK    1  A    between atoms: C_5  and  N_8 
REMARK       I    between atoms: N_8  and  C_9 
REMARK       I    between atoms: C_9  and  N_11 
REMARK    2  A    between atoms: N_11  and  C_12 
REMARK    3  A    between atoms: C_14  and  C_19 
ROOT
HETATM    1  N   UNL     1     -42.674 -50.794  12.327  1.00  0.00    -0.338 N 
HETATM    2  C   UNL     1     -42.589 -49.427  12.229  1.00  0.00     0.321 C 
HETATM    3  O   UNL     1     -42.880 -48.674  13.154  1.00  0.00    -0.247 OA
HETATM    4  N   UNL     1     -42.213 -49.017  10.968  1.00  0.00    -0.304 N 
HETATM    5  H   UNL     1     -41.987 -51.303  11.786  1.00  0.00     0.164 HD
HETATM    6  H   UNL     1     -42.621 -49.587  10.233  1.00  0.00     0.171 HD
ENDROOT
BRANCH   4   7
HETATM    7  C   UNL     1     -42.176 -47.668  10.673  1.00  0.00     0.105 A 
HETATM    8  C   UNL     1     -41.067 -46.913  10.766  1.00  0.00     0.052 A 
HETATM    9  C   UNL     1     -41.118 -45.465  10.677  1.00  0.00     0.065 A 
HETATM   10  C   UNL     1     -42.312 -44.878  10.486  1.00  0.00     0.107 A 
HETATM   11  N   UNL     1     -43.454 -45.626  10.322  1.00  0.00    -0.331 N 
HETATM   12  C   UNL     1     -43.482 -47.001  10.354  1.00  0.00     0.272 A 
HETATM   13  H   UNL     1     -44.348 -45.168  10.187  1.00  0.00     0.168 HD
HETATM   14  O   UNL     1     -44.510 -47.653  10.183  1.00  0.00    -0.266 OA
BRANCH   9  15
HETATM   15  C   UNL     1     -39.856 -44.680  10.877  1.00  0.00     0.418 C 
HETATM   16  F   UNL     1     -39.213 -44.973  12.037  1.00  0.00    -0.166 F 
HETATM   17  F   UNL     1     -38.966 -44.908   9.876  1.00  0.00    -0.166 F 
HETATM   18  F   UNL     1     -40.092 -43.341  10.886  1.00  0.00    -0.166 F 
ENDBRANCH   9  15
ENDBRANCH   4   7
BRANCH   1  19
HETATM   19  C   UNL     1     -43.146 -51.389  13.576  1.00  0.00     0.089 C 
HETATM   20  C   UNL     1     -42.332 -52.623  13.980  1.00  0.00     0.055 C 
HETATM   21  C   UNL     1     -42.688 -53.841  13.131  1.00  0.00     0.274 C 
HETATM   22  N   UNL     1     -44.125 -54.139  13.084  1.00  0.00     0.084 N 
HETATM   23  C   UNL     1     -44.609 -54.718  14.337  1.00  0.00     0.309 C 
HETATM   24  C   UNL     1     -44.908 -52.968  12.674  1.00  0.00     0.274 C 
HETATM   25  C   UNL     1     -44.636 -51.712  13.499  1.00  0.00     0.055 C 
ENDBRANCH   1  19
TORSDOF 3
ENDMDL
MODEL 3
REMARK VINA RESULT:      -6.8      4.060      6.879
REMARK  3 active torsions:
REMARK  status: ('A' for Active; 'I' for Inactive)
REMARK    1  A    between atoms: C_5  and  N_8 
REMARK       I    between atoms: N_8  and  C_9 
REMARK       I    between atoms: C_9  and  N_11 
REMARK    2  A    between atoms: N_11  and  C_12 
REMARK    3  A    between atoms: C_14  and  C_19 
ROOT
HETATM    1  N   UNL     1     -41.850 -48.969  11.768  1.00  0.00    -0.338 N 
HETATM    2  C   UNL     1     -42.231 -50.054  12.518  1.00  0.00     0.321 C 
HETATM    3  O   UNL     1     -42.580 -49.962  13.692  1.00  0.00    -0.247 OA
HETATM    4  N   UNL     1     -42.108 -51.237  11.823  1.00  0.00    -0.304 N 
HETATM    5  H   UNL     1     -42.074 -49.031  10.784  1.00  0.00     0.164 HD
HETATM    6  H   UNL     1     -41.287 -51.256  11.224  1.00  0.00     0.171 HD
ENDROOT
BRANCH   4   7
HETATM    7  C   UNL     1     -42.357 -52.434  12.466  1.00  0.00     0.105 A 
HETATM    8  C   UNL     1     -43.591 -52.894  12.736  1.00  0.00     0.052 A 
HETATM    9  C   UNL     1     -43.810 -54.030  13.614  1.00  0.00     0.065 A 
HETATM   10  C   UNL     1     -42.737 -54.634  14.156  1.00  0.00     0.107 A 
HETATM   11  N   UNL     1     -41.460 -54.228  13.846  1.00  0.00    -0.331 N 
HETATM   12  C   UNL     1     -41.171 -53.188  12.993  1.00  0.00     0.272 A 
HETATM   13  H   UNL     1     -40.663 -54.689  14.268  1.00  0.00     0.168 HD
HETATM   14  O   UNL     1     -40.023 -52.854  12.711  1.00  0.00    -0.266 OA
BRANCH   9  15
HETATM   15  C   UNL     1     -45.215 -54.434  13.943  1.00  0.00     0.418 C 
HETATM   16  F   UNL     1     -45.521 -54.313  15.261  1.00  0.00    -0.166 F 
HETATM   17  F   UNL     1     -46.120 -53.677  13.268  1.00  0.00    -0.166 F 
HETATM   18  F   UNL     1     -45.461 -55.726  13.600  1.00  0.00    -0.166 F 
ENDBRANCH   9  15
ENDBRANCH   4   7
BRANCH   1  19
HETATM   19  C   UNL     1     -41.838 -47.645  12.388  1.00  0.00     0.089 C 
HETATM   20  C   UNL     1     -42.817 -46.676  11.718  1.00  0.00     0.055 C 
HETATM   21  C   UNL     1     -42.290 -46.177  10.374  1.00  0.00     0.274 C 
HETATM   22  N   UNL     1     -40.936 -45.614  10.432  1.00  0.00     0.084 N 
HETATM   23  C   UNL     1     -40.912 -44.298  11.068  1.00  0.00     0.309 C 
HETATM   24  C   UNL     1     -39.988 -46.548  11.052  1.00  0.00     0.274 C 
HETATM   25  C   UNL     1     -40.425 -47.068  12.420  1.00  0.00     0.055 C 
ENDBRANCH   1  19
TORSDOF 3
ENDMDL
MODEL 4
REMARK VINA RESULT:      -6.7      4.518      5.559
REMARK  3 active torsions:
REMARK  status: ('A' for Active; 'I' for Inactive)
REMARK    1  A    between atoms: C_5  and  N_8 
REMARK       I    between atoms: N_8  and  C_9 
REMARK       I    between atoms: C_9  and  N_11 
REMARK    2  A    between atoms: N_11  and  C_12 
REMARK    3  A    between atoms: C_14  and  C_19 
ROOT
HETATM    1  N   UNL     1     -44.207 -50.484  12.867  1.00  0.00    -0.338 N 
HETATM    2  C   UNL     1     -43.276 -49.475  12.863  1.00  0.00     0.321 C 
HETATM    3  O   UNL     1     -42.698 -49.100  13.879  1.00  0.00    -0.247 OA
HETATM    4  N   UNL     1     -43.129 -48.906  11.617  1.00  0.00    -0.304 N 
HETATM    5  H   UNL     1     -44.235 -51.040  12.022  1.00  0.00     0.164 HD
HETATM    6  H   UNL     1     -44.009 -48.829  11.115  1.00  0.00     0.171 HD
ENDROOT
BRANCH   4   7
HETATM    7  C   UNL     1     -42.302 -47.810  11.462  1.00  0.00     0.105 A 
HETATM    8  C   UNL     1     -42.723 -46.537  11.556  1.00  0.00     0.052 A 
HETATM    9  C   UNL     1     -41.883 -45.421  11.157  1.00  0.00     0.065 A 
HETATM   10  C   UNL     1     -40.649 -45.685  10.693  1.00  0.00     0.107 A 
HETATM   11  N   UNL     1     -40.166 -46.972  10.647  1.00  0.00    -0.331 N 
HETATM   12  C   UNL     1     -40.885 -48.076  11.043  1.00  0.00     0.272 A 
HETATM   13  H   UNL     1     -39.237 -47.154  10.287  1.00  0.00     0.168 HD
HETATM   14  O   UNL     1     -40.428 -49.216  11.016  1.00  0.00    -0.266 OA
BRANCH   9  15
HETATM   15  C   UNL     1     -42.448 -44.033  11.204  1.00  0.00     0.418 C 
HETATM   16  F   UNL     1     -43.005 -43.714  12.401  1.00  0.00    -0.166 F 
HETATM   17  F   UNL     1     -41.490 -43.099  10.964  1.00  0.00    -0.166 F 
HETATM   18  F   UNL     1     -43.411 -43.849  10.262  1.00  0.00    -0.166 F 
ENDBRANCH   9  15
ENDBRANCH   4   7
BRANCH   1  19
HETATM   19  C   UNL     1     -44.545 -51.135  14.131  1.00  0.00     0.089 C 
HETATM   20  C   UNL     1     -43.773 -52.442  14.342  1.00  0.00     0.055 C 
HETATM   21  C   UNL     1     -44.327 -53.574  13.479  1.00  0.00     0.274 C 
HETATM   22  N   UNL     1     -45.774 -53.779  13.616  1.00  0.00     0.084 N 
HETATM   23  C   UNL     1     -46.123 -54.413  14.887  1.00  0.00     0.309 C 
HETATM   24  C   UNL     1     -46.521 -52.536  13.392  1.00  0.00     0.274 C 
HETATM   25  C   UNL     1     -46.051 -51.360  14.245  1.00  0.00     0.055 C 
ENDBRANCH   1  19
TORSDOF 3
ENDMDL
MODEL 5
REMARK VINA RESULT:      -6.6      1.659      2.170
REMARK  3 active torsions:
REMARK  status: ('A' for Active; 'I' for Inactive)
REMARK    1  A    between atoms: C_5  and  N_8 
REMARK       I    between atoms: N_8  and  C_9 
REMARK       I    between atoms: C_9  and  N_11 
REMARK    2  A    between atoms: N_11  and  C_12 
REMARK    3  A    between atoms: C_14  and  C_19 
ROOT
HETATM    1  N   UNL     1     -40.699 -48.777  13.241  1.00  0.00    -0.338 N 
HETATM    2  C   UNL     1     -41.350 -48.585  12.048  1.00  0.00     0.321 C 
HETATM    3  O   UNL     1     -41.079 -49.220  11.032  1.00  0.00    -0.247 OA
HETATM    4  N   UNL     1     -42.273 -47.564  12.116  1.00  0.00    -0.304 N 
HETATM    5  H   UNL     1     -41.268 -48.630  14.065  1.00  0.00     0.164 HD
HETATM    6  H   UNL     1     -41.957 -46.787  12.690  1.00  0.00     0.171 HD
ENDROOT
BRANCH   4   7
HETATM    7  C   UNL     1     -42.945 -47.176  10.973  1.00  0.00     0.105 A 
HETATM    8  C   UNL     1     -44.161 -47.635  10.629  1.00  0.00     0.052 A 
HETATM    9  C   UNL     1     -44.729 -47.388   9.316  1.00  0.00     0.065 A 
HETATM   10  C   UNL     1     -44.011 -46.671   8.434  1.00  0.00     0.107 A 
HETATM   11  N   UNL     1     -42.793 -46.133   8.778  1.00  0.00    -0.331 N 
HETATM   12  C   UNL     1     -42.207 -46.288  10.013  1.00  0.00     0.272 A 
HETATM   13  H   UNL     1     -42.261 -45.602   8.099  1.00  0.00     0.168 HD
HETATM   14  O   UNL     1     -41.128 -45.781  10.310  1.00  0.00    -0.266 OA
BRANCH   9  15
HETATM   15  C   UNL     1     -46.051 -48.004   8.969  1.00  0.00     0.418 C 
HETATM   16  F   UNL     1     -46.065 -48.612   7.754  1.00  0.00    -0.166 F 
HETATM   17  F   UNL     1     -46.411 -48.950   9.876  1.00  0.00    -0.166 F 
HETATM   18  F   UNL     1     -47.049 -47.081   8.957  1.00  0.00    -0.166 F 
ENDBRANCH   9  15
ENDBRANCH   4   7
BRANCH   1  19
HETATM   19  C   UNL     1     -39.625 -49.766  13.314  1.00  0.00     0.089 C 
HETATM   20  C   UNL     1     -39.614 -50.521  14.648  1.00  0.00     0.055 C 
HETATM   21  C   UNL     1     -39.055 -49.662  15.781  1.00  0.00     0.274 C 
HETATM   22  N   UNL     1     -37.745 -49.066  15.492  1.00  0.00     0.084 N 
HETATM   23  C   UNL     1     -36.667 -50.052  15.544  1.00  0.00     0.309 C 
HETATM   24  C   UNL     1     -37.756 -48.321  14.227  1.00  0.00     0.274 C 
HETATM   25  C   UNL     1     -38.269 -49.123  13.033  1.00  0.00     0.055 C 
ENDBRANCH   1  19
TORSDOF 3
ENDMDL
MODEL 6
REMARK VINA RESULT:      -6.5      5.373      7.735
REMARK  3 active torsions:
REMARK  status: ('A' for Active; 'I' for Inactive)
REMARK    1  A    between atoms: C_5  and  N_8 
REMARK       I    between atoms: N_8  and  C_9 
REMARK       I    between atoms: C_9  and  N_11 
REMARK    2  A    between atoms: N_11  and  C_12 
REMARK    3  A    between atoms: C_14  and  C_19 
ROOT
HETATM    1  N   UNL     1     -42.812 -49.585  12.068  1.00  0.00    -0.338 N 
HETATM    2  C   UNL     1     -43.418 -50.487  12.908  1.00  0.00     0.321 C 
HETATM    3  O   UNL     1     -43.908 -50.166  13.987  1.00  0.00    -0.247 OA
HETATM    4  N   UNL     1     -43.344 -51.776  12.428  1.00  0.00    -0.304 N 
HETATM    5  H   UNL     1     -42.906 -49.791  11.083  1.00  0.00     0.164 HD
HETATM    6  H   UNL     1     -42.458 -51.975  11.972  1.00  0.00     0.171 HD
ENDROOT
BRANCH   4   7
HETATM    7  C   UNL     1     -43.820 -52.819  13.200  1.00  0.00     0.105 A 
HETATM    8  C   UNL     1     -43.093 -53.441  14.145  1.00  0.00     0.052 A 
HETATM    9  C   UNL     1     -43.541 -54.675  14.766  1.00  0.00     0.065 A 
HETATM   10  C   UNL     1     -44.723 -55.190  14.383  1.00  0.00     0.107 A 
HETATM   11  N   UNL     1     -45.519 -54.542  13.468  1.00  0.00    -0.331 N 
HETATM   12  C   UNL     1     -45.183 -53.352  12.865  1.00  0.00     0.272 A 
HETATM   13  H   UNL     1     -46.402 -54.948  13.184  1.00  0.00     0.168 HD
HETATM   14  O   UNL     1     -45.918 -52.776  12.066  1.00  0.00    -0.266 OA
BRANCH   9  15
HETATM   15  C   UNL     1     -42.641 -55.363  15.747  1.00  0.00     0.418 C 
HETATM   16  F   UNL     1     -42.872 -55.008  17.038  1.00  0.00    -0.166 F 
HETATM   17  F   UNL     1     -42.782 -56.713  15.688  1.00  0.00    -0.166 F 
HETATM   18  F   UNL     1     -41.330 -55.101  15.497  1.00  0.00    -0.166 F 
ENDBRANCH   9  15
ENDBRANCH   4   7
BRANCH   1  19
HETATM   19  C   UNL     1     -42.725 -48.183  12.474  1.00  0.00     0.089 C 
HETATM   20  C   UNL     1     -43.280 -47.231  11.409  1.00  0.00     0.055 C 
HETATM   21  C   UNL     1     -42.316 -47.070  10.235  1.00  0.00     0.274 C 
HETATM   22  N   UNL     1     -40.951 -46.699  10.627  1.00  0.00     0.084 N 
HETATM   23  C   UNL     1     -40.859 -45.303  11.051  1.00  0.00     0.309 C 
HETATM   24  C   UNL     1     -40.405 -47.622  11.628  1.00  0.00     0.274 C 
HETATM   25  C   UNL     1     -41.294 -47.812  12.856  1.00  0.00     0.055 C 
ENDBRANCH   1  19
TORSDOF 3
ENDMDL
MODEL 7
REMARK VINA RESULT:      -6.2      3.961      5.829
REMARK  3 active torsions:
REMARK  status: ('A' for Active; 'I' for Inactive)
REMARK    1  A    between atoms: C_5  and  N_8 
REMARK       I    between atoms: N_8  and  C_9 
REMARK       I    between atoms: C_9  and  N_11 
REMARK    2  A    between atoms: N_11  and  C_12 
REMARK    3  A    between atoms: C_14  and  C_19 
ROOT
HETATM    1  N   UNL     1     -41.288 -47.335  12.954  1.00  0.00    -0.338 N 
HETATM    2  C   UNL     1     -42.043 -48.352  12.423  1.00  0.00     0.321 C 
HETATM    3  O   UNL     1     -42.638 -48.251  11.354  1.00  0.00    -0.247 OA
HETATM    4  N   UNL     1     -42.102 -49.447  13.257  1.00  0.00    -0.304 N 
HETATM    5  H   UNL     1     -40.487 -47.636  13.493  1.00  0.00     0.164 HD
HETATM    6  H   UNL     1     -42.157 -49.190  14.239  1.00  0.00     0.171 HD
ENDROOT
BRANCH   4   7
HETATM    7  C   UNL     1     -42.902 -50.521  12.916  1.00  0.00     0.105 A 
HETATM    8  C   UNL     1     -44.209 -50.605  13.219  1.00  0.00     0.052 A 
HETATM    9  C   UNL     1     -44.955 -51.840  13.054  1.00  0.00     0.065 A 
HETATM   10  C   UNL     1     -44.309 -52.917  12.574  1.00  0.00     0.107 A 
HETATM   11  N   UNL     1     -42.990 -52.844  12.194  1.00  0.00    -0.331 N 
HETATM   12  C   UNL     1     -42.227 -51.703  12.282  1.00  0.00     0.272 A 
HETATM   13  H   UNL     1     -42.515 -53.668  11.842  1.00  0.00     0.168 HD
HETATM   14  O   UNL     1     -41.055 -51.651  11.915  1.00  0.00    -0.266 OA
BRANCH   9  15
HETATM   15  C   UNL     1     -46.387 -51.888  13.496  1.00  0.00     0.418 C 
HETATM   16  F   UNL     1     -46.694 -50.966  14.445  1.00  0.00    -0.166 F 
HETATM   17  F   UNL     1     -47.234 -51.666  12.456  1.00  0.00    -0.166 F 
HETATM   18  F   UNL     1     -46.715 -53.104  14.008  1.00  0.00    -0.166 F 
ENDBRANCH   9  15
ENDBRANCH   4   7
BRANCH   1  19
HETATM   19  C   UNL     1     -41.196 -46.067  12.233  1.00  0.00     0.089 C 
HETATM   20  C   UNL     1     -39.750 -45.589  12.073  1.00  0.00     0.055 C 
HETATM   21  C   UNL     1     -39.193 -45.019  13.376  1.00  0.00     0.274 C 
HETATM   22  N   UNL     1     -40.036 -43.983  13.986  1.00  0.00     0.084 N 
HETATM   23  C   UNL     1     -39.964 -42.716  13.260  1.00  0.00     0.309 C 
HETATM   24  C   UNL     1     -41.417 -44.444  14.164  1.00  0.00     0.274 C 
HETATM   25  C   UNL     1     -42.062 -44.997  12.895  1.00  0.00     0.055 C 
ENDBRANCH   1  19
TORSDOF 3
ENDMDL
MODEL 8
REMARK VINA RESULT:      -6.2      4.779      6.003
REMARK  3 active torsions:
REMARK  status: ('A' for Active; 'I' for Inactive)
REMARK    1  A    between atoms: C_5  and  N_8 
REMARK       I    between atoms: N_8  and  C_9 
REMARK       I    between atoms: C_9  and  N_11 
REMARK    2  A    between atoms: N_11  and  C_12 
REMARK    3  A    between atoms: C_14  and  C_19 
ROOT
HETATM    1  N   UNL     1     -42.861 -50.870  12.609  1.00  0.00    -0.338 N 
HETATM    2  C   UNL     1     -41.951 -49.988  12.082  1.00  0.00     0.321 C 
HETATM    3  O   UNL     1     -40.893 -50.348  11.573  1.00  0.00    -0.247 OA
HETATM    4  N   UNL     1     -42.335 -48.676  12.256  1.00  0.00    -0.304 N 
HETATM    5  H   UNL     1     -43.828 -50.584  12.526  1.00  0.00     0.164 HD
HETATM    6  H   UNL     1     -42.785 -48.515  13.153  1.00  0.00     0.171 HD
ENDROOT
BRANCH   4   7
HETATM    7  C   UNL     1     -41.482 -47.660  11.870  1.00  0.00     0.105 A 
HETATM    8  C   UNL     1     -40.624 -47.047  12.704  1.00  0.00     0.052 A 
HETATM    9  C   UNL     1     -39.920 -45.836  12.323  1.00  0.00     0.065 A 
HETATM   10  C   UNL     1     -40.135 -45.331  11.096  1.00  0.00     0.107 A 
HETATM   11  N   UNL     1     -40.956 -45.971  10.198  1.00  0.00    -0.331 N 
HETATM   12  C   UNL     1     -41.626 -47.141  10.469  1.00  0.00     0.272 A 
HETATM   13  H   UNL     1     -41.114 -45.572   9.279  1.00  0.00     0.168 HD
HETATM   14  O   UNL     1     -42.339 -47.710   9.645  1.00  0.00    -0.266 OA
BRANCH   9  15
HETATM   15  C   UNL     1     -39.045 -45.156  13.334  1.00  0.00     0.418 C 
HETATM   16  F   UNL     1     -38.265 -44.177  12.806  1.00  0.00    -0.166 F 
HETATM   17  F   UNL     1     -39.782 -44.572  14.315  1.00  0.00    -0.166 F 
HETATM   18  F   UNL     1     -38.210 -46.035  13.949  1.00  0.00    -0.166 F 
ENDBRANCH   9  15
ENDBRANCH   4   7
BRANCH   1  19
HETATM   19  C   UNL     1     -42.562 -52.301  12.585  1.00  0.00     0.089 C 
HETATM   20  C   UNL     1     -43.815 -53.157  12.377  1.00  0.00     0.055 C 
HETATM   21  C   UNL     1     -44.662 -53.240  13.646  1.00  0.00     0.274 C 
HETATM   22  N   UNL     1     -43.916 -53.661  14.838  1.00  0.00     0.084 N 
HETATM   23  C   UNL     1     -43.596 -55.087  14.813  1.00  0.00     0.309 C 
HETATM   24  C   UNL     1     -42.727 -52.828  15.056  1.00  0.00     0.274 C 
HETATM   25  C   UNL     1     -41.806 -52.723  13.842  1.00  0.00     0.055 C 
ENDBRANCH   1  19
TORSDOF 3
ENDMDL
MODEL 9
REMARK VINA RESULT:      -5.9      5.050      5.808
REMARK  3 active torsions:
REMARK  status: ('A' for Active; 'I' for Inactive)
REMARK    1  A    between atoms: C_5  and  N_8 
REMARK       I    between atoms: N_8  and  C_9 
REMARK       I    between atoms: C_9  and  N_11 
REMARK    2  A    between atoms: N_11  and  C_12 
REMARK    3  A    between atoms: C_14  and  C_19 
ROOT
HETATM    1  N   UNL     1     -39.735 -50.260  15.125  1.00  0.00    -0.338 N 
HETATM    2  C   UNL     1     -40.716 -50.550  14.209  1.00  0.00     0.321 C 
HETATM    3  O   UNL     1     -40.921 -49.863  13.213  1.00  0.00    -0.247 OA
HETATM    4  N   UNL     1     -41.469 -51.642  14.581  1.00  0.00    -0.304 N 
HETATM    5  H   UNL     1     -39.317 -51.066  15.571  1.00  0.00     0.164 HD
HETATM    6  H   UNL     1     -41.637 -51.681  15.582  1.00  0.00     0.171 HD
ENDROOT
BRANCH   4   7
HETATM    7  C   UNL     1     -42.562 -52.008  13.818  1.00  0.00     0.105 A 
HETATM    8  C   UNL     1     -43.823 -51.633  14.090  1.00  0.00     0.052 A 
HETATM    9  C   UNL     1     -44.962 -52.224  13.411  1.00  0.00     0.065 A 
HETATM   10  C   UNL     1     -44.731 -53.164  12.478  1.00  0.00     0.107 A 
HETATM   11  N   UNL     1     -43.450 -53.522  12.130  1.00  0.00    -0.331 N 
HETATM   12  C   UNL     1     -42.320 -52.980  12.699  1.00  0.00     0.272 A 
HETATM   13  H   UNL     1     -43.293 -54.238  11.431  1.00  0.00     0.168 HD
HETATM   14  O   UNL     1     -41.183 -53.297  12.359  1.00  0.00    -0.266 OA
BRANCH   9  15
HETATM   15  C   UNL     1     -46.345 -51.823  13.827  1.00  0.00     0.418 C 
HETATM   16  F   UNL     1     -47.121 -52.868  14.213  1.00  0.00    -0.166 F 
HETATM   17  F   UNL     1     -46.317 -50.958  14.875  1.00  0.00    -0.166 F 
HETATM   18  F   UNL     1     -47.009 -51.190  12.824  1.00  0.00    -0.166 F 
ENDBRANCH   9  15
ENDBRANCH   4   7
BRANCH   1  19
HETATM   19  C   UNL     1     -38.902 -49.075  14.924  1.00  0.00     0.089 C 
HETATM   20  C   UNL     1     -37.480 -49.429  14.477  1.00  0.00     0.055 C 
HETATM   21  C   UNL     1     -36.638 -49.965  15.634  1.00  0.00     0.274 C 
HETATM   22  N   UNL     1     -36.628 -49.098  16.819  1.00  0.00     0.084 N 
HETATM   23  C   UNL     1     -35.813 -47.901  16.620  1.00  0.00     0.309 C 
HETATM   24  C   UNL     1     -37.988 -48.776  17.267  1.00  0.00     0.274 C 
HETATM   25  C   UNL     1     -38.887 -48.199  16.174  1.00  0.00     0.055 C 
ENDBRANCH   1  19
TORSDOF 3
ENDMDL
