MODEL 1
REMARK VINA RESULT:      -6.5      0.000      0.000
REMARK  5 active torsions:
REMARK  status: ('A' for Active; 'I' for Inactive)
REMARK    1  A    between atoms: N_8  and  C_9 
REMARK    2  A    between atoms: C_9  and  C_10 
REMARK    3  A    between atoms: C_10  and  O_11 
REMARK    4  A    between atoms: C_10  and  C_12 
REMARK    5  A    between atoms: C_12  and  N_13 
ROOT
HETATM    1  C   UNL     1     -46.363 -54.446  14.485  1.00  0.00     0.049 C 
HETATM    2  C   UNL     1     -45.300 -53.550  13.906  1.00  0.00    -0.054 A 
HETATM    3  C   UNL     1     -44.127 -54.136  13.395  1.00  0.00     0.039 A 
HETATM    4  C   UNL     1     -43.110 -53.321  12.884  1.00  0.00     0.060 A 
HETATM    5  N   UNL     1     -41.898 -53.681  12.348  1.00  0.00    -0.350 N 
ATOM      6  HN  UNL     1     -41.537 -54.625  12.213  1.00  0.00     0.166 HD
HETATM    7  C   UNL     1     -41.306 -52.549  12.048  1.00  0.00     0.184 A 
HETATM    8  N   UNL     1     -42.086 -51.468  12.368  1.00  0.00    -0.339 N 
HETATM    9  C   UNL     1     -43.270 -51.937  12.886  1.00  0.00     0.062 A 
HETATM   10  C   UNL     1     -44.433 -51.320  13.359  1.00  0.00     0.039 A 
HETATM   11  C   UNL     1     -45.453 -52.146  13.879  1.00  0.00    -0.054 A 
HETATM   12  C   UNL     1     -46.703 -51.499  14.418  1.00  0.00     0.049 C 
ENDROOT
BRANCH   8  13
HETATM   13  C   UNL     1     -41.697 -50.079  12.178  1.00  0.00     0.163 C 
BRANCH  13  14
HETATM   14  C   UNL     1     -40.324 -49.936  11.496  1.00  0.00     0.164 C 
BRANCH  14  15
HETATM   15  O   UNL     1     -40.469 -49.874  10.070  1.00  0.00    -0.392 OA
HETATM   16  H   UNL     1     -40.495 -50.777   9.712  1.00  0.00     0.210 HD
ENDBRANCH  14  15
BRANCH  14  17
HETATM   17  C   UNL     1     -39.564 -48.664  11.960  1.00  0.00     0.305 C 
BRANCH  17  18
HETATM   18  N   UNL     1     -39.051 -48.729  13.335  1.00  0.00     0.092 N 
HETATM   19  C   UNL     1     -37.811 -49.525  13.448  1.00  0.00     0.285 C 
HETATM   20  C   UNL     1     -37.593 -49.908  14.907  1.00  0.00     0.139 C 
HETATM   21  S   UNL     1     -37.237 -48.466  15.947  1.00  0.00     0.018 S 
HETATM   22  O   UNL     1     -35.982 -47.821  15.433  1.00  0.00    -0.258 OA
HETATM   23  C   UNL     1     -38.649 -47.459  15.413  1.00  0.00     0.139 C 
HETATM   24  C   UNL     1     -38.787 -47.382  13.895  1.00  0.00     0.285 C 
ENDBRANCH  17  18
ENDBRANCH  14  17
ENDBRANCH  13  14
ENDBRANCH   8  13
TORSDOF 5
ENDMDL
MODEL 2
REMARK VINA RESULT:      -6.4      2.408      2.908
REMARK  5 active torsions:
REMARK  status: ('A' for Active; 'I' for Inactive)
REMARK    1  A    between atoms: N_8  and  C_9 
REMARK    2  A    between atoms: C_9  and  C_10 
REMARK    3  A    between atoms: C_10  and  O_11 
REMARK    4  A    between atoms: C_10  and  C_12 
REMARK    5  A    between atoms: C_12  and  N_13 
ROOT
HETATM    1  C   UNL     1     -46.340 -54.392  14.675  1.00  0.00     0.049 C 
HETATM    2  C   UNL     1     -45.294 -53.511  14.045  1.00  0.00    -0.054 A 
HETATM    3  C   UNL     1     -44.129 -54.109  13.531  1.00  0.00     0.039 A 
HETATM    4  C   UNL     1     -43.125 -53.306  12.973  1.00  0.00     0.060 A 
HETATM    5  N   UNL     1     -41.923 -53.679  12.426  1.00  0.00    -0.350 N 
ATOM      6  HN  UNL     1     -41.560 -54.625  12.314  1.00  0.00     0.166 HD
HETATM    7  C   UNL     1     -41.342 -52.555  12.076  1.00  0.00     0.184 A 
HETATM    8  N   UNL     1     -42.121 -51.467  12.376  1.00  0.00    -0.339 N 
HETATM    9  C   UNL     1     -43.292 -51.924  12.932  1.00  0.00     0.062 A 
HETATM   10  C   UNL     1     -44.449 -51.296  13.408  1.00  0.00     0.039 A 
HETATM   11  C   UNL     1     -45.454 -52.109  13.975  1.00  0.00    -0.054 A 
HETATM   12  C   UNL     1     -46.696 -51.449  14.517  1.00  0.00     0.049 C 
ENDROOT
BRANCH   8  13
HETATM   13  C   UNL     1     -41.743 -50.084  12.132  1.00  0.00     0.163 C 
BRANCH  13  14
HETATM   14  C   UNL     1     -40.326 -49.951  11.544  1.00  0.00     0.164 C 
BRANCH  14  15
HETATM   15  O   UNL     1     -40.374 -49.901  10.110  1.00  0.00    -0.392 OA
HETATM   16  H   UNL     1     -41.261 -50.164   9.811  1.00  0.00     0.210 HD
ENDBRANCH  14  15
BRANCH  14  17
HETATM   17  C   UNL     1     -39.594 -48.678  12.047  1.00  0.00     0.305 C 
BRANCH  17  18
HETATM   18  N   UNL     1     -40.450 -47.488  12.160  1.00  0.00     0.092 N 
HETATM   19  C   UNL     1     -40.183 -46.703  13.382  1.00  0.00     0.285 C 
HETATM   20  C   UNL     1     -41.361 -45.773  13.648  1.00  0.00     0.139 C 
HETATM   21  S   UNL     1     -41.519 -44.490  12.376  1.00  0.00     0.018 S 
HETATM   22  O   UNL     1     -40.260 -43.673  12.381  1.00  0.00    -0.258 OA
HETATM   23  C   UNL     1     -41.467 -45.599  10.940  1.00  0.00     0.139 C 
HETATM   24  C   UNL     1     -40.305 -46.588  10.992  1.00  0.00     0.285 C 
ENDBRANCH  17  18
ENDBRANCH  14  17
ENDBRANCH  13  14
ENDBRANCH   8  13
TORSDOF 5
ENDMDL
MODEL 3
REMARK VINA RESULT:      -6.3      3.180      7.409
REMARK  5 active torsions:
REMARK  status: ('A' for Active; 'I' for Inactive)
REMARK    1  A    between atoms: N_8  and  C_9 
REMARK    2  A    between atoms: C_9  and  C_10 
REMARK    3  A    between atoms: C_10  and  O_11 
REMARK    4  A    between atoms: C_10  and  C_12 
REMARK    5  A    between atoms: C_12  and  N_13 
ROOT
HETATM    1  C   UNL     1     -39.263 -44.728  13.673  1.00  0.00     0.049 C 
HETATM    2  C   UNL     1     -39.394 -46.197  13.368  1.00  0.00    -0.054 A 
HETATM    3  C   UNL     1     -39.943 -46.583  12.131  1.00  0.00     0.039 A 
HETATM    4  C   UNL     1     -40.109 -47.943  11.840  1.00  0.00     0.060 A 
HETATM    5  N   UNL     1     -40.622 -48.531  10.710  1.00  0.00    -0.350 N 
ATOM      6  HN  UNL     1     -40.959 -48.065   9.869  1.00  0.00     0.166 HD
HETATM    7  C   UNL     1     -40.585 -49.821  10.947  1.00  0.00     0.184 A 
HETATM    8  N   UNL     1     -40.067 -50.094  12.187  1.00  0.00    -0.339 N 
HETATM    9  C   UNL     1     -39.725 -48.900  12.777  1.00  0.00     0.062 A 
HETATM   10  C   UNL     1     -39.149 -48.555  14.004  1.00  0.00     0.039 A 
HETATM   11  C   UNL     1     -38.990 -47.182  14.296  1.00  0.00    -0.054 A 
HETATM   12  C   UNL     1     -38.396 -46.790  15.624  1.00  0.00     0.049 C 
ENDROOT
BRANCH   8  13
HETATM   13  C   UNL     1     -39.919 -51.427  12.749  1.00  0.00     0.163 C 
BRANCH  13  14
HETATM   14  C   UNL     1     -41.070 -52.370  12.352  1.00  0.00     0.164 C 
BRANCH  14  15
HETATM   15  O   UNL     1     -40.622 -53.348  11.403  1.00  0.00    -0.392 OA
HETATM   16  H   UNL     1     -41.391 -53.715  10.936  1.00  0.00     0.210 HD
ENDBRANCH  14  15
BRANCH  14  17
HETATM   17  C   UNL     1     -41.668 -53.119  13.574  1.00  0.00     0.305 C 
BRANCH  17  18
HETATM   18  N   UNL     1     -43.117 -52.945  13.745  1.00  0.00     0.092 N 
HETATM   19  C   UNL     1     -43.614 -51.677  13.174  1.00  0.00     0.285 C 
HETATM   20  C   UNL     1     -44.988 -51.369  13.759  1.00  0.00     0.139 C 
HETATM   21  S   UNL     1     -46.242 -52.565  13.224  1.00  0.00     0.018 S 
HETATM   22  O   UNL     1     -46.338 -52.500  11.728  1.00  0.00    -0.258 OA
HETATM   23  C   UNL     1     -45.317 -54.062  13.667  1.00  0.00     0.139 C 
HETATM   24  C   UNL     1     -43.885 -54.058  13.137  1.00  0.00     0.285 C 
ENDBRANCH  17  18
ENDBRANCH  14  17
ENDBRANCH  13  14
ENDBRANCH   8  13
TORSDOF 5
ENDMDL
MODEL 4
REMARK VINA RESULT:      -6.1      4.225      5.317
REMARK  5 active torsions:
REMARK  status: ('A' for Active; 'I' for Inactive)
REMARK    1  A    between atoms: N_8  and  C_9 
REMARK    2  A    between atoms: C_9  and  C_10 
REMARK    3  A    between atoms: C_10  and  O_11 
REMARK    4  A    between atoms: C_10  and  C_12 
REMARK    5  A    between atoms: C_12  and  N_13 
ROOT
HETATM    1  C   UNL     1     -47.645 -51.235  16.927  1.00  0.00     0.049 C 
HETATM    2  C   UNL     1     -46.538 -51.584  15.969  1.00  0.00    -0.054 A 
HETATM    3  C   UNL     1     -46.756 -52.610  15.031  1.00  0.00     0.039 A 
HETATM    4  C   UNL     1     -45.728 -52.978  14.153  1.00  0.00     0.060 A 
HETATM    5  N   UNL     1     -45.727 -53.942  13.176  1.00  0.00    -0.350 N 
ATOM      6  HN  UNL     1     -46.498 -54.553  12.908  1.00  0.00     0.166 HD
HETATM    7  C   UNL     1     -44.520 -53.908  12.661  1.00  0.00     0.184 A 
HETATM    8  N   UNL     1     -43.738 -52.959  13.266  1.00  0.00    -0.339 N 
HETATM    9  C   UNL     1     -44.501 -52.323  14.217  1.00  0.00     0.062 A 
HETATM   10  C   UNL     1     -44.257 -51.279  15.116  1.00  0.00     0.039 A 
HETATM   11  C   UNL     1     -45.294 -50.917  16.003  1.00  0.00    -0.054 A 
HETATM   12  C   UNL     1     -45.041 -49.813  16.998  1.00  0.00     0.049 C 
ENDROOT
BRANCH   8  13
HETATM   13  C   UNL     1     -42.346 -52.696  12.934  1.00  0.00     0.163 C 
BRANCH  13  14
HETATM   14  C   UNL     1     -41.401 -53.813  13.413  1.00  0.00     0.164 C 
BRANCH  14  15
HETATM   15  O   UNL     1     -40.883 -54.553  12.298  1.00  0.00    -0.392 OA
HETATM   16  H   UNL     1     -39.913 -54.583  12.358  1.00  0.00     0.210 HD
ENDBRANCH  14  15
BRANCH  14  17
HETATM   17  C   UNL     1     -40.200 -53.262  14.228  1.00  0.00     0.305 C 
BRANCH  17  18
HETATM   18  N   UNL     1     -39.857 -54.054  15.418  1.00  0.00     0.092 N 
HETATM   19  C   UNL     1     -41.029 -54.723  16.019  1.00  0.00     0.285 C 
HETATM   20  C   UNL     1     -40.691 -55.142  17.444  1.00  0.00     0.139 C 
HETATM   21  S   UNL     1     -39.423 -56.438  17.493  1.00  0.00     0.018 S 
HETATM   22  O   UNL     1     -39.955 -57.636  16.761  1.00  0.00    -0.258 OA
HETATM   23  C   UNL     1     -38.221 -55.607  16.418  1.00  0.00     0.139 C 
HETATM   24  C   UNL     1     -38.837 -55.088  15.122  1.00  0.00     0.285 C 
ENDBRANCH  17  18
ENDBRANCH  14  17
ENDBRANCH  13  14
ENDBRANCH   8  13
TORSDOF 5
ENDMDL
MODEL 5
REMARK VINA RESULT:      -6.0      2.126      3.028
REMARK  5 active torsions:
REMARK  status: ('A' for Active; 'I' for Inactive)
REMARK    1  A    between atoms: N_8  and  C_9 
REMARK    2  A    between atoms: C_9  and  C_10 
REMARK    3  A    between atoms: C_10  and  O_11 
REMARK    4  A    between atoms: C_10  and  C_12 
REMARK    5  A    between atoms: C_12  and  N_13 
ROOT
HETATM    1  C   UNL     1     -47.362 -51.371  17.033  1.00  0.00     0.049 C 
HETATM    2  C   UNL     1     -46.312 -51.531  15.964  1.00  0.00    -0.054 A 
HETATM    3  C   UNL     1     -46.499 -52.517  14.978  1.00  0.00     0.039 A 
HETATM    4  C   UNL     1     -45.519 -52.709  13.995  1.00  0.00     0.060 A 
HETATM    5  N   UNL     1     -45.499 -53.606  12.956  1.00  0.00    -0.350 N 
ATOM      6  HN  UNL     1     -46.218 -54.285  12.711  1.00  0.00     0.166 HD
HETATM    7  C   UNL     1     -44.354 -53.401  12.348  1.00  0.00     0.184 A 
HETATM    8  N   UNL     1     -43.631 -52.405  12.951  1.00  0.00    -0.339 N 
HETATM    9  C   UNL     1     -44.371 -51.920  14.004  1.00  0.00     0.062 A 
HETATM   10  C   UNL     1     -44.165 -50.911  14.950  1.00  0.00     0.039 A 
HETATM   11  C   UNL     1     -45.152 -50.726  15.943  1.00  0.00    -0.054 A 
HETATM   12  C   UNL     1     -44.935 -49.662  16.988  1.00  0.00     0.049 C 
ENDROOT
BRANCH   8  13
HETATM   13  C   UNL     1     -42.312 -51.962  12.525  1.00  0.00     0.163 C 
BRANCH  13  14
HETATM   14  C   UNL     1     -41.238 -53.053  12.693  1.00  0.00     0.164 C 
BRANCH  14  15
HETATM   15  O   UNL     1     -40.640 -53.376  11.429  1.00  0.00    -0.392 OA
HETATM   16  H   UNL     1     -41.325 -53.367  10.741  1.00  0.00     0.210 HD
ENDBRANCH  14  15
BRANCH  14  17
HETATM   17  C   UNL     1     -40.107 -52.623  13.667  1.00  0.00     0.305 C 
BRANCH  17  18
HETATM   18  N   UNL     1     -39.652 -51.237  13.496  1.00  0.00     0.092 N 
HETATM   19  C   UNL     1     -39.829 -50.420  14.715  1.00  0.00     0.285 C 
HETATM   20  C   UNL     1     -39.756 -48.944  14.343  1.00  0.00     0.139 C 
HETATM   21  S   UNL     1     -38.101 -48.462  13.778  1.00  0.00     0.018 S 
HETATM   22  O   UNL     1     -37.135 -48.717  14.897  1.00  0.00    -0.258 OA
HETATM   23  C   UNL     1     -37.900 -49.780  12.547  1.00  0.00     0.139 C 
HETATM   24  C   UNL     1     -38.226 -51.166  13.097  1.00  0.00     0.285 C 
ENDBRANCH  17  18
ENDBRANCH  14  17
ENDBRANCH  13  14
ENDBRANCH   8  13
TORSDOF 5
ENDMDL
MODEL 6
REMARK VINA RESULT:      -5.9      2.804      3.766
REMARK  5 active torsions:
REMARK  status: ('A' for Active; 'I' for Inactive)
REMARK    1  A    between atoms: N_8  and  C_9 
REMARK    2  A    between atoms: C_9  and  C_10 
REMARK    3  A    between atoms: C_10  and  O_11 
REMARK    4  A    between atoms: C_10  and  C_12 
REMARK    5  A    between atoms: C_12  and  N_13 
ROOT
HETATM    1  C   UNL     1     -47.246 -51.916  15.577  1.00  0.00     0.049 C 
HETATM    2  C   UNL     1     -45.924 -52.534  15.201  1.00  0.00    -0.054 A 
HETATM    3  C   UNL     1     -45.274 -53.358  16.138  1.00  0.00     0.039 A 
HETATM    4  C   UNL     1     -44.027 -53.914  15.825  1.00  0.00     0.060 A 
HETATM    5  N   UNL     1     -43.228 -54.731  16.585  1.00  0.00    -0.350 N 
ATOM      6  HN  UNL     1     -43.422 -55.093  17.518  1.00  0.00     0.166 HD
HETATM    7  C   UNL     1     -42.161 -54.946  15.852  1.00  0.00     0.184 A 
HETATM    8  N   UNL     1     -42.236 -54.300  14.646  1.00  0.00    -0.339 N 
HETATM    9  C   UNL     1     -43.444 -53.646  14.589  1.00  0.00     0.062 A 
HETATM   10  C   UNL     1     -44.074 -52.855  13.621  1.00  0.00     0.039 A 
HETATM   11  C   UNL     1     -45.328 -52.292  13.944  1.00  0.00    -0.054 A 
HETATM   12  C   UNL     1     -46.009 -51.415  12.925  1.00  0.00     0.049 C 
ENDROOT
BRANCH   8  13
HETATM   13  C   UNL     1     -41.200 -54.325  13.625  1.00  0.00     0.163 C 
BRANCH  13  14
HETATM   14  C   UNL     1     -39.781 -54.272  14.220  1.00  0.00     0.164 C 
BRANCH  14  15
HETATM   15  O   UNL     1     -38.816 -54.763  13.278  1.00  0.00    -0.392 OA
HETATM   16  H   UNL     1     -39.177 -55.548  12.832  1.00  0.00     0.210 HD
ENDBRANCH  14  15
BRANCH  14  17
HETATM   17  C   UNL     1     -39.366 -52.833  14.630  1.00  0.00     0.305 C 
BRANCH  17  18
HETATM   18  N   UNL     1     -39.222 -51.897  13.506  1.00  0.00     0.092 N 
HETATM   19  C   UNL     1     -40.328 -50.920  13.428  1.00  0.00     0.285 C 
HETATM   20  C   UNL     1     -40.347 -50.296  12.037  1.00  0.00     0.139 C 
HETATM   21  S   UNL     1     -38.885 -49.269  11.728  1.00  0.00     0.018 S 
HETATM   22  O   UNL     1     -38.870 -48.164  12.743  1.00  0.00    -0.258 OA
HETATM   23  C   UNL     1     -37.646 -50.502  12.217  1.00  0.00     0.139 C 
HETATM   24  C   UNL     1     -37.946 -51.146  13.568  1.00  0.00     0.285 C 
ENDBRANCH  17  18
ENDBRANCH  14  17
ENDBRANCH  13  14
ENDBRANCH   8  13
TORSDOF 5
ENDMDL
MODEL 7
REMARK VINA RESULT:      -5.7      3.115      4.079
REMARK  5 active torsions:
REMARK  status: ('A' for Active; 'I' for Inactive)
REMARK    1  A    between atoms: N_8  and  C_9 
REMARK    2  A    between atoms: C_9  and  C_10 
REMARK    3  A    between atoms: C_10  and  O_11 
REMARK    4  A    between atoms: C_10  and  C_12 
REMARK    5  A    between atoms: C_12  and  N_13 
ROOT
HETATM    1  C   UNL     1     -46.967 -51.247  16.462  1.00  0.00     0.049 C 
HETATM    2  C   UNL     1     -45.769 -51.092  15.562  1.00  0.00    -0.054 A 
HETATM    3  C   UNL     1     -44.708 -50.271  15.986  1.00  0.00     0.039 A 
HETATM    4  C   UNL     1     -43.600 -50.083  15.151  1.00  0.00     0.060 A 
HETATM    5  N   UNL     1     -42.472 -49.330  15.365  1.00  0.00    -0.350 N 
ATOM      6  HN  UNL     1     -42.240 -48.785  16.194  1.00  0.00     0.166 HD
HETATM    7  C   UNL     1     -41.758 -49.464  14.272  1.00  0.00     0.184 A 
HETATM    8  N   UNL     1     -42.378 -50.276  13.357  1.00  0.00    -0.339 N 
HETATM    9  C   UNL     1     -43.559 -50.713  13.909  1.00  0.00     0.062 A 
HETATM   10  C   UNL     1     -44.581 -51.559  13.465  1.00  0.00     0.039 A 
HETATM   11  C   UNL     1     -45.699 -51.740  14.308  1.00  0.00    -0.054 A 
HETATM   12  C   UNL     1     -46.824 -52.626  13.837  1.00  0.00     0.049 C 
ENDROOT
BRANCH   8  13
HETATM   13  C   UNL     1     -41.848 -50.598  12.041  1.00  0.00     0.163 C 
BRANCH  13  14
HETATM   14  C   UNL     1     -40.976 -49.470  11.460  1.00  0.00     0.164 C 
BRANCH  14  15
HETATM   15  O   UNL     1     -40.023 -49.995  10.524  1.00  0.00    -0.392 OA
HETATM   16  H   UNL     1     -39.303 -50.428  11.012  1.00  0.00     0.210 HD
ENDBRANCH  14  15
BRANCH  14  17
HETATM   17  C   UNL     1     -41.819 -48.385  10.735  1.00  0.00     0.305 C 
BRANCH  17  18
HETATM   18  N   UNL     1     -41.590 -47.015  11.216  1.00  0.00     0.092 N 
HETATM   19  C   UNL     1     -40.157 -46.662  11.281  1.00  0.00     0.285 C 
HETATM   20  C   UNL     1     -39.982 -45.439  12.174  1.00  0.00     0.139 C 
HETATM   21  S   UNL     1     -40.728 -43.952  11.451  1.00  0.00     0.018 S 
HETATM   22  O   UNL     1     -40.048 -43.682  10.139  1.00  0.00    -0.258 OA
HETATM   23  C   UNL     1     -42.357 -44.672  11.104  1.00  0.00     0.139 C 
HETATM   24  C   UNL     1     -42.276 -46.009  10.372  1.00  0.00     0.285 C 
ENDBRANCH  17  18
ENDBRANCH  14  17
ENDBRANCH  13  14
ENDBRANCH   8  13
TORSDOF 5
ENDMDL
MODEL 8
REMARK VINA RESULT:      -5.7      2.666      3.699
REMARK  5 active torsions:
REMARK  status: ('A' for Active; 'I' for Inactive)
REMARK    1  A    between atoms: N_8  and  C_9 
REMARK    2  A    between atoms: C_9  and  C_10 
REMARK    3  A    between atoms: C_10  and  O_11 
REMARK    4  A    between atoms: C_10  and  C_12 
REMARK    5  A    between atoms: C_12  and  N_13 
ROOT
HETATM    1  C   UNL     1     -38.397 -55.533  16.123  1.00  0.00     0.049 C 
HETATM    2  C   UNL     1     -39.069 -54.455  15.313  1.00  0.00    -0.054 A 
HETATM    3  C   UNL     1     -39.689 -54.810  14.101  1.00  0.00     0.039 A 
HETATM    4  C   UNL     1     -40.289 -53.820  13.313  1.00  0.00     0.060 A 
HETATM    5  N   UNL     1     -40.937 -53.945  12.109  1.00  0.00    -0.350 N 
ATOM      6  HN  UNL     1     -41.109 -54.803  11.585  1.00  0.00     0.166 HD
HETATM    7  C   UNL     1     -41.287 -52.724  11.778  1.00  0.00     0.184 A 
HETATM    8  N   UNL     1     -40.891 -51.811  12.721  1.00  0.00    -0.339 N 
HETATM    9  C   UNL     1     -40.268 -52.494  13.738  1.00  0.00     0.062 A 
HETATM   10  C   UNL     1     -39.687 -52.107  14.951  1.00  0.00     0.039 A 
HETATM   11  C   UNL     1     -39.077 -53.108  15.739  1.00  0.00    -0.054 A 
HETATM   12  C   UNL     1     -38.422 -52.708  17.036  1.00  0.00     0.049 C 
ENDROOT
BRANCH   8  13
HETATM   13  C   UNL     1     -41.112 -50.376  12.630  1.00  0.00     0.163 C 
BRANCH  13  14
HETATM   14  C   UNL     1     -40.093 -49.677  11.711  1.00  0.00     0.164 C 
BRANCH  14  15
HETATM   15  O   UNL     1     -40.680 -49.380  10.435  1.00  0.00    -0.392 OA
HETATM   16  H   UNL     1     -40.006 -49.480   9.743  1.00  0.00     0.210 HD
ENDBRANCH  14  15
BRANCH  14  17
HETATM   17  C   UNL     1     -39.561 -48.351  12.319  1.00  0.00     0.305 C 
BRANCH  17  18
HETATM   18  N   UNL     1     -38.926 -48.498  13.636  1.00  0.00     0.092 N 
HETATM   19  C   UNL     1     -37.661 -49.260  13.581  1.00  0.00     0.285 C 
HETATM   20  C   UNL     1     -37.304 -49.739  14.983  1.00  0.00     0.139 C 
HETATM   21  S   UNL     1     -36.893 -48.363  16.092  1.00  0.00     0.018 S 
HETATM   22  O   UNL     1     -35.706 -47.644  15.520  1.00  0.00    -0.258 OA
HETATM   23  C   UNL     1     -38.372 -47.366  15.758  1.00  0.00     0.139 C 
HETATM   24  C   UNL     1     -38.647 -47.186  14.268  1.00  0.00     0.285 C 
ENDBRANCH  17  18
ENDBRANCH  14  17
ENDBRANCH  13  14
ENDBRANCH   8  13
TORSDOF 5
ENDMDL
MODEL 9
REMARK VINA RESULT:      -5.7      2.634      3.467
REMARK  5 active torsions:
REMARK  status: ('A' for Active; 'I' for Inactive)
REMARK    1  A    between atoms: N_8  and  C_9 
REMARK    2  A    between atoms: C_9  and  C_10 
REMARK    3  A    between atoms: C_10  and  O_11 
REMARK    4  A    between atoms: C_10  and  C_12 
REMARK    5  A    between atoms: C_12  and  N_13 
ROOT
HETATM    1  C   UNL     1     -47.060 -51.524  15.453  1.00  0.00     0.049 C 
HETATM    2  C   UNL     1     -45.689 -51.668  14.844  1.00  0.00    -0.054 A 
HETATM    3  C   UNL     1     -44.574 -51.729  15.700  1.00  0.00     0.039 A 
HETATM    4  C   UNL     1     -43.287 -51.826  15.156  1.00  0.00     0.060 A 
HETATM    5  N   UNL     1     -42.077 -51.894  15.801  1.00  0.00    -0.350 N 
ATOM      6  HN  UNL     1     -41.911 -51.903  16.806  1.00  0.00     0.166 HD
HETATM    7  C   UNL     1     -41.180 -51.944  14.844  1.00  0.00     0.184 A 
HETATM    8  N   UNL     1     -41.761 -51.911  13.602  1.00  0.00    -0.339 N 
HETATM    9  C   UNL     1     -43.125 -51.863  13.773  1.00  0.00     0.062 A 
HETATM   10  C   UNL     1     -44.211 -51.833  12.892  1.00  0.00     0.039 A 
HETATM   11  C   UNL     1     -45.506 -51.728  13.445  1.00  0.00    -0.054 A 
HETATM   12  C   UNL     1     -46.688 -51.668  12.511  1.00  0.00     0.049 C 
ENDROOT
BRANCH   8  13
HETATM   13  C   UNL     1     -41.032 -51.928  12.344  1.00  0.00     0.163 C 
BRANCH  13  14
HETATM   14  C   UNL     1     -40.058 -50.744  12.207  1.00  0.00     0.164 C 
BRANCH  14  15
HETATM   15  O   UNL     1     -38.718 -51.209  11.989  1.00  0.00    -0.392 OA
HETATM   16  H   UNL     1     -38.444 -51.757  12.743  1.00  0.00     0.210 HD
ENDBRANCH  14  15
BRANCH  14  17
HETATM   17  C   UNL     1     -40.438 -49.799  11.035  1.00  0.00     0.305 C 
BRANCH  17  18
HETATM   18  N   UNL     1     -40.464 -48.372  11.388  1.00  0.00     0.092 N 
HETATM   19  C   UNL     1     -41.507 -47.620  10.660  1.00  0.00     0.285 C 
HETATM   20  C   UNL     1     -41.194 -46.130  10.736  1.00  0.00     0.139 C 
HETATM   21  S   UNL     1     -41.344 -45.486  12.425  1.00  0.00     0.018 S 
HETATM   22  O   UNL     1     -42.760 -45.697  12.879  1.00  0.00    -0.258 OA
HETATM   23  C   UNL     1     -40.301 -46.735  13.227  1.00  0.00     0.139 C 
HETATM   24  C   UNL     1     -40.674 -48.163  12.840  1.00  0.00     0.285 C 
ENDBRANCH  17  18
ENDBRANCH  14  17
ENDBRANCH  13  14
ENDBRANCH   8  13
TORSDOF 5
ENDMDL
