MODEL 1
REMARK VINA RESULT:      -5.9      0.000      0.000
REMARK  15 active torsions:
REMARK  status: ('A' for Active; 'I' for Inactive)
REMARK    1  A    between atoms: N_1  and  C_8 
REMARK    2  A    between atoms: C_7  and  N_17 
REMARK    3  A    between atoms: C_13  and  C_18 
REMARK    4  A    between atoms: C_13  and  C_19 
REMARK    5  A    between atoms: N_17  and  C_25 
REMARK    6  A    between atoms: N_17  and  C_26 
REMARK    7  A    between atoms: C_18  and  O_20 
REMARK    8  A    between atoms: C_19  and  O_21 
REMARK    9  A    between atoms: O_22  and  C_27 
REMARK   10  A    between atoms: O_23  and  C_28 
REMARK   11  A    between atoms: O_24  and  C_29 
REMARK   12  A    between atoms: O_24  and  C_30 
REMARK   13  A    between atoms: C_25  and  C_27 
REMARK   14  A    between atoms: C_26  and  C_29 
REMARK   15  A    between atoms: C_28  and  C_30 
ROOT
HETATM    1  N   UNL     1     -42.684 -50.965  13.151  1.00  0.00    -0.322 N 
HETATM    2  C   UNL     1     -42.264 -49.224  11.885  1.00  0.00     0.122 A 
HETATM    3  C   UNL     1     -41.670 -50.354  12.461  1.00  0.00     0.140 A 
HETATM    4  N   UNL     1     -43.597 -49.148  12.242  1.00  0.00    -0.346 N 
ATOM      5  HN  UNL     1     -44.268 -48.425  11.983  1.00  0.00     0.167 HD
HETATM    6  C   UNL     1     -43.812 -50.208  12.984  1.00  0.00     0.185 A 
HETATM    7  C   UNL     1     -41.474 -48.400  11.033  1.00  0.00     0.135 A 
HETATM    8  N   UNL     1     -40.391 -50.745  12.314  1.00  0.00    -0.336 N 
ATOM      9  HN  UNL     1     -39.983 -51.567  12.758  1.00  0.00     0.168 HD
HETATM   10  N   UNL     1     -40.178 -48.804  10.860  1.00  0.00    -0.337 N 
ATOM     11  HN  UNL     1     -39.556 -48.274  10.249  1.00  0.00     0.168 HD
HETATM   12  C   UNL     1     -39.722 -49.905  11.499  1.00  0.00     0.183 A 
ENDROOT
BRANCH   7  13
HETATM   13  N   UNL     1     -41.909 -47.264  10.357  1.00  0.00    -0.361 N 
BRANCH  13  14
HETATM   14  C   UNL     1     -41.900 -45.920  10.954  1.00  0.00     0.150 C 
BRANCH  14  15
HETATM   15  C   UNL     1     -40.556 -45.186  10.726  1.00  0.00     0.183 C 
BRANCH  15  16
HETATM   16  O   UNL     1     -39.619 -45.940   9.958  1.00  0.00    -0.399 OA
HETATM   17  H   UNL     1     -38.758 -45.855  10.405  1.00  0.00     0.209 HD
ENDBRANCH  15  16
ENDBRANCH  14  15
ENDBRANCH  13  14
BRANCH  13  18
HETATM   18  C   UNL     1     -42.717 -47.451   9.140  1.00  0.00     0.150 C 
BRANCH  18  19
HETATM   19  C   UNL     1     -44.083 -46.740   9.142  1.00  0.00     0.187 C 
BRANCH  19  20
HETATM   20  O   UNL     1     -45.086 -47.444   9.894  1.00  0.00    -0.387 OA
BRANCH  20  21
HETATM   21  C   UNL     1     -46.326 -47.438   9.178  1.00  0.00     0.193 C 
BRANCH  21  22
HETATM   22  C   UNL     1     -46.571 -48.770   8.479  1.00  0.00     0.190 C 
BRANCH  22  23
HETATM   23  O   UNL     1     -46.207 -48.659   7.104  1.00  0.00    -0.399 OA
HETATM   24  H   UNL     1     -46.776 -49.274   6.609  1.00  0.00     0.209 HD
ENDBRANCH  22  23
ENDBRANCH  21  22
ENDBRANCH  20  21
ENDBRANCH  19  20
ENDBRANCH  18  19
ENDBRANCH  13  18
ENDBRANCH   7  13
BRANCH   1  25
HETATM   25  C   UNL     1     -42.767 -52.187  13.901  1.00  0.00     0.094 C 
HETATM   26  C   UNL     1     -43.507 -53.315  13.113  1.00  0.00     0.039 C 
HETATM   27  C   UNL     1     -43.830 -53.954  14.508  1.00  0.00     0.006 C 
HETATM   28  C   UNL     1     -43.802 -52.447  15.016  1.00  0.00     0.039 C 
BRANCH  27  29
HETATM   29  C   UNL     1     -45.185 -54.662  14.567  1.00  0.00     0.175 C 
BRANCH  29  30
HETATM   30  O   UNL     1     -45.663 -54.698  15.908  1.00  0.00    -0.400 OA
HETATM   31  H   UNL     1     -46.522 -55.168  15.894  1.00  0.00     0.209 HD
ENDBRANCH  29  30
ENDBRANCH  27  29
BRANCH  27  32
HETATM   32  C   UNL     1     -42.708 -54.908  14.972  1.00  0.00     0.175 C 
BRANCH  32  33
HETATM   33  O   UNL     1     -43.272 -56.130  15.432  1.00  0.00    -0.400 OA
HETATM   34  H   UNL     1     -43.754 -55.935  16.256  1.00  0.00     0.209 HD
ENDBRANCH  32  33
ENDBRANCH  27  32
ENDBRANCH   1  25
TORSDOF 15
ENDMDL
MODEL 2
REMARK VINA RESULT:      -5.8      2.299      7.416
REMARK  15 active torsions:
REMARK  status: ('A' for Active; 'I' for Inactive)
REMARK    1  A    between atoms: N_1  and  C_8 
REMARK    2  A    between atoms: C_7  and  N_17 
REMARK    3  A    between atoms: C_13  and  C_18 
REMARK    4  A    between atoms: C_13  and  C_19 
REMARK    5  A    between atoms: N_17  and  C_25 
REMARK    6  A    between atoms: N_17  and  C_26 
REMARK    7  A    between atoms: C_18  and  O_20 
REMARK    8  A    between atoms: C_19  and  O_21 
REMARK    9  A    between atoms: O_22  and  C_27 
REMARK   10  A    between atoms: O_23  and  C_28 
REMARK   11  A    between atoms: O_24  and  C_29 
REMARK   12  A    between atoms: O_24  and  C_30 
REMARK   13  A    between atoms: C_25  and  C_27 
REMARK   14  A    between atoms: C_26  and  C_29 
REMARK   15  A    between atoms: C_28  and  C_30 
ROOT
HETATM    1  N   UNL     1     -42.341 -49.485  12.429  1.00  0.00    -0.322 N 
HETATM    2  C   UNL     1     -42.639 -51.440  13.378  1.00  0.00     0.122 A 
HETATM    3  C   UNL     1     -41.969 -50.800  12.327  1.00  0.00     0.140 A 
HETATM    4  N   UNL     1     -43.413 -50.533  14.076  1.00  0.00    -0.346 N 
ATOM      5  HN  UNL     1     -44.018 -50.720  14.875  1.00  0.00     0.167 HD
HETATM    6  C   UNL     1     -43.199 -49.379  13.490  1.00  0.00     0.185 A 
HETATM    7  C   UNL     1     -42.404 -52.828  13.589  1.00  0.00     0.135 A 
HETATM    8  N   UNL     1     -41.120 -51.374  11.455  1.00  0.00    -0.336 N 
ATOM      9  HN  UNL     1     -40.657 -50.884  10.690  1.00  0.00     0.168 HD
HETATM   10  N   UNL     1     -41.524 -53.415  12.720  1.00  0.00    -0.337 N 
ATOM     11  HN  UNL     1     -41.291 -54.404  12.819  1.00  0.00     0.168 HD
HETATM   12  C   UNL     1     -40.965 -52.685  11.729  1.00  0.00     0.183 A 
ENDROOT
BRANCH   7  13
HETATM   13  N   UNL     1     -42.957 -53.610  14.599  1.00  0.00    -0.361 N 
BRANCH  13  14
HETATM   14  C   UNL     1     -42.529 -53.528  16.004  1.00  0.00     0.150 C 
BRANCH  14  15
HETATM   15  C   UNL     1     -43.675 -53.073  16.940  1.00  0.00     0.183 C 
BRANCH  15  16
HETATM   16  O   UNL     1     -44.305 -51.863  16.522  1.00  0.00    -0.399 OA
HETATM   17  H   UNL     1     -44.822 -51.539  17.282  1.00  0.00     0.209 HD
ENDBRANCH  15  16
ENDBRANCH  14  15
ENDBRANCH  13  14
BRANCH  13  18
HETATM   18  C   UNL     1     -43.746 -54.790  14.207  1.00  0.00     0.150 C 
BRANCH  18  19
HETATM   19  C   UNL     1     -45.219 -54.508  13.858  1.00  0.00     0.187 C 
BRANCH  19  20
HETATM   20  O   UNL     1     -45.392 -53.949  12.544  1.00  0.00    -0.387 OA
BRANCH  20  21
HETATM   21  C   UNL     1     -46.008 -52.660  12.640  1.00  0.00     0.193 C 
BRANCH  21  22
HETATM   22  C   UNL     1     -46.654 -52.452  14.005  1.00  0.00     0.190 C 
BRANCH  22  23
HETATM   23  O   UNL     1     -46.331 -51.151  14.491  1.00  0.00    -0.399 OA
HETATM   24  H   UNL     1     -45.724 -51.270  15.241  1.00  0.00     0.209 HD
ENDBRANCH  22  23
ENDBRANCH  21  22
ENDBRANCH  20  21
ENDBRANCH  19  20
ENDBRANCH  18  19
ENDBRANCH  13  18
ENDBRANCH   7  13
BRANCH   1  25
HETATM   25  C   UNL     1     -41.968 -48.298  11.710  1.00  0.00     0.094 C 
HETATM   26  C   UNL     1     -43.085 -47.208  11.750  1.00  0.00     0.039 C 
HETATM   27  C   UNL     1     -42.456 -46.642  10.430  1.00  0.00     0.006 C 
HETATM   28  C   UNL     1     -42.046 -48.158  10.175  1.00  0.00     0.039 C 
BRANCH  27  29
HETATM   29  C   UNL     1     -43.478 -46.046   9.460  1.00  0.00     0.175 C 
BRANCH  29  30
HETATM   30  O   UNL     1     -43.592 -44.642   9.667  1.00  0.00    -0.400 OA
HETATM   31  H   UNL     1     -44.541 -44.415   9.577  1.00  0.00     0.209 HD
ENDBRANCH  29  30
ENDBRANCH  27  29
BRANCH  27  32
HETATM   32  C   UNL     1     -41.339 -45.619  10.724  1.00  0.00     0.175 C 
BRANCH  32  33
HETATM   33  O   UNL     1     -40.726 -45.209   9.507  1.00  0.00    -0.400 OA
HETATM   34  H   UNL     1     -41.376 -44.664   9.025  1.00  0.00     0.209 HD
ENDBRANCH  32  33
ENDBRANCH  27  32
ENDBRANCH   1  25
TORSDOF 15
ENDMDL
MODEL 3
REMARK VINA RESULT:      -5.7      2.322      7.589
REMARK  15 active torsions:
REMARK  status: ('A' for Active; 'I' for Inactive)
REMARK    1  A    between atoms: N_1  and  C_8 
REMARK    2  A    between atoms: C_7  and  N_17 
REMARK    3  A    between atoms: C_13  and  C_18 
REMARK    4  A    between atoms: C_13  and  C_19 
REMARK    5  A    between atoms: N_17  and  C_25 
REMARK    6  A    between atoms: N_17  and  C_26 
REMARK    7  A    between atoms: C_18  and  O_20 
REMARK    8  A    between atoms: C_19  and  O_21 
REMARK    9  A    between atoms: O_22  and  C_27 
REMARK   10  A    between atoms: O_23  and  C_28 
REMARK   11  A    between atoms: O_24  and  C_29 
REMARK   12  A    between atoms: O_24  and  C_30 
REMARK   13  A    between atoms: C_25  and  C_27 
REMARK   14  A    between atoms: C_26  and  C_29 
REMARK   15  A    between atoms: C_28  and  C_30 
ROOT
HETATM    1  N   UNL     1     -42.350 -49.562  12.321  1.00  0.00    -0.322 N 
HETATM    2  C   UNL     1     -42.814 -51.454  13.327  1.00  0.00     0.122 A 
HETATM    3  C   UNL     1     -41.974 -50.879  12.366  1.00  0.00     0.140 A 
HETATM    4  N   UNL     1     -43.688 -50.509  13.828  1.00  0.00    -0.346 N 
ATOM      5  HN  UNL     1     -44.420 -50.649  14.525  1.00  0.00     0.167 HD
HETATM    6  C   UNL     1     -43.373 -49.394  13.215  1.00  0.00     0.185 A 
HETATM    7  C   UNL     1     -42.624 -52.826  13.663  1.00  0.00     0.135 A 
HETATM    8  N   UNL     1     -40.995 -51.502  11.686  1.00  0.00    -0.336 N 
ATOM      9  HN  UNL     1     -40.407 -51.058  10.980  1.00  0.00     0.168 HD
HETATM   10  N   UNL     1     -41.615 -53.461  12.991  1.00  0.00    -0.337 N 
ATOM     11  HN  UNL     1     -41.407 -54.440  13.190  1.00  0.00     0.168 HD
HETATM   12  C   UNL     1     -40.893 -52.792  12.064  1.00  0.00     0.183 A 
ENDROOT
BRANCH   7  13
HETATM   13  N   UNL     1     -43.342 -53.545  14.613  1.00  0.00    -0.361 N 
BRANCH  13  14
HETATM   14  C   UNL     1     -44.465 -54.431  14.270  1.00  0.00     0.150 C 
BRANCH  14  15
HETATM   15  C   UNL     1     -44.886 -54.297  12.786  1.00  0.00     0.183 C 
BRANCH  15  16
HETATM   16  O   UNL     1     -46.035 -53.472  12.593  1.00  0.00    -0.399 OA
HETATM   17  H   UNL     1     -46.390 -53.275  13.479  1.00  0.00     0.209 HD
ENDBRANCH  15  16
ENDBRANCH  14  15
ENDBRANCH  13  14
BRANCH  13  18
HETATM   18  C   UNL     1     -43.205 -53.153  16.026  1.00  0.00     0.150 C 
BRANCH  18  19
HETATM   19  C   UNL     1     -44.495 -52.644  16.694  1.00  0.00     0.187 C 
BRANCH  19  20
HETATM   20  O   UNL     1     -44.701 -51.230  16.522  1.00  0.00    -0.387 OA
BRANCH  20  21
HETATM   21  C   UNL     1     -46.100 -50.932  16.569  1.00  0.00     0.193 C 
BRANCH  21  22
HETATM   22  C   UNL     1     -46.878 -51.747  15.542  1.00  0.00     0.190 C 
BRANCH  22  23
HETATM   23  O   UNL     1     -46.629 -51.230  14.237  1.00  0.00    -0.399 OA
HETATM   24  H   UNL     1     -47.494 -51.095  13.814  1.00  0.00     0.209 HD
ENDBRANCH  22  23
ENDBRANCH  21  22
ENDBRANCH  20  21
ENDBRANCH  19  20
ENDBRANCH  18  19
ENDBRANCH  13  18
ENDBRANCH   7  13
BRANCH   1  25
HETATM   25  C   UNL     1     -41.856 -48.421  11.602  1.00  0.00     0.094 C 
HETATM   26  C   UNL     1     -42.786 -47.175  11.759  1.00  0.00     0.039 C 
HETATM   27  C   UNL     1     -42.182 -46.665  10.404  1.00  0.00     0.006 C 
HETATM   28  C   UNL     1     -42.032 -48.216  10.082  1.00  0.00     0.039 C 
BRANCH  27  29
HETATM   29  C   UNL     1     -43.173 -45.887   9.536  1.00  0.00     0.175 C 
BRANCH  29  30
HETATM   30  O   UNL     1     -42.811 -45.991   8.163  1.00  0.00    -0.400 OA
HETATM   31  H   UNL     1     -43.169 -46.841   7.836  1.00  0.00     0.209 HD
ENDBRANCH  29  30
ENDBRANCH  27  29
BRANCH  27  32
HETATM   32  C   UNL     1     -40.901 -45.834  10.629  1.00  0.00     0.175 C 
BRANCH  32  33
HETATM   33  O   UNL     1     -40.567 -45.130   9.438  1.00  0.00    -0.400 OA
HETATM   34  H   UNL     1     -39.867 -44.491   9.667  1.00  0.00     0.209 HD
ENDBRANCH  32  33
ENDBRANCH  27  32
ENDBRANCH   1  25
TORSDOF 15
ENDMDL
MODEL 4
REMARK VINA RESULT:      -5.6      2.188      8.336
REMARK  15 active torsions:
REMARK  status: ('A' for Active; 'I' for Inactive)
REMARK    1  A    between atoms: N_1  and  C_8 
REMARK    2  A    between atoms: C_7  and  N_17 
REMARK    3  A    between atoms: C_13  and  C_18 
REMARK    4  A    between atoms: C_13  and  C_19 
REMARK    5  A    between atoms: N_17  and  C_25 
REMARK    6  A    between atoms: N_17  and  C_26 
REMARK    7  A    between atoms: C_18  and  O_20 
REMARK    8  A    between atoms: C_19  and  O_21 
REMARK    9  A    between atoms: O_22  and  C_27 
REMARK   10  A    between atoms: O_23  and  C_28 
REMARK   11  A    between atoms: O_24  and  C_29 
REMARK   12  A    between atoms: O_24  and  C_30 
REMARK   13  A    between atoms: C_25  and  C_27 
REMARK   14  A    between atoms: C_26  and  C_29 
REMARK   15  A    between atoms: C_28  and  C_30 
ROOT
HETATM    1  N   UNL     1     -42.336 -49.419  12.367  1.00  0.00    -0.322 N 
HETATM    2  C   UNL     1     -42.520 -51.402  13.286  1.00  0.00     0.122 A 
HETATM    3  C   UNL     1     -41.912 -50.715  12.228  1.00  0.00     0.140 A 
HETATM    4  N   UNL     1     -43.308 -50.543  14.027  1.00  0.00    -0.346 N 
ATOM      5  HN  UNL     1     -43.879 -50.771  14.840  1.00  0.00     0.167 HD
HETATM    6  C   UNL     1     -43.164 -49.370  13.457  1.00  0.00     0.185 A 
HETATM    7  C   UNL     1     -42.217 -52.783  13.462  1.00  0.00     0.135 A 
HETATM    8  N   UNL     1     -41.068 -51.235  11.318  1.00  0.00    -0.336 N 
ATOM      9  HN  UNL     1     -40.652 -50.710  10.548  1.00  0.00     0.168 HD
HETATM   10  N   UNL     1     -41.342 -53.315  12.554  1.00  0.00    -0.337 N 
ATOM     11  HN  UNL     1     -41.064 -54.293  12.626  1.00  0.00     0.168 HD
HETATM   12  C   UNL     1     -40.847 -52.542  11.560  1.00  0.00     0.183 A 
ENDROOT
BRANCH   7  13
HETATM   13  N   UNL     1     -42.703 -53.607  14.473  1.00  0.00    -0.361 N 
BRANCH  13  14
HETATM   14  C   UNL     1     -43.778 -54.588  14.263  1.00  0.00     0.150 C 
BRANCH  14  15
HETATM   15  C   UNL     1     -44.839 -54.087  13.252  1.00  0.00     0.183 C 
BRANCH  15  16
HETATM   16  O   UNL     1     -46.142 -54.621  13.484  1.00  0.00    -0.399 OA
HETATM   17  H   UNL     1     -46.094 -55.574  13.286  1.00  0.00     0.209 HD
ENDBRANCH  15  16
ENDBRANCH  14  15
ENDBRANCH  13  14
BRANCH  13  18
HETATM   18  C   UNL     1     -42.378 -53.257  15.866  1.00  0.00     0.150 C 
BRANCH  18  19
HETATM   19  C   UNL     1     -41.009 -53.755  16.366  1.00  0.00     0.187 C 
BRANCH  19  20
HETATM   20  O   UNL     1     -40.775 -55.146  16.082  1.00  0.00    -0.387 OA
BRANCH  20  21
HETATM   21  C   UNL     1     -39.413 -55.341  15.686  1.00  0.00     0.193 C 
BRANCH  21  22
HETATM   22  C   UNL     1     -38.948 -54.244  14.735  1.00  0.00     0.190 C 
BRANCH  22  23
HETATM   23  O   UNL     1     -38.791 -54.786  13.425  1.00  0.00    -0.399 OA
HETATM   24  H   UNL     1     -37.867 -55.081  13.349  1.00  0.00     0.209 HD
ENDBRANCH  22  23
ENDBRANCH  21  22
ENDBRANCH  20  21
ENDBRANCH  19  20
ENDBRANCH  18  19
ENDBRANCH  13  18
ENDBRANCH   7  13
BRANCH   1  25
HETATM   25  C   UNL     1     -42.039 -48.204  11.661  1.00  0.00     0.094 C 
HETATM   26  C   UNL     1     -43.244 -47.210  11.661  1.00  0.00     0.039 C 
HETATM   27  C   UNL     1     -42.618 -46.592  10.363  1.00  0.00     0.006 C 
HETATM   28  C   UNL     1     -42.075 -48.068  10.124  1.00  0.00     0.039 C 
BRANCH  27  29
HETATM   29  C   UNL     1     -43.652 -46.081   9.358  1.00  0.00     0.175 C 
BRANCH  29  30
HETATM   30  O   UNL     1     -43.718 -44.659   9.399  1.00  0.00    -0.400 OA
HETATM   31  H   UNL     1     -43.247 -44.373  10.208  1.00  0.00     0.209 HD
ENDBRANCH  29  30
ENDBRANCH  27  29
BRANCH  27  32
HETATM   32  C   UNL     1     -41.601 -45.479  10.695  1.00  0.00     0.175 C 
BRANCH  32  33
HETATM   33  O   UNL     1     -40.832 -45.166   9.539  1.00  0.00    -0.400 OA
HETATM   34  H   UNL     1     -40.856 -45.947   8.956  1.00  0.00     0.209 HD
ENDBRANCH  32  33
ENDBRANCH  27  32
ENDBRANCH   1  25
TORSDOF 15
ENDMDL
MODEL 5
REMARK VINA RESULT:      -5.5      3.543      7.352
REMARK  15 active torsions:
REMARK  status: ('A' for Active; 'I' for Inactive)
REMARK    1  A    between atoms: N_1  and  C_8 
REMARK    2  A    between atoms: C_7  and  N_17 
REMARK    3  A    between atoms: C_13  and  C_18 
REMARK    4  A    between atoms: C_13  and  C_19 
REMARK    5  A    between atoms: N_17  and  C_25 
REMARK    6  A    between atoms: N_17  and  C_26 
REMARK    7  A    between atoms: C_18  and  O_20 
REMARK    8  A    between atoms: C_19  and  O_21 
REMARK    9  A    between atoms: O_22  and  C_27 
REMARK   10  A    between atoms: O_23  and  C_28 
REMARK   11  A    between atoms: O_24  and  C_29 
REMARK   12  A    between atoms: O_24  and  C_30 
REMARK   13  A    between atoms: C_25  and  C_27 
REMARK   14  A    between atoms: C_26  and  C_29 
REMARK   15  A    between atoms: C_28  and  C_30 
ROOT
HETATM    1  N   UNL     1     -41.366 -48.249  11.621  1.00  0.00    -0.322 N 
HETATM    2  C   UNL     1     -39.789 -48.533  13.119  1.00  0.00     0.122 A 
HETATM    3  C   UNL     1     -40.131 -48.819  11.791  1.00  0.00     0.140 A 
HETATM    4  N   UNL     1     -40.805 -47.829  13.735  1.00  0.00    -0.346 N 
ATOM      5  HN  UNL     1     -40.837 -47.503  14.701  1.00  0.00     0.167 HD
HETATM    6  C   UNL     1     -41.720 -47.668  12.809  1.00  0.00     0.185 A 
HETATM    7  C   UNL     1     -38.508 -48.939  13.593  1.00  0.00     0.135 A 
HETATM    8  N   UNL     1     -39.372 -49.475  10.895  1.00  0.00    -0.336 N 
ATOM      9  HN  UNL     1     -39.656 -49.682   9.937  1.00  0.00     0.168 HD
HETATM   10  N   UNL     1     -37.721 -49.588  12.681  1.00  0.00    -0.337 N 
ATOM     11  HN  UNL     1     -36.783 -49.893  12.942  1.00  0.00     0.168 HD
HETATM   12  C   UNL     1     -38.187 -49.824  11.434  1.00  0.00     0.183 A 
ENDROOT
BRANCH   7  13
HETATM   13  N   UNL     1     -37.995 -48.709  14.866  1.00  0.00    -0.361 N 
BRANCH  13  14
HETATM   14  C   UNL     1     -36.798 -47.891  15.113  1.00  0.00     0.150 C 
BRANCH  14  15
HETATM   15  C   UNL     1     -36.130 -48.223  16.470  1.00  0.00     0.183 C 
BRANCH  15  16
HETATM   16  O   UNL     1     -34.885 -48.908  16.339  1.00  0.00    -0.399 OA
HETATM   17  H   UNL     1     -34.985 -49.530  15.596  1.00  0.00     0.209 HD
ENDBRANCH  15  16
ENDBRANCH  14  15
ENDBRANCH  13  14
BRANCH  13  18
HETATM   18  C   UNL     1     -38.449 -49.580  15.963  1.00  0.00     0.150 C 
BRANCH  18  19
HETATM   19  C   UNL     1     -38.278 -51.090  15.717  1.00  0.00     0.187 C 
BRANCH  19  20
HETATM   20  O   UNL     1     -39.511 -51.753  15.385  1.00  0.00    -0.387 OA
BRANCH  20  21
HETATM   21  C   UNL     1     -39.373 -52.445  14.139  1.00  0.00     0.193 C 
BRANCH  21  22
HETATM   22  C   UNL     1     -40.588 -52.228  13.245  1.00  0.00     0.190 C 
BRANCH  22  23
HETATM   23  O   UNL     1     -40.221 -52.446  11.884  1.00  0.00    -0.399 OA
HETATM   24  H   UNL     1     -40.842 -53.102  11.524  1.00  0.00     0.209 HD
ENDBRANCH  22  23
ENDBRANCH  21  22
ENDBRANCH  20  21
ENDBRANCH  19  20
ENDBRANCH  18  19
ENDBRANCH  13  18
ENDBRANCH   7  13
BRANCH   1  25
HETATM   25  C   UNL     1     -42.243 -48.119  10.491  1.00  0.00     0.094 C 
HETATM   26  C   UNL     1     -42.030 -46.772   9.729  1.00  0.00     0.039 C 
HETATM   27  C   UNL     1     -43.501 -46.936   9.211  1.00  0.00     0.006 C 
HETATM   28  C   UNL     1     -43.723 -47.695  10.591  1.00  0.00     0.039 C 
BRANCH  27  29
HETATM   29  C   UNL     1     -44.249 -45.613   9.039  1.00  0.00     0.175 C 
BRANCH  29  30
HETATM   30  O   UNL     1     -45.632 -45.857   8.799  1.00  0.00    -0.400 OA
HETATM   31  H   UNL     1     -45.715 -46.144   7.867  1.00  0.00     0.209 HD
ENDBRANCH  29  30
ENDBRANCH  27  29
BRANCH  27  32
HETATM   32  C   UNL     1     -43.557 -47.755   7.904  1.00  0.00     0.175 C 
BRANCH  32  33
HETATM   33  O   UNL     1     -44.889 -48.191   7.664  1.00  0.00    -0.400 OA
HETATM   34  H   UNL     1     -45.419 -47.401   7.450  1.00  0.00     0.209 HD
ENDBRANCH  32  33
ENDBRANCH  27  32
ENDBRANCH   1  25
TORSDOF 15
ENDMDL
MODEL 6
REMARK VINA RESULT:      -5.4      2.709      8.203
REMARK  15 active torsions:
REMARK  status: ('A' for Active; 'I' for Inactive)
REMARK    1  A    between atoms: N_1  and  C_8 
REMARK    2  A    between atoms: C_7  and  N_17 
REMARK    3  A    between atoms: C_13  and  C_18 
REMARK    4  A    between atoms: C_13  and  C_19 
REMARK    5  A    between atoms: N_17  and  C_25 
REMARK    6  A    between atoms: N_17  and  C_26 
REMARK    7  A    between atoms: C_18  and  O_20 
REMARK    8  A    between atoms: C_19  and  O_21 
REMARK    9  A    between atoms: O_22  and  C_27 
REMARK   10  A    between atoms: O_23  and  C_28 
REMARK   11  A    between atoms: O_24  and  C_29 
REMARK   12  A    between atoms: O_24  and  C_30 
REMARK   13  A    between atoms: C_25  and  C_27 
REMARK   14  A    between atoms: C_26  and  C_29 
REMARK   15  A    between atoms: C_28  and  C_30 
ROOT
HETATM    1  N   UNL     1     -42.108 -48.535  12.422  1.00  0.00    -0.322 N 
HETATM    2  C   UNL     1     -42.434 -50.649  12.909  1.00  0.00     0.122 A 
HETATM    3  C   UNL     1     -42.663 -49.348  13.376  1.00  0.00     0.140 A 
HETATM    4  N   UNL     1     -41.737 -50.615  11.716  1.00  0.00    -0.346 N 
ATOM      5  HN  UNL     1     -41.420 -51.408  11.160  1.00  0.00     0.167 HD
HETATM    6  C   UNL     1     -41.573 -49.340  11.453  1.00  0.00     0.185 A 
HETATM    7  C   UNL     1     -42.960 -51.742  13.655  1.00  0.00     0.135 A 
HETATM    8  N   UNL     1     -43.324 -49.008  14.497  1.00  0.00    -0.336 N 
ATOM      9  HN  UNL     1     -43.462 -48.050  14.819  1.00  0.00     0.168 HD
HETATM   10  N   UNL     1     -43.653 -51.403  14.786  1.00  0.00    -0.337 N 
ATOM     11  HN  UNL     1     -44.075 -52.131  15.363  1.00  0.00     0.168 HD
HETATM   12  C   UNL     1     -43.778 -50.103  15.138  1.00  0.00     0.183 A 
ENDROOT
BRANCH   7  13
HETATM   13  N   UNL     1     -42.856 -53.088  13.322  1.00  0.00    -0.361 N 
BRANCH  13  14
HETATM   14  C   UNL     1     -43.868 -53.800  12.527  1.00  0.00     0.150 C 
BRANCH  14  15
HETATM   15  C   UNL     1     -44.976 -54.424  13.411  1.00  0.00     0.183 C 
BRANCH  15  16
HETATM   16  O   UNL     1     -46.269 -53.866  13.180  1.00  0.00    -0.399 OA
HETATM   17  H   UNL     1     -46.428 -53.916  12.221  1.00  0.00     0.209 HD
ENDBRANCH  15  16
ENDBRANCH  14  15
ENDBRANCH  13  14
BRANCH  13  18
HETATM   18  C   UNL     1     -41.887 -53.912  14.065  1.00  0.00     0.150 C 
BRANCH  18  19
HETATM   19  C   UNL     1     -40.577 -54.220  13.318  1.00  0.00     0.187 C 
BRANCH  19  20
HETATM   20  O   UNL     1     -39.946 -53.047  12.775  1.00  0.00    -0.387 OA
BRANCH  20  21
HETATM   21  C   UNL     1     -39.262 -52.337  13.813  1.00  0.00     0.193 C 
BRANCH  21  22
HETATM   22  C   UNL     1     -38.356 -51.253  13.241  1.00  0.00     0.190 C 
BRANCH  22  23
HETATM   23  O   UNL     1     -38.594 -51.124  11.841  1.00  0.00    -0.399 OA
HETATM   24  H   UNL     1     -37.725 -51.038  11.412  1.00  0.00     0.209 HD
ENDBRANCH  22  23
ENDBRANCH  21  22
ENDBRANCH  20  21
ENDBRANCH  19  20
ENDBRANCH  18  19
ENDBRANCH  13  18
ENDBRANCH   7  13
BRANCH   1  25
HETATM   25  C   UNL     1     -42.052 -47.109  12.256  1.00  0.00     0.094 C 
HETATM   26  C   UNL     1     -41.907 -46.694  10.757  1.00  0.00     0.039 C 
HETATM   27  C   UNL     1     -41.277 -45.357  11.281  1.00  0.00     0.006 C 
HETATM   28  C   UNL     1     -40.784 -46.262  12.494  1.00  0.00     0.039 C 
BRANCH  27  29
HETATM   29  C   UNL     1     -40.184 -44.789  10.374  1.00  0.00     0.175 C 
BRANCH  29  30
HETATM   30  O   UNL     1     -40.287 -43.371  10.308  1.00  0.00    -0.400 OA
HETATM   31  H   UNL     1     -40.730 -43.077  11.130  1.00  0.00     0.209 HD
ENDBRANCH  29  30
ENDBRANCH  27  29
BRANCH  27  32
HETATM   32  C   UNL     1     -42.355 -44.287  11.553  1.00  0.00     0.175 C 
BRANCH  32  33
HETATM   33  O   UNL     1     -43.077 -44.013  10.358  1.00  0.00    -0.400 OA
HETATM   34  H   UNL     1     -42.711 -44.587   9.661  1.00  0.00     0.209 HD
ENDBRANCH  32  33
ENDBRANCH  27  32
ENDBRANCH   1  25
TORSDOF 15
ENDMDL
MODEL 7
REMARK VINA RESULT:      -5.3      2.564      4.034
REMARK  15 active torsions:
REMARK  status: ('A' for Active; 'I' for Inactive)
REMARK    1  A    between atoms: N_1  and  C_8 
REMARK    2  A    between atoms: C_7  and  N_17 
REMARK    3  A    between atoms: C_13  and  C_18 
REMARK    4  A    between atoms: C_13  and  C_19 
REMARK    5  A    between atoms: N_17  and  C_25 
REMARK    6  A    between atoms: N_17  and  C_26 
REMARK    7  A    between atoms: C_18  and  O_20 
REMARK    8  A    between atoms: C_19  and  O_21 
REMARK    9  A    between atoms: O_22  and  C_27 
REMARK   10  A    between atoms: O_23  and  C_28 
REMARK   11  A    between atoms: O_24  and  C_29 
REMARK   12  A    between atoms: O_24  and  C_30 
REMARK   13  A    between atoms: C_25  and  C_27 
REMARK   14  A    between atoms: C_26  and  C_29 
REMARK   15  A    between atoms: C_28  and  C_30 
ROOT
HETATM    1  N   UNL     1     -42.212 -52.208  13.838  1.00  0.00    -0.322 N 
HETATM    2  C   UNL     1     -40.491 -50.855  13.703  1.00  0.00     0.122 A 
HETATM    3  C   UNL     1     -40.984 -51.968  14.397  1.00  0.00     0.140 A 
HETATM    4  N   UNL     1     -41.413 -50.426  12.768  1.00  0.00    -0.346 N 
ATOM      5  HN  UNL     1     -41.330 -49.630  12.136  1.00  0.00     0.167 HD
HETATM    6  C   UNL     1     -42.418 -51.263  12.870  1.00  0.00     0.185 A 
HETATM    7  C   UNL     1     -39.180 -50.391  14.008  1.00  0.00     0.135 A 
HETATM    8  N   UNL     1     -40.347 -52.652  15.364  1.00  0.00    -0.336 N 
ATOM      9  HN  UNL     1     -40.739 -53.452  15.862  1.00  0.00     0.168 HD
HETATM   10  N   UNL     1     -38.516 -51.095  14.976  1.00  0.00    -0.337 N 
ATOM     11  HN  UNL     1     -37.565 -50.833  15.236  1.00  0.00     0.168 HD
HETATM   12  C   UNL     1     -39.121 -52.139  15.587  1.00  0.00     0.183 A 
ENDROOT
BRANCH   7  13
HETATM   13  N   UNL     1     -38.524 -49.326  13.398  1.00  0.00    -0.361 N 
BRANCH  13  14
HETATM   14  C   UNL     1     -37.357 -49.499  12.519  1.00  0.00     0.150 C 
BRANCH  14  15
HETATM   15  C   UNL     1     -37.722 -50.212  11.194  1.00  0.00     0.183 C 
BRANCH  15  16
HETATM   16  O   UNL     1     -39.011 -49.858  10.693  1.00  0.00    -0.399 OA
HETATM   17  H   UNL     1     -39.248 -49.009  11.107  1.00  0.00     0.209 HD
ENDBRANCH  15  16
ENDBRANCH  14  15
ENDBRANCH  13  14
BRANCH  13  18
HETATM   18  C   UNL     1     -38.783 -47.970  13.909  1.00  0.00     0.150 C 
BRANCH  18  19
HETATM   19  C   UNL     1     -39.555 -47.043  12.952  1.00  0.00     0.187 C 
BRANCH  19  20
HETATM   20  O   UNL     1     -40.404 -47.757  12.036  1.00  0.00    -0.387 OA
BRANCH  20  21
HETATM   21  C   UNL     1     -40.972 -46.847  11.088  1.00  0.00     0.193 C 
BRANCH  21  22
HETATM   22  C   UNL     1     -42.033 -47.529  10.230  1.00  0.00     0.190 C 
BRANCH  22  23
HETATM   23  O   UNL     1     -41.807 -48.937  10.225  1.00  0.00    -0.399 OA
HETATM   24  H   UNL     1     -41.957 -49.252  11.133  1.00  0.00     0.209 HD
ENDBRANCH  22  23
ENDBRANCH  21  22
ENDBRANCH  20  21
ENDBRANCH  19  20
ENDBRANCH  18  19
ENDBRANCH  13  18
ENDBRANCH   7  13
BRANCH   1  25
HETATM   25  C   UNL     1     -43.203 -53.229  14.039  1.00  0.00     0.094 C 
HETATM   26  C   UNL     1     -44.645 -52.638  14.148  1.00  0.00     0.039 C 
HETATM   27  C   UNL     1     -45.019 -53.935  14.947  1.00  0.00     0.006 C 
HETATM   28  C   UNL     1     -43.495 -53.890  15.403  1.00  0.00     0.039 C 
BRANCH  27  29
HETATM   29  C   UNL     1     -46.060 -53.709  16.045  1.00  0.00     0.175 C 
BRANCH  29  30
HETATM   30  O   UNL     1     -46.005 -54.764  17.000  1.00  0.00    -0.400 OA
HETATM   31  H   UNL     1     -46.897 -55.165  17.037  1.00  0.00     0.209 HD
ENDBRANCH  29  30
ENDBRANCH  27  29
BRANCH  27  32
HETATM   32  C   UNL     1     -45.472 -55.073  14.008  1.00  0.00     0.175 C 
BRANCH  32  33
HETATM   33  O   UNL     1     -46.778 -55.506  14.368  1.00  0.00    -0.400 OA
HETATM   34  H   UNL     1     -47.063 -54.966  15.127  1.00  0.00     0.209 HD
ENDBRANCH  32  33
ENDBRANCH  27  32
ENDBRANCH   1  25
TORSDOF 15
ENDMDL
MODEL 8
REMARK VINA RESULT:      -5.2      2.266      7.764
REMARK  15 active torsions:
REMARK  status: ('A' for Active; 'I' for Inactive)
REMARK    1  A    between atoms: N_1  and  C_8 
REMARK    2  A    between atoms: C_7  and  N_17 
REMARK    3  A    between atoms: C_13  and  C_18 
REMARK    4  A    between atoms: C_13  and  C_19 
REMARK    5  A    between atoms: N_17  and  C_25 
REMARK    6  A    between atoms: N_17  and  C_26 
REMARK    7  A    between atoms: C_18  and  O_20 
REMARK    8  A    between atoms: C_19  and  O_21 
REMARK    9  A    between atoms: O_22  and  C_27 
REMARK   10  A    between atoms: O_23  and  C_28 
REMARK   11  A    between atoms: O_24  and  C_29 
REMARK   12  A    between atoms: O_24  and  C_30 
REMARK   13  A    between atoms: C_25  and  C_27 
REMARK   14  A    between atoms: C_26  and  C_29 
REMARK   15  A    between atoms: C_28  and  C_30 
ROOT
HETATM    1  N   UNL     1     -41.576 -49.280  12.822  1.00  0.00    -0.322 N 
HETATM    2  C   UNL     1     -41.243 -51.246  13.736  1.00  0.00     0.122 A 
HETATM    3  C   UNL     1     -41.370 -50.596  12.501  1.00  0.00     0.140 A 
HETATM    4  N   UNL     1     -41.394 -50.343  14.771  1.00  0.00    -0.346 N 
ATOM      5  HN  UNL     1     -41.367 -50.536  15.772  1.00  0.00     0.167 HD
HETATM    6  C   UNL     1     -41.578 -49.182  14.187  1.00  0.00     0.185 A 
HETATM    7  C   UNL     1     -40.948 -52.639  13.745  1.00  0.00     0.135 A 
HETATM    8  N   UNL     1     -41.265 -51.165  11.287  1.00  0.00    -0.336 N 
ATOM      9  HN  UNL     1     -41.377 -50.667  10.403  1.00  0.00     0.168 HD
HETATM   10  N   UNL     1     -40.817 -53.220  12.512  1.00  0.00    -0.337 N 
ATOM     11  HN  UNL     1     -40.588 -54.212  12.438  1.00  0.00     0.168 HD
HETATM   12  C   UNL     1     -40.992 -52.480  11.394  1.00  0.00     0.183 A 
ENDROOT
BRANCH   7  13
HETATM   13  N   UNL     1     -40.757 -53.430  14.873  1.00  0.00    -0.361 N 
BRANCH  13  14
HETATM   14  C   UNL     1     -39.431 -53.696  15.452  1.00  0.00     0.150 C 
BRANCH  14  15
HETATM   15  C   UNL     1     -38.849 -55.053  14.985  1.00  0.00     0.183 C 
BRANCH  15  16
HETATM   16  O   UNL     1     -38.723 -55.160  13.568  1.00  0.00    -0.399 OA
HETATM   17  H   UNL     1     -39.574 -55.499  13.236  1.00  0.00     0.209 HD
ENDBRANCH  15  16
ENDBRANCH  14  15
ENDBRANCH  13  14
BRANCH  13  18
HETATM   18  C   UNL     1     -41.863 -54.304  15.301  1.00  0.00     0.150 C 
BRANCH  18  19
HETATM   19  C   UNL     1     -43.033 -54.416  14.307  1.00  0.00     0.187 C 
BRANCH  19  20
HETATM   20  O   UNL     1     -44.169 -55.113  14.847  1.00  0.00    -0.387 OA
BRANCH  20  21
HETATM   21  C   UNL     1     -45.295 -54.962  13.975  1.00  0.00     0.193 C 
BRANCH  21  22
HETATM   22  C   UNL     1     -46.514 -54.441  14.727  1.00  0.00     0.190 C 
BRANCH  22  23
HETATM   23  O   UNL     1     -47.573 -55.392  14.632  1.00  0.00    -0.399 OA
HETATM   24  H   UNL     1     -47.205 -56.186  14.208  1.00  0.00     0.209 HD
ENDBRANCH  22  23
ENDBRANCH  21  22
ENDBRANCH  20  21
ENDBRANCH  19  20
ENDBRANCH  18  19
ENDBRANCH  13  18
ENDBRANCH   7  13
BRANCH   1  25
HETATM   25  C   UNL     1     -41.719 -48.086  12.035  1.00  0.00     0.094 C 
HETATM   26  C   UNL     1     -43.191 -47.862  11.564  1.00  0.00     0.039 C 
HETATM   27  C   UNL     1     -42.592 -47.008  10.394  1.00  0.00     0.006 C 
HETATM   28  C   UNL     1     -41.347 -47.988  10.541  1.00  0.00     0.039 C 
BRANCH  27  29
HETATM   29  C   UNL     1     -43.380 -47.107   9.086  1.00  0.00     0.175 C 
BRANCH  29  30
HETATM   30  O   UNL     1     -42.736 -46.352   8.065  1.00  0.00    -0.400 OA
HETATM   31  H   UNL     1     -41.876 -46.785   7.887  1.00  0.00     0.209 HD
ENDBRANCH  29  30
ENDBRANCH  27  29
BRANCH  27  32
HETATM   32  C   UNL     1     -42.415 -45.529  10.799  1.00  0.00     0.175 C 
BRANCH  32  33
HETATM   33  O   UNL     1     -43.374 -44.724  10.125  1.00  0.00    -0.400 OA
HETATM   34  H   UNL     1     -43.721 -44.083  10.773  1.00  0.00     0.209 HD
ENDBRANCH  32  33
ENDBRANCH  27  32
ENDBRANCH   1  25
TORSDOF 15
ENDMDL
MODEL 9
REMARK VINA RESULT:      -5.2      2.808      7.678
REMARK  15 active torsions:
REMARK  status: ('A' for Active; 'I' for Inactive)
REMARK    1  A    between atoms: N_1  and  C_8 
REMARK    2  A    between atoms: C_7  and  N_17 
REMARK    3  A    between atoms: C_13  and  C_18 
REMARK    4  A    between atoms: C_13  and  C_19 
REMARK    5  A    between atoms: N_17  and  C_25 
REMARK    6  A    between atoms: N_17  and  C_26 
REMARK    7  A    between atoms: C_18  and  O_20 
REMARK    8  A    between atoms: C_19  and  O_21 
REMARK    9  A    between atoms: O_22  and  C_27 
REMARK   10  A    between atoms: O_23  and  C_28 
REMARK   11  A    between atoms: O_24  and  C_29 
REMARK   12  A    between atoms: O_24  and  C_30 
REMARK   13  A    between atoms: C_25  and  C_27 
REMARK   14  A    between atoms: C_26  and  C_29 
REMARK   15  A    between atoms: C_28  and  C_30 
ROOT
HETATM    1  N   UNL     1     -41.619 -47.785  11.530  1.00  0.00    -0.322 N 
HETATM    2  C   UNL     1     -41.700 -49.888  12.148  1.00  0.00     0.122 A 
HETATM    3  C   UNL     1     -40.838 -48.905  11.646  1.00  0.00     0.140 A 
HETATM    4  N   UNL     1     -42.973 -49.375  12.306  1.00  0.00    -0.346 N 
ATOM      5  HN  UNL     1     -43.804 -49.866  12.636  1.00  0.00     0.167 HD
HETATM    6  C   UNL     1     -42.882 -48.119  11.940  1.00  0.00     0.185 A 
HETATM    7  C   UNL     1     -41.164 -51.173  12.451  1.00  0.00     0.135 A 
HETATM    8  N   UNL     1     -39.526 -49.052  11.387  1.00  0.00    -0.336 N 
ATOM      9  HN  UNL     1     -38.926 -48.319  11.008  1.00  0.00     0.168 HD
HETATM   10  N   UNL     1     -39.825 -51.323  12.211  1.00  0.00    -0.337 N 
ATOM     11  HN  UNL     1     -39.366 -52.210  12.419  1.00  0.00     0.168 HD
HETATM   12  C   UNL     1     -39.111 -50.296  11.697  1.00  0.00     0.183 A 
ENDROOT
BRANCH   7  13
HETATM   13  N   UNL     1     -41.866 -52.250  12.983  1.00  0.00    -0.361 N 
BRANCH  13  14
HETATM   14  C   UNL     1     -41.440 -52.965  14.196  1.00  0.00     0.150 C 
BRANCH  14  15
HETATM   15  C   UNL     1     -40.814 -54.344  13.874  1.00  0.00     0.183 C 
BRANCH  15  16
HETATM   16  O   UNL     1     -39.692 -54.268  12.994  1.00  0.00    -0.399 OA
HETATM   17  H   UNL     1     -38.895 -54.283  13.554  1.00  0.00     0.209 HD
ENDBRANCH  15  16
ENDBRANCH  14  15
ENDBRANCH  13  14
BRANCH  13  18
HETATM   18  C   UNL     1     -42.867 -52.913  12.131  1.00  0.00     0.150 C 
BRANCH  18  19
HETATM   19  C   UNL     1     -44.295 -52.953  12.704  1.00  0.00     0.187 C 
BRANCH  19  20
HETATM   20  O   UNL     1     -44.805 -51.651  13.041  1.00  0.00    -0.387 OA
BRANCH  20  21
HETATM   21  C   UNL     1     -45.904 -51.778  13.950  1.00  0.00     0.193 C 
BRANCH  21  22
HETATM   22  C   UNL     1     -46.001 -53.191  14.512  1.00  0.00     0.190 C 
BRANCH  22  23
HETATM   23  O   UNL     1     -47.324 -53.689  14.323  1.00  0.00    -0.399 OA
HETATM   24  H   UNL     1     -47.267 -54.660  14.331  1.00  0.00     0.209 HD
ENDBRANCH  22  23
ENDBRANCH  21  22
ENDBRANCH  20  21
ENDBRANCH  19  20
ENDBRANCH  18  19
ENDBRANCH  13  18
ENDBRANCH   7  13
BRANCH   1  25
HETATM   25  C   UNL     1     -41.345 -46.430  11.142  1.00  0.00     0.094 C 
HETATM   26  C   UNL     1     -41.601 -45.419  12.305  1.00  0.00     0.039 C 
HETATM   27  C   UNL     1     -41.798 -44.329  11.194  1.00  0.00     0.006 C 
HETATM   28  C   UNL     1     -42.315 -45.554  10.321  1.00  0.00     0.039 C 
BRANCH  27  29
HETATM   29  C   UNL     1     -42.837 -43.264  11.548  1.00  0.00     0.175 C 
BRANCH  29  30
HETATM   30  O   UNL     1     -43.259 -42.579  10.373  1.00  0.00    -0.400 OA
HETATM   31  H   UNL     1     -44.236 -42.527  10.406  1.00  0.00     0.209 HD
ENDBRANCH  29  30
ENDBRANCH  27  29
BRANCH  27  32
HETATM   32  C   UNL     1     -40.461 -43.663  10.807  1.00  0.00     0.175 C 
BRANCH  32  33
HETATM   33  O   UNL     1     -40.522 -42.266  11.070  1.00  0.00    -0.400 OA
HETATM   34  H   UNL     1     -39.716 -41.866  10.697  1.00  0.00     0.209 HD
ENDBRANCH  32  33
ENDBRANCH  27  32
ENDBRANCH   1  25
TORSDOF 15
ENDMDL
