MODEL 1
REMARK VINA RESULT:      -5.7      0.000      0.000
REMARK  5 active torsions:
REMARK  status: ('A' for Active; 'I' for Inactive)
REMARK    1  A    between atoms: C_2  and  C_3 
REMARK    2  A    between atoms: C_3  and  C_4 
REMARK    3  A    between atoms: C_3  and  N_15 
REMARK    4  A    between atoms: C_4  and  N_5 
REMARK       I    between atoms: N_5  and  C_6 
REMARK       I    between atoms: C_6  and  N_8 
REMARK    5  A    between atoms: N_8  and  C_9 
ROOT
HETATM    1  N   UNL     1     -42.138 -51.065  11.856  1.00  0.00    -0.341 N 
HETATM    2  C   UNL     1     -41.581 -49.798  11.931  1.00  0.00     0.322 C 
HETATM    3  O   UNL     1     -40.874 -49.470  12.875  1.00  0.00    -0.247 OA
HETATM    4  N   UNL     1     -41.961 -48.998  10.884  1.00  0.00    -0.289 N 
HETATM    5  H   UNL     1     -42.175 -51.485  10.938  1.00  0.00     0.164 HD
HETATM    6  H   UNL     1     -42.809 -49.218  10.390  1.00  0.00     0.172 HD
ENDROOT
BRANCH   1   7
HETATM    7  C   UNL     1     -41.796 -51.978  12.936  1.00  0.00     0.160 C 
BRANCH   7   8
HETATM    8  C   UNL     1     -43.008 -52.570  13.700  1.00  0.00     0.240 C 
BRANCH   8   9
HETATM    9  C   UNL     1     -42.977 -54.122  13.599  1.00  0.00     0.033 C 
HETATM   10  C   UNL     1     -43.230 -54.833  14.927  1.00  0.00     0.007 C 
ENDBRANCH   8   9
BRANCH   8  11
HETATM   11  N   UNL     1     -44.282 -51.947  13.267  1.00  0.00     0.094 N 
HETATM   12  C   UNL     1     -45.023 -51.245  14.322  1.00  0.00     0.273 C 
HETATM   13  C   UNL     1     -46.502 -51.429  13.996  1.00  0.00     0.032 C 
HETATM   14  C   UNL     1     -46.517 -52.029  12.606  1.00  0.00     0.032 C 
HETATM   15  C   UNL     1     -45.221 -52.819  12.560  1.00  0.00     0.273 C 
ENDBRANCH   8  11
ENDBRANCH   7   8
ENDBRANCH   1   7
BRANCH   4  16
HETATM   16  C   UNL     1     -41.466 -47.724  10.777  1.00  0.00     0.152 A 
HETATM   17  N   UNL     1     -40.218 -47.330  10.742  1.00  0.00    -0.346 N 
HETATM   18  C   UNL     1     -40.168 -45.957  10.664  1.00  0.00     0.097 A 
ATOM     19  HN  UNL     1     -39.406 -47.947  10.769  1.00  0.00     0.167 HD
HETATM   20  C   UNL     1     -41.388 -45.321  10.620  1.00  0.00     0.070 A 
HETATM   21  S   UNL     1     -42.645 -46.494  10.655  1.00  0.00    -0.064 SA
ENDBRANCH   4  16
TORSDOF 5
ENDMDL
MODEL 2
REMARK VINA RESULT:      -5.3      1.455      1.919
REMARK  5 active torsions:
REMARK  status: ('A' for Active; 'I' for Inactive)
REMARK    1  A    between atoms: C_2  and  C_3 
REMARK    2  A    between atoms: C_3  and  C_4 
REMARK    3  A    between atoms: C_3  and  N_15 
REMARK    4  A    between atoms: C_4  and  N_5 
REMARK       I    between atoms: N_5  and  C_6 
REMARK       I    between atoms: C_6  and  N_8 
REMARK    5  A    between atoms: N_8  and  C_9 
ROOT
HETATM    1  N   UNL     1     -41.989 -50.945  12.984  1.00  0.00    -0.341 N 
HETATM    2  C   UNL     1     -42.535 -49.753  12.535  1.00  0.00     0.322 C 
HETATM    3  O   UNL     1     -43.409 -49.176  13.169  1.00  0.00    -0.247 OA
HETATM    4  N   UNL     1     -42.024 -49.370  11.321  1.00  0.00    -0.289 N 
HETATM    5  H   UNL     1     -40.997 -51.067  12.837  1.00  0.00     0.164 HD
HETATM    6  H   UNL     1     -41.617 -50.069  10.724  1.00  0.00     0.172 HD
ENDROOT
BRANCH   1   7
HETATM    7  C   UNL     1     -42.485 -51.433  14.262  1.00  0.00     0.160 C 
BRANCH   7   8
HETATM    8  C   UNL     1     -43.203 -52.806  14.203  1.00  0.00     0.240 C 
BRANCH   8   9
HETATM    9  C   UNL     1     -42.596 -53.660  13.054  1.00  0.00     0.033 C 
HETATM   10  C   UNL     1     -41.287 -54.354  13.424  1.00  0.00     0.007 C 
ENDBRANCH   8   9
BRANCH   8  11
HETATM   11  N   UNL     1     -44.676 -52.647  14.145  1.00  0.00     0.094 N 
HETATM   12  C   UNL     1     -45.243 -52.586  12.792  1.00  0.00     0.273 C 
HETATM   13  C   UNL     1     -46.443 -51.647  12.877  1.00  0.00     0.032 C 
HETATM   14  C   UNL     1     -46.645 -51.415  14.359  1.00  0.00     0.032 C 
HETATM   15  C   UNL     1     -45.240 -51.541  14.921  1.00  0.00     0.273 C 
ENDBRANCH   8  11
ENDBRANCH   7   8
ENDBRANCH   1   7
BRANCH   4  16
HETATM   16  C   UNL     1     -42.422 -48.188  10.750  1.00  0.00     0.152 A 
HETATM   17  N   UNL     1     -43.558 -47.902  10.166  1.00  0.00    -0.346 N 
HETATM   18  C   UNL     1     -43.526 -46.607   9.699  1.00  0.00     0.097 A 
ATOM     19  HN  UNL     1     -44.347 -48.541  10.071  1.00  0.00     0.167 HD
HETATM   20  C   UNL     1     -42.363 -45.915   9.954  1.00  0.00     0.070 A 
HETATM   21  S   UNL     1     -41.280 -46.920  10.833  1.00  0.00    -0.064 SA
ENDBRANCH   4  16
TORSDOF 5
ENDMDL
MODEL 3
REMARK VINA RESULT:      -5.2      2.639      7.151
REMARK  5 active torsions:
REMARK  status: ('A' for Active; 'I' for Inactive)
REMARK    1  A    between atoms: C_2  and  C_3 
REMARK    2  A    between atoms: C_3  and  C_4 
REMARK    3  A    between atoms: C_3  and  N_15 
REMARK    4  A    between atoms: C_4  and  N_5 
REMARK       I    between atoms: N_5  and  C_6 
REMARK       I    between atoms: C_6  and  N_8 
REMARK    5  A    between atoms: N_8  and  C_9 
ROOT
HETATM    1  N   UNL     1     -40.760 -49.266  10.788  1.00  0.00    -0.341 N 
HETATM    2  C   UNL     1     -41.322 -50.141  11.705  1.00  0.00     0.322 C 
HETATM    3  O   UNL     1     -41.751 -49.745  12.781  1.00  0.00    -0.247 OA
HETATM    4  N   UNL     1     -41.277 -51.443  11.277  1.00  0.00    -0.289 N 
HETATM    5  H   UNL     1     -40.963 -49.445   9.815  1.00  0.00     0.164 HD
HETATM    6  H   UNL     1     -40.592 -51.704  10.589  1.00  0.00     0.172 HD
ENDROOT
BRANCH   1   7
HETATM    7  C   UNL     1     -40.755 -47.862  11.167  1.00  0.00     0.160 C 
BRANCH   7   8
HETATM    8  C   UNL     1     -41.998 -47.057  10.711  1.00  0.00     0.240 C 
BRANCH   8   9
HETATM    9  C   UNL     1     -42.638 -47.748   9.473  1.00  0.00     0.033 C 
HETATM   10  C   UNL     1     -44.064 -47.287   9.175  1.00  0.00     0.007 C 
ENDBRANCH   8   9
BRANCH   8  11
HETATM   11  N   UNL     1     -41.678 -45.621  10.521  1.00  0.00     0.094 N 
HETATM   12  C   UNL     1     -40.247 -45.309  10.431  1.00  0.00     0.273 C 
HETATM   13  C   UNL     1     -40.073 -43.932  11.065  1.00  0.00     0.032 C 
HETATM   14  C   UNL     1     -41.483 -43.419  11.262  1.00  0.00     0.032 C 
HETATM   15  C   UNL     1     -42.284 -44.690  11.474  1.00  0.00     0.273 C 
ENDBRANCH   8  11
ENDBRANCH   7   8
ENDBRANCH   1   7
BRANCH   4  16
HETATM   16  C   UNL     1     -41.831 -52.438  12.043  1.00  0.00     0.152 A 
HETATM   17  N   UNL     1     -43.084 -52.806  12.128  1.00  0.00    -0.346 N 
HETATM   18  C   UNL     1     -43.207 -53.824  13.045  1.00  0.00     0.097 A 
ATOM     19  HN  UNL     1     -43.852 -52.399  11.595  1.00  0.00     0.167 HD
HETATM   20  C   UNL     1     -42.033 -54.234  13.636  1.00  0.00     0.070 A 
HETATM   21  S   UNL     1     -40.723 -53.320  12.999  1.00  0.00    -0.064 SA
ENDBRANCH   4  16
TORSDOF 5
ENDMDL
MODEL 4
REMARK VINA RESULT:      -5.2      2.122      3.541
REMARK  5 active torsions:
REMARK  status: ('A' for Active; 'I' for Inactive)
REMARK    1  A    between atoms: C_2  and  C_3 
REMARK    2  A    between atoms: C_3  and  C_4 
REMARK    3  A    between atoms: C_3  and  N_15 
REMARK    4  A    between atoms: C_4  and  N_5 
REMARK       I    between atoms: N_5  and  C_6 
REMARK       I    between atoms: C_6  and  N_8 
REMARK    5  A    between atoms: N_8  and  C_9 
ROOT
HETATM    1  N   UNL     1     -41.071 -51.352  11.411  1.00  0.00    -0.341 N 
HETATM    2  C   UNL     1     -40.954 -49.982  11.592  1.00  0.00     0.322 C 
HETATM    3  O   UNL     1     -40.411 -49.517  12.586  1.00  0.00    -0.247 OA
HETATM    4  N   UNL     1     -41.551 -49.270  10.584  1.00  0.00    -0.289 N 
HETATM    5  H   UNL     1     -40.952 -51.690  10.467  1.00  0.00     0.164 HD
HETATM    6  H   UNL     1     -42.272 -49.711  10.040  1.00  0.00     0.172 HD
ENDROOT
BRANCH   1   7
HETATM    7  C   UNL     1     -40.475 -52.185  12.443  1.00  0.00     0.160 C 
BRANCH   7   8
HETATM    8  C   UNL     1     -41.335 -53.397  12.883  1.00  0.00     0.240 C 
BRANCH   8   9
HETATM    9  C   UNL     1     -42.810 -52.943  13.079  1.00  0.00     0.033 C 
HETATM   10  C   UNL     1     -43.826 -54.079  12.976  1.00  0.00     0.007 C 
ENDBRANCH   8   9
BRANCH   8  11
HETATM   11  N   UNL     1     -40.742 -54.091  14.051  1.00  0.00     0.094 N 
HETATM   12  C   UNL     1     -40.927 -53.413  15.340  1.00  0.00     0.273 C 
HETATM   13  C   UNL     1     -39.677 -53.714  16.161  1.00  0.00     0.032 C 
HETATM   14  C   UNL     1     -38.944 -54.776  15.370  1.00  0.00     0.032 C 
HETATM   15  C   UNL     1     -39.330 -54.463  13.936  1.00  0.00     0.273 C 
ENDBRANCH   8  11
ENDBRANCH   7   8
ENDBRANCH   1   7
BRANCH   4  16
HETATM   16  C   UNL     1     -41.492 -47.899  10.582  1.00  0.00     0.152 A 
HETATM   17  N   UNL     1     -40.439 -47.124  10.646  1.00  0.00    -0.346 N 
HETATM   18  C   UNL     1     -40.833 -45.806  10.652  1.00  0.00     0.097 A 
ATOM     19  HN  UNL     1     -39.473 -47.449  10.686  1.00  0.00     0.167 HD
HETATM   20  C   UNL     1     -42.191 -45.594  10.571  1.00  0.00     0.070 A 
HETATM   21  S   UNL     1     -43.001 -47.107  10.462  1.00  0.00    -0.064 SA
ENDBRANCH   4  16
TORSDOF 5
ENDMDL
MODEL 5
REMARK VINA RESULT:      -5.2      2.573      7.040
REMARK  5 active torsions:
REMARK  status: ('A' for Active; 'I' for Inactive)
REMARK    1  A    between atoms: C_2  and  C_3 
REMARK    2  A    between atoms: C_3  and  C_4 
REMARK    3  A    between atoms: C_3  and  N_15 
REMARK    4  A    between atoms: C_4  and  N_5 
REMARK       I    between atoms: N_5  and  C_6 
REMARK       I    between atoms: C_6  and  N_8 
REMARK    5  A    between atoms: N_8  and  C_9 
ROOT
HETATM    1  N   UNL     1     -40.919 -50.560  11.007  1.00  0.00    -0.341 N 
HETATM    2  C   UNL     1     -41.385 -51.294  12.088  1.00  0.00     0.322 C 
HETATM    3  O   UNL     1     -41.113 -50.973  13.238  1.00  0.00    -0.247 OA
HETATM    4  N   UNL     1     -42.103 -52.396  11.700  1.00  0.00    -0.289 N 
HETATM    5  H   UNL     1     -41.557 -50.452  10.231  1.00  0.00     0.164 HD
HETATM    6  H   UNL     1     -41.953 -52.773  10.780  1.00  0.00     0.172 HD
ENDROOT
BRANCH   1   7
HETATM    7  C   UNL     1     -40.135 -49.378  11.329  1.00  0.00     0.160 C 
BRANCH   7   8
HETATM    8  C   UNL     1     -40.952 -48.067  11.456  1.00  0.00     0.240 C 
BRANCH   8   9
HETATM    9  C   UNL     1     -42.035 -48.020  10.341  1.00  0.00     0.033 C 
HETATM   10  C   UNL     1     -43.442 -47.726  10.856  1.00  0.00     0.007 C 
ENDBRANCH   8   9
BRANCH   8  11
HETATM   11  N   UNL     1     -40.068 -46.877  11.511  1.00  0.00     0.094 N 
HETATM   12  C   UNL     1     -39.962 -46.240  12.829  1.00  0.00     0.273 C 
HETATM   13  C   UNL     1     -39.793 -44.747  12.564  1.00  0.00     0.032 C 
HETATM   14  C   UNL     1     -39.558 -44.645  11.072  1.00  0.00     0.032 C 
HETATM   15  C   UNL     1     -40.330 -45.830  10.522  1.00  0.00     0.273 C 
ENDBRANCH   8  11
ENDBRANCH   7   8
ENDBRANCH   1   7
BRANCH   4  16
HETATM   16  C   UNL     1     -42.676 -53.210  12.643  1.00  0.00     0.152 A 
HETATM   17  N   UNL     1     -42.095 -53.912  13.582  1.00  0.00    -0.346 N 
HETATM   18  C   UNL     1     -43.043 -54.617  14.288  1.00  0.00     0.097 A 
ATOM     19  HN  UNL     1     -41.092 -53.933  13.764  1.00  0.00     0.167 HD
HETATM   20  C   UNL     1     -44.345 -54.425  13.885  1.00  0.00     0.070 A 
HETATM   21  S   UNL     1     -44.382 -53.299  12.586  1.00  0.00    -0.064 SA
ENDBRANCH   4  16
TORSDOF 5
ENDMDL
MODEL 6
REMARK VINA RESULT:      -5.1      3.389      6.997
REMARK  5 active torsions:
REMARK  status: ('A' for Active; 'I' for Inactive)
REMARK    1  A    between atoms: C_2  and  C_3 
REMARK    2  A    between atoms: C_3  and  C_4 
REMARK    3  A    between atoms: C_3  and  N_15 
REMARK    4  A    between atoms: C_4  and  N_5 
REMARK       I    between atoms: N_5  and  C_6 
REMARK       I    between atoms: C_6  and  N_8 
REMARK    5  A    between atoms: N_8  and  C_9 
ROOT
HETATM    1  N   UNL     1     -40.682 -50.515  11.180  1.00  0.00    -0.341 N 
HETATM    2  C   UNL     1     -41.724 -50.998  11.956  1.00  0.00     0.322 C 
HETATM    3  O   UNL     1     -42.296 -50.283  12.769  1.00  0.00    -0.247 OA
HETATM    4  N   UNL     1     -41.967 -52.329  11.734  1.00  0.00    -0.289 N 
HETATM    5  H   UNL     1     -40.646 -50.842  10.225  1.00  0.00     0.164 HD
HETATM    6  H   UNL     1     -41.231 -52.899  11.352  1.00  0.00     0.172 HD
ENDROOT
BRANCH   1   7
HETATM    7  C   UNL     1     -40.349 -49.111  11.362  1.00  0.00     0.160 C 
BRANCH   7   8
HETATM    8  C   UNL     1     -38.934 -48.844  11.937  1.00  0.00     0.240 C 
BRANCH   8   9
HETATM    9  C   UNL     1     -38.091 -50.149  11.867  1.00  0.00     0.033 C 
HETATM   10  C   UNL     1     -37.056 -50.157  10.743  1.00  0.00     0.007 C 
ENDBRANCH   8   9
BRANCH   8  11
HETATM   11  N   UNL     1     -39.001 -48.222  13.282  1.00  0.00     0.094 N 
HETATM   12  C   UNL     1     -39.533 -46.854  13.310  1.00  0.00     0.273 C 
HETATM   13  C   UNL     1     -38.795 -46.136  14.436  1.00  0.00     0.032 C 
HETATM   14  C   UNL     1     -38.044 -47.231  15.164  1.00  0.00     0.032 C 
HETATM   15  C   UNL     1     -37.765 -48.243  14.067  1.00  0.00     0.273 C 
ENDBRANCH   8  11
ENDBRANCH   7   8
ENDBRANCH   1   7
BRANCH   4  16
HETATM   16  C   UNL     1     -42.995 -52.960  12.387  1.00  0.00     0.152 A 
HETATM   17  N   UNL     1     -44.285 -52.826  12.207  1.00  0.00    -0.346 N 
HETATM   18  C   UNL     1     -44.962 -53.622  13.103  1.00  0.00     0.097 A 
ATOM     19  HN  UNL     1     -44.721 -52.223  11.510  1.00  0.00     0.167 HD
HETATM   20  C   UNL     1     -44.172 -54.372  13.944  1.00  0.00     0.070 A 
HETATM   21  S   UNL     1     -42.516 -54.083  13.582  1.00  0.00    -0.064 SA
ENDBRANCH   4  16
TORSDOF 5
ENDMDL
MODEL 7
REMARK VINA RESULT:      -5.1      3.214      4.347
REMARK  5 active torsions:
REMARK  status: ('A' for Active; 'I' for Inactive)
REMARK    1  A    between atoms: C_2  and  C_3 
REMARK    2  A    between atoms: C_3  and  C_4 
REMARK    3  A    between atoms: C_3  and  N_15 
REMARK    4  A    between atoms: C_4  and  N_5 
REMARK       I    between atoms: N_5  and  C_6 
REMARK       I    between atoms: C_6  and  N_8 
REMARK    5  A    between atoms: N_8  and  C_9 
ROOT
HETATM    1  N   UNL     1     -40.246 -48.680  12.593  1.00  0.00    -0.341 N 
HETATM    2  C   UNL     1     -41.355 -48.572  11.769  1.00  0.00     0.322 C 
HETATM    3  O   UNL     1     -42.348 -49.267  11.946  1.00  0.00    -0.247 OA
HETATM    4  N   UNL     1     -41.166 -47.670  10.754  1.00  0.00    -0.289 N 
HETATM    5  H   UNL     1     -39.770 -47.818  12.819  1.00  0.00     0.164 HD
HETATM    6  H   UNL     1     -40.226 -47.446  10.474  1.00  0.00     0.172 HD
ENDROOT
BRANCH   1   7
HETATM    7  C   UNL     1     -40.357 -49.627  13.692  1.00  0.00     0.160 C 
BRANCH   7   8
HETATM    8  C   UNL     1     -39.381 -50.830  13.618  1.00  0.00     0.240 C 
BRANCH   8   9
HETATM    9  C   UNL     1     -38.525 -50.726  12.325  1.00  0.00     0.033 C 
HETATM   10  C   UNL     1     -37.050 -51.066  12.530  1.00  0.00     0.007 C 
ENDBRANCH   8   9
BRANCH   8  11
HETATM   11  N   UNL     1     -40.094 -52.120  13.785  1.00  0.00     0.094 N 
HETATM   12  C   UNL     1     -39.314 -53.184  14.429  1.00  0.00     0.273 C 
HETATM   13  C   UNL     1     -39.778 -54.492  13.795  1.00  0.00     0.032 C 
HETATM   14  C   UNL     1     -40.999 -54.114  12.984  1.00  0.00     0.032 C 
HETATM   15  C   UNL     1     -40.713 -52.679  12.582  1.00  0.00     0.273 C 
ENDBRANCH   8  11
ENDBRANCH   7   8
ENDBRANCH   1   7
BRANCH   4  16
HETATM   16  C   UNL     1     -42.180 -47.406   9.870  1.00  0.00     0.152 A 
HETATM   17  N   UNL     1     -42.683 -48.181   8.944  1.00  0.00    -0.346 N 
HETATM   18  C   UNL     1     -43.667 -47.506   8.258  1.00  0.00     0.097 A 
ATOM     19  HN  UNL     1     -42.390 -49.141   8.759  1.00  0.00     0.167 HD
HETATM   20  C   UNL     1     -43.914 -46.222   8.688  1.00  0.00     0.070 A 
HETATM   21  S   UNL     1     -42.889 -45.858  10.019  1.00  0.00    -0.064 SA
ENDBRANCH   4  16
TORSDOF 5
ENDMDL
MODEL 8
REMARK VINA RESULT:      -5.1      2.708      6.245
REMARK  5 active torsions:
REMARK  status: ('A' for Active; 'I' for Inactive)
REMARK    1  A    between atoms: C_2  and  C_3 
REMARK    2  A    between atoms: C_3  and  C_4 
REMARK    3  A    between atoms: C_3  and  N_15 
REMARK    4  A    between atoms: C_4  and  N_5 
REMARK       I    between atoms: N_5  and  C_6 
REMARK       I    between atoms: C_6  and  N_8 
REMARK    5  A    between atoms: N_8  and  C_9 
ROOT
HETATM    1  N   UNL     1     -41.282 -51.833  11.557  1.00  0.00    -0.341 N 
HETATM    2  C   UNL     1     -42.185 -52.306  12.498  1.00  0.00     0.322 C 
HETATM    3  O   UNL     1     -41.969 -52.194  13.698  1.00  0.00    -0.247 OA
HETATM    4  N   UNL     1     -43.260 -52.930  11.921  1.00  0.00    -0.289 N 
HETATM    5  H   UNL     1     -41.678 -51.410  10.730  1.00  0.00     0.164 HD
HETATM    6  H   UNL     1     -43.166 -53.298  10.990  1.00  0.00     0.172 HD
ENDROOT
BRANCH   1   7
HETATM    7  C   UNL     1     -40.102 -51.166  12.084  1.00  0.00     0.160 C 
BRANCH   7   8
HETATM    8  C   UNL     1     -39.734 -49.835  11.380  1.00  0.00     0.240 C 
BRANCH   8   9
HETATM    9  C   UNL     1     -38.211 -49.565  11.542  1.00  0.00     0.033 C 
HETATM   10  C   UNL     1     -37.485 -50.608  12.389  1.00  0.00     0.007 C 
ENDBRANCH   8   9
BRANCH   8  11
HETATM   11  N   UNL     1     -40.610 -48.724  11.826  1.00  0.00     0.094 N 
HETATM   12  C   UNL     1     -41.056 -48.803  13.222  1.00  0.00     0.273 C 
HETATM   13  C   UNL     1     -42.457 -48.200  13.254  1.00  0.00     0.032 C 
HETATM   14  C   UNL     1     -42.636 -47.571  11.889  1.00  0.00     0.032 C 
HETATM   15  C   UNL     1     -41.782 -48.449  10.992  1.00  0.00     0.273 C 
ENDBRANCH   8  11
ENDBRANCH   7   8
ENDBRANCH   1   7
BRANCH   4  16
HETATM   16  C   UNL     1     -44.274 -53.419  12.705  1.00  0.00     0.152 A 
HETATM   17  N   UNL     1     -44.321 -54.540  13.379  1.00  0.00    -0.346 N 
HETATM   18  C   UNL     1     -45.542 -54.655  14.003  1.00  0.00     0.097 A 
ATOM     19  HN  UNL     1     -43.566 -55.224  13.434  1.00  0.00     0.167 HD
HETATM   20  C   UNL     1     -46.407 -53.602  13.809  1.00  0.00     0.070 A 
HETATM   21  S   UNL     1     -45.650 -52.413  12.825  1.00  0.00    -0.064 SA
ENDBRANCH   4  16
TORSDOF 5
ENDMDL
MODEL 9
REMARK VINA RESULT:      -5.1      1.584      2.350
REMARK  5 active torsions:
REMARK  status: ('A' for Active; 'I' for Inactive)
REMARK    1  A    between atoms: C_2  and  C_3 
REMARK    2  A    between atoms: C_3  and  C_4 
REMARK    3  A    between atoms: C_3  and  N_15 
REMARK    4  A    between atoms: C_4  and  N_5 
REMARK       I    between atoms: N_5  and  C_6 
REMARK       I    between atoms: C_6  and  N_8 
REMARK    5  A    between atoms: N_8  and  C_9 
ROOT
HETATM    1  N   UNL     1     -41.042 -51.142  11.308  1.00  0.00    -0.341 N 
HETATM    2  C   UNL     1     -40.868 -49.787  11.544  1.00  0.00     0.322 C 
HETATM    3  O   UNL     1     -40.383 -49.382  12.592  1.00  0.00    -0.247 OA
HETATM    4  N   UNL     1     -41.344 -49.013  10.516  1.00  0.00    -0.289 N 
HETATM    5  H   UNL     1     -40.864 -51.459  10.365  1.00  0.00     0.164 HD
HETATM    6  H   UNL     1     -42.041 -49.398   9.903  1.00  0.00     0.172 HD
ENDROOT
BRANCH   1   7
HETATM    7  C   UNL     1     -40.575 -52.037  12.355  1.00  0.00     0.160 C 
BRANCH   7   8
HETATM    8  C   UNL     1     -41.528 -52.175  13.570  1.00  0.00     0.240 C 
BRANCH   8   9
HETATM    9  C   UNL     1     -40.709 -52.070  14.888  1.00  0.00     0.033 C 
HETATM   10  C   UNL     1     -39.197 -52.034  14.675  1.00  0.00     0.007 C 
ENDBRANCH   8   9
BRANCH   8  11
HETATM   11  N   UNL     1     -42.375 -53.388  13.463  1.00  0.00     0.094 N 
HETATM   12  C   UNL     1     -43.576 -53.238  12.632  1.00  0.00     0.273 C 
HETATM   13  C   UNL     1     -44.643 -54.125  13.266  1.00  0.00     0.032 C 
HETATM   14  C   UNL     1     -43.899 -54.940  14.303  1.00  0.00     0.032 C 
HETATM   15  C   UNL     1     -42.774 -54.012  14.725  1.00  0.00     0.273 C 
ENDBRANCH   8  11
ENDBRANCH   7   8
ENDBRANCH   1   7
BRANCH   4  16
HETATM   16  C   UNL     1     -41.212 -47.649  10.565  1.00  0.00     0.152 A 
HETATM   17  N   UNL     1     -40.120 -46.933  10.644  1.00  0.00    -0.346 N 
HETATM   18  C   UNL     1     -40.444 -45.597  10.704  1.00  0.00     0.097 A 
ATOM     19  HN  UNL     1     -39.171 -47.308  10.659  1.00  0.00     0.167 HD
HETATM   20  C   UNL     1     -41.790 -45.312  10.650  1.00  0.00     0.070 A 
HETATM   21  S   UNL     1     -42.679 -46.775  10.494  1.00  0.00    -0.064 SA
ENDBRANCH   4  16
TORSDOF 5
ENDMDL
