MODEL 1
REMARK VINA RESULT:      -5.3      0.000      0.000
REMARK  5 active torsions:
REMARK  status: ('A' for Active; 'I' for Inactive)
REMARK    1  A    between atoms: C_7  and  C_8 
REMARK    2  A    between atoms: C_8  and  C_9 
REMARK    3  A    between atoms: C_9  and  N_10 
REMARK       I    between atoms: N_10  and  C_11 
REMARK    4  A    between atoms: C_11  and  C_13 
REMARK    5  A    between atoms: C_13  and  C_14 
ROOT
HETATM    1  C   UNL     1     -41.396 -48.048  10.974  1.00  0.00     0.128 C 
ENDROOT
BRANCH   1   2
HETATM    2  C   UNL     1     -41.443 -48.814  12.306  1.00  0.00     0.078 C 
BRANCH   2   3
HETATM    3  C   UNL     1     -41.572 -50.291  12.118  1.00  0.00     0.029 A 
HETATM    4  N   UNL     1     -42.602 -51.068  12.593  1.00  0.00    -0.350 N 
HETATM    5  C   UNL     1     -43.753 -50.643  13.350  1.00  0.00     0.156 C 
HETATM    6  C   UNL     1     -42.344 -52.361  12.231  1.00  0.00     0.182 A 
HETATM    7  N   UNL     1     -41.228 -52.460  11.549  1.00  0.00    -0.360 N 
HETATM    8  C   UNL     1     -40.735 -51.186  11.480  1.00  0.00     0.114 A 
ATOM      9  HN  UNL     1     -40.816 -53.306  11.154  1.00  0.00     0.166 HD
ENDBRANCH   2   3
ENDBRANCH   1   2
BRANCH   1  10
HETATM   10  N   UNL     1     -42.601 -48.183  10.174  1.00  0.00    -0.361 N 
HETATM   11  C   UNL     1     -43.076 -47.146   9.407  1.00  0.00     0.217 C 
HETATM   12  O   UNL     1     -42.559 -46.033   9.375  1.00  0.00    -0.274 OA
HETATM   13  H   UNL     1     -43.015 -49.100  10.080  1.00  0.00     0.162 HD
BRANCH  11  14
HETATM   14  C   UNL     1     -44.282 -47.493   8.556  1.00  0.00     0.107 C 
BRANCH  14  15
HETATM   15  C   UNL     1     -45.510 -47.694   9.395  1.00  0.00    -0.006 A 
HETATM   16  C   UNL     1     -46.684 -48.454   8.838  1.00  0.00     0.005 A 
HETATM   17  C   UNL     1     -46.790 -46.972   9.064  1.00  0.00     0.005 A 
ENDBRANCH  14  15
ENDBRANCH  11  14
ENDBRANCH   1  10
TORSDOF 5
ENDMDL
MODEL 2
REMARK VINA RESULT:      -5.0      4.721      6.136
REMARK  5 active torsions:
REMARK  status: ('A' for Active; 'I' for Inactive)
REMARK    1  A    between atoms: C_7  and  C_8 
REMARK    2  A    between atoms: C_8  and  C_9 
REMARK    3  A    between atoms: C_9  and  N_10 
REMARK       I    between atoms: N_10  and  C_11 
REMARK    4  A    between atoms: C_11  and  C_13 
REMARK    5  A    between atoms: C_13  and  C_14 
ROOT
HETATM    1  C   UNL     1     -42.024 -54.046  14.603  1.00  0.00     0.128 C 
ENDROOT
BRANCH   1   2
HETATM    2  C   UNL     1     -40.960 -54.167  13.502  1.00  0.00     0.078 C 
BRANCH   2   3
HETATM    3  C   UNL     1     -40.699 -52.870  12.807  1.00  0.00     0.029 A 
HETATM    4  N   UNL     1     -39.757 -51.941  13.181  1.00  0.00    -0.350 N 
HETATM    5  C   UNL     1     -38.837 -52.012  14.289  1.00  0.00     0.156 C 
HETATM    6  C   UNL     1     -39.844 -50.891  12.309  1.00  0.00     0.182 A 
HETATM    7  N   UNL     1     -40.768 -51.092  11.399  1.00  0.00    -0.360 N 
HETATM    8  C   UNL     1     -41.311 -52.310  11.703  1.00  0.00     0.114 A 
ATOM      9  HN  UNL     1     -41.025 -50.473  10.631  1.00  0.00     0.166 HD
ENDBRANCH   2   3
ENDBRANCH   1   2
BRANCH   1  10
HETATM   10  N   UNL     1     -43.333 -53.643  14.118  1.00  0.00    -0.361 N 
HETATM   11  C   UNL     1     -44.424 -54.472  14.216  1.00  0.00     0.217 C 
HETATM   12  O   UNL     1     -44.373 -55.612  14.669  1.00  0.00    -0.274 OA
HETATM   13  H   UNL     1     -43.462 -52.684  13.827  1.00  0.00     0.162 HD
BRANCH  11  14
HETATM   14  C   UNL     1     -45.730 -53.851  13.756  1.00  0.00     0.107 C 
BRANCH  14  15
HETATM   15  C   UNL     1     -45.601 -52.367  13.579  1.00  0.00    -0.006 A 
HETATM   16  C   UNL     1     -46.630 -51.447  14.181  1.00  0.00     0.005 A 
HETATM   17  C   UNL     1     -46.559 -51.616  12.689  1.00  0.00     0.005 A 
ENDBRANCH  14  15
ENDBRANCH  11  14
ENDBRANCH   1  10
TORSDOF 5
ENDMDL
MODEL 3
REMARK VINA RESULT:      -4.8      4.889      6.283
REMARK  5 active torsions:
REMARK  status: ('A' for Active; 'I' for Inactive)
REMARK    1  A    between atoms: C_7  and  C_8 
REMARK    2  A    between atoms: C_8  and  C_9 
REMARK    3  A    between atoms: C_9  and  N_10 
REMARK       I    between atoms: N_10  and  C_11 
REMARK    4  A    between atoms: C_11  and  C_13 
REMARK    5  A    between atoms: C_13  and  C_14 
ROOT
HETATM    1  C   UNL     1     -43.120 -54.987  15.183  1.00  0.00     0.128 C 
ENDROOT
BRANCH   1   2
HETATM    2  C   UNL     1     -41.856 -54.114  15.199  1.00  0.00     0.078 C 
BRANCH   2   3
HETATM    3  C   UNL     1     -41.516 -53.565  13.851  1.00  0.00     0.029 A 
HETATM    4  N   UNL     1     -41.666 -52.255  13.463  1.00  0.00    -0.350 N 
HETATM    5  C   UNL     1     -42.163 -51.152  14.248  1.00  0.00     0.156 C 
HETATM    6  C   UNL     1     -41.265 -52.162  12.159  1.00  0.00     0.182 A 
HETATM    7  N   UNL     1     -40.861 -53.320  11.693  1.00  0.00    -0.360 N 
HETATM    8  C   UNL     1     -41.020 -54.199  12.729  1.00  0.00     0.114 A 
ATOM      9  HN  UNL     1     -40.503 -53.522  10.759  1.00  0.00     0.166 HD
ENDBRANCH   2   3
ENDBRANCH   1   2
BRANCH   1  10
HETATM   10  N   UNL     1     -44.255 -54.372  14.517  1.00  0.00    -0.361 N 
HETATM   11  C   UNL     1     -45.450 -54.172  15.166  1.00  0.00     0.217 C 
HETATM   12  O   UNL     1     -45.663 -54.530  16.321  1.00  0.00    -0.274 OA
HETATM   13  H   UNL     1     -44.113 -53.966  13.602  1.00  0.00     0.162 HD
BRANCH  11  14
HETATM   14  C   UNL     1     -46.490 -53.423  14.356  1.00  0.00     0.107 C 
BRANCH  14  15
HETATM   15  C   UNL     1     -45.876 -52.741  13.168  1.00  0.00    -0.006 A 
HETATM   16  C   UNL     1     -45.710 -51.244  13.165  1.00  0.00     0.005 A 
HETATM   17  C   UNL     1     -46.718 -51.887  12.255  1.00  0.00     0.005 A 
ENDBRANCH  14  15
ENDBRANCH  11  14
ENDBRANCH   1  10
TORSDOF 5
ENDMDL
MODEL 4
REMARK VINA RESULT:      -4.7      4.272      5.672
REMARK  5 active torsions:
REMARK  status: ('A' for Active; 'I' for Inactive)
REMARK    1  A    between atoms: C_7  and  C_8 
REMARK    2  A    between atoms: C_8  and  C_9 
REMARK    3  A    between atoms: C_9  and  N_10 
REMARK       I    between atoms: N_10  and  C_11 
REMARK    4  A    between atoms: C_11  and  C_13 
REMARK    5  A    between atoms: C_13  and  C_14 
ROOT
HETATM    1  C   UNL     1     -41.225 -53.701  12.888  1.00  0.00     0.128 C 
ENDROOT
BRANCH   1   2
HETATM    2  C   UNL     1     -40.632 -52.441  13.539  1.00  0.00     0.078 C 
BRANCH   2   3
HETATM    3  C   UNL     1     -40.213 -51.416  12.536  1.00  0.00     0.029 A 
HETATM    4  N   UNL     1     -38.958 -50.862  12.440  1.00  0.00    -0.350 N 
HETATM    5  C   UNL     1     -37.804 -51.141  13.258  1.00  0.00     0.156 C 
HETATM    6  C   UNL     1     -38.983 -49.958  11.415  1.00  0.00     0.182 A 
HETATM    7  N   UNL     1     -40.164 -49.906  10.844  1.00  0.00    -0.360 N 
HETATM    8  C   UNL     1     -40.936 -50.798  11.535  1.00  0.00     0.114 A 
ATOM      9  HN  UNL     1     -40.445 -49.325  10.054  1.00  0.00     0.166 HD
ENDBRANCH   2   3
ENDBRANCH   1   2
BRANCH   1  10
HETATM   10  N   UNL     1     -42.632 -53.583  12.549  1.00  0.00    -0.361 N 
HETATM   11  C   UNL     1     -43.620 -53.886  13.455  1.00  0.00     0.217 C 
HETATM   12  O   UNL     1     -43.397 -54.314  14.584  1.00  0.00    -0.274 OA
HETATM   13  H   UNL     1     -42.880 -53.143  11.673  1.00  0.00     0.162 HD
BRANCH  11  14
HETATM   14  C   UNL     1     -45.029 -53.607  12.969  1.00  0.00     0.107 C 
BRANCH  14  15
HETATM   15  C   UNL     1     -45.363 -52.147  13.058  1.00  0.00    -0.006 A 
HETATM   16  C   UNL     1     -46.507 -51.690  13.925  1.00  0.00     0.005 A 
HETATM   17  C   UNL     1     -46.623 -51.610  12.429  1.00  0.00     0.005 A 
ENDBRANCH  14  15
ENDBRANCH  11  14
ENDBRANCH   1  10
TORSDOF 5
ENDMDL
MODEL 5
REMARK VINA RESULT:      -4.7      4.493      6.615
REMARK  5 active torsions:
REMARK  status: ('A' for Active; 'I' for Inactive)
REMARK    1  A    between atoms: C_7  and  C_8 
REMARK    2  A    between atoms: C_8  and  C_9 
REMARK    3  A    between atoms: C_9  and  N_10 
REMARK       I    between atoms: N_10  and  C_11 
REMARK    4  A    between atoms: C_11  and  C_13 
REMARK    5  A    between atoms: C_13  and  C_14 
ROOT
HETATM    1  C   UNL     1     -42.579 -53.297  13.241  1.00  0.00     0.128 C 
ENDROOT
BRANCH   1   2
HETATM    2  C   UNL     1     -43.862 -53.565  12.439  1.00  0.00     0.078 C 
BRANCH   2   3
HETATM    3  C   UNL     1     -45.048 -53.813  13.313  1.00  0.00     0.029 A 
HETATM    4  N   UNL     1     -45.859 -52.841  13.851  1.00  0.00    -0.350 N 
HETATM    5  C   UNL     1     -45.752 -51.412  13.690  1.00  0.00     0.156 C 
HETATM    6  C   UNL     1     -46.814 -53.469  14.602  1.00  0.00     0.182 A 
HETATM    7  N   UNL     1     -46.674 -54.773  14.572  1.00  0.00    -0.360 N 
HETATM    8  C   UNL     1     -45.578 -54.998  13.784  1.00  0.00     0.114 A 
ATOM      9  HN  UNL     1     -47.257 -55.470  15.036  1.00  0.00     0.166 HD
ENDBRANCH   2   3
ENDBRANCH   1   2
BRANCH   1  10
HETATM   10  N   UNL     1     -41.881 -52.085  12.850  1.00  0.00    -0.361 N 
HETATM   11  C   UNL     1     -40.520 -52.068  12.657  1.00  0.00     0.217 C 
HETATM   12  O   UNL     1     -39.796 -53.043  12.840  1.00  0.00    -0.274 OA
HETATM   13  H   UNL     1     -42.429 -51.278  12.588  1.00  0.00     0.162 HD
BRANCH  11  14
HETATM   14  C   UNL     1     -39.972 -50.748  12.151  1.00  0.00     0.107 C 
BRANCH  14  15
HETATM   15  C   UNL     1     -38.482 -50.672  12.314  1.00  0.00    -0.006 A 
HETATM   16  C   UNL     1     -37.838 -49.379  12.737  1.00  0.00     0.005 A 
HETATM   17  C   UNL     1     -37.644 -49.888  11.337  1.00  0.00     0.005 A 
ENDBRANCH  14  15
ENDBRANCH  11  14
ENDBRANCH   1  10
TORSDOF 5
ENDMDL
MODEL 6
REMARK VINA RESULT:      -4.6      4.550      6.201
REMARK  5 active torsions:
REMARK  status: ('A' for Active; 'I' for Inactive)
REMARK    1  A    between atoms: C_7  and  C_8 
REMARK    2  A    between atoms: C_8  and  C_9 
REMARK    3  A    between atoms: C_9  and  N_10 
REMARK       I    between atoms: N_10  and  C_11 
REMARK    4  A    between atoms: C_11  and  C_13 
REMARK    5  A    between atoms: C_13  and  C_14 
ROOT
HETATM    1  C   UNL     1     -42.541 -54.088  13.507  1.00  0.00     0.128 C 
ENDROOT
BRANCH   1   2
HETATM    2  C   UNL     1     -42.109 -52.885  12.654  1.00  0.00     0.078 C 
BRANCH   2   3
HETATM    3  C   UNL     1     -40.740 -52.394  13.000  1.00  0.00     0.029 A 
HETATM    4  N   UNL     1     -40.150 -51.259  12.497  1.00  0.00    -0.350 N 
HETATM    5  C   UNL     1     -40.705 -50.316  11.559  1.00  0.00     0.156 C 
HETATM    6  C   UNL     1     -38.898 -51.170  13.041  1.00  0.00     0.182 A 
HETATM    7  N   UNL     1     -38.654 -52.163  13.862  1.00  0.00    -0.360 N 
HETATM    8  C   UNL     1     -39.784 -52.934  13.838  1.00  0.00     0.114 A 
ATOM      9  HN  UNL     1     -37.805 -52.326  14.403  1.00  0.00     0.166 HD
ENDBRANCH   2   3
ENDBRANCH   1   2
BRANCH   1  10
HETATM   10  N   UNL     1     -43.691 -53.828  14.354  1.00  0.00    -0.361 N 
HETATM   11  C   UNL     1     -44.969 -54.129  13.948  1.00  0.00     0.217 C 
HETATM   12  O   UNL     1     -45.239 -54.590  12.842  1.00  0.00    -0.274 OA
HETATM   13  H   UNL     1     -43.529 -53.543  15.311  1.00  0.00     0.162 HD
BRANCH  11  14
HETATM   14  C   UNL     1     -46.038 -53.889  14.997  1.00  0.00     0.107 C 
BRANCH  14  15
HETATM   15  C   UNL     1     -46.951 -52.765  14.605  1.00  0.00    -0.006 A 
HETATM   16  C   UNL     1     -46.373 -51.457  14.133  1.00  0.00     0.005 A 
HETATM   17  C   UNL     1     -47.062 -51.533  15.466  1.00  0.00     0.005 A 
ENDBRANCH  14  15
ENDBRANCH  11  14
ENDBRANCH   1  10
TORSDOF 5
ENDMDL
MODEL 7
REMARK VINA RESULT:      -4.6      3.562      5.173
REMARK  5 active torsions:
REMARK  status: ('A' for Active; 'I' for Inactive)
REMARK    1  A    between atoms: C_7  and  C_8 
REMARK    2  A    between atoms: C_8  and  C_9 
REMARK    3  A    between atoms: C_9  and  N_10 
REMARK       I    between atoms: N_10  and  C_11 
REMARK    4  A    between atoms: C_11  and  C_13 
REMARK    5  A    between atoms: C_13  and  C_14 
ROOT
HETATM    1  C   UNL     1     -41.127 -52.794  12.119  1.00  0.00     0.128 C 
ENDROOT
BRANCH   1   2
HETATM    2  C   UNL     1     -40.628 -51.484  12.747  1.00  0.00     0.078 C 
BRANCH   2   3
HETATM    3  C   UNL     1     -41.047 -50.276  11.972  1.00  0.00     0.029 A 
HETATM    4  N   UNL     1     -42.077 -49.431  12.310  1.00  0.00    -0.350 N 
HETATM    5  C   UNL     1     -42.950 -49.515  13.454  1.00  0.00     0.156 C 
HETATM    6  C   UNL     1     -42.153 -48.466  11.344  1.00  0.00     0.182 A 
HETATM    7  N   UNL     1     -41.236 -48.632  10.420  1.00  0.00    -0.360 N 
HETATM    8  C   UNL     1     -40.550 -49.756  10.793  1.00  0.00     0.114 A 
ATOM      9  HN  UNL     1     -41.070 -48.049   9.600  1.00  0.00     0.166 HD
ENDBRANCH   2   3
ENDBRANCH   1   2
BRANCH   1  10
HETATM   10  N   UNL     1     -42.573 -52.909  12.062  1.00  0.00    -0.361 N 
HETATM   11  C   UNL     1     -43.276 -53.628  12.998  1.00  0.00     0.217 C 
HETATM   12  O   UNL     1     -42.746 -54.256  13.911  1.00  0.00    -0.274 OA
HETATM   13  H   UNL     1     -43.075 -52.336  11.397  1.00  0.00     0.162 HD
BRANCH  11  14
HETATM   14  C   UNL     1     -44.784 -53.555  12.848  1.00  0.00     0.107 C 
BRANCH  14  15
HETATM   15  C   UNL     1     -45.301 -52.179  13.148  1.00  0.00    -0.006 A 
HETATM   16  C   UNL     1     -46.615 -52.009  13.864  1.00  0.00     0.005 A 
HETATM   17  C   UNL     1     -46.499 -51.634  12.414  1.00  0.00     0.005 A 
ENDBRANCH  14  15
ENDBRANCH  11  14
ENDBRANCH   1  10
TORSDOF 5
ENDMDL
MODEL 8
REMARK VINA RESULT:      -4.5      6.396      7.460
REMARK  5 active torsions:
REMARK  status: ('A' for Active; 'I' for Inactive)
REMARK    1  A    between atoms: C_7  and  C_8 
REMARK    2  A    between atoms: C_8  and  C_9 
REMARK    3  A    between atoms: C_9  and  N_10 
REMARK       I    between atoms: N_10  and  C_11 
REMARK    4  A    between atoms: C_11  and  C_13 
REMARK    5  A    between atoms: C_13  and  C_14 
ROOT
HETATM    1  C   UNL     1     -42.930 -54.486  14.238  1.00  0.00     0.128 C 
ENDROOT
BRANCH   1   2
HETATM    2  C   UNL     1     -42.201 -54.961  15.505  1.00  0.00     0.078 C 
BRANCH   2   3
HETATM    3  C   UNL     1     -40.717 -54.989  15.340  1.00  0.00     0.029 A 
HETATM    4  N   UNL     1     -39.843 -55.717  16.113  1.00  0.00    -0.350 N 
HETATM    5  C   UNL     1     -40.156 -56.591  17.216  1.00  0.00     0.156 C 
HETATM    6  C   UNL     1     -38.578 -55.460  15.660  1.00  0.00     0.182 A 
HETATM    7  N   UNL     1     -38.587 -54.628  14.646  1.00  0.00    -0.360 N 
HETATM    8  C   UNL     1     -39.905 -54.322  14.444  1.00  0.00     0.114 A 
ATOM      9  HN  UNL     1     -37.784 -54.283  14.120  1.00  0.00     0.166 HD
ENDBRANCH   2   3
ENDBRANCH   1   2
BRANCH   1  10
HETATM   10  N   UNL     1     -44.230 -53.890  14.492  1.00  0.00    -0.361 N 
HETATM   11  C   UNL     1     -45.392 -54.612  14.359  1.00  0.00     0.217 C 
HETATM   12  O   UNL     1     -45.426 -55.779  13.979  1.00  0.00    -0.274 OA
HETATM   13  H   UNL     1     -44.263 -52.967  14.902  1.00  0.00     0.162 HD
BRANCH  11  14
HETATM   14  C   UNL     1     -46.647 -53.865  14.764  1.00  0.00     0.107 C 
BRANCH  14  15
HETATM   15  C   UNL     1     -46.327 -52.500  15.300  1.00  0.00    -0.006 A 
HETATM   16  C   UNL     1     -47.412 -51.668  15.932  1.00  0.00     0.005 A 
HETATM   17  C   UNL     1     -46.837 -51.265  14.603  1.00  0.00     0.005 A 
ENDBRANCH  14  15
ENDBRANCH  11  14
ENDBRANCH   1  10
TORSDOF 5
ENDMDL
MODEL 9
REMARK VINA RESULT:      -4.3      4.397      5.603
REMARK  5 active torsions:
REMARK  status: ('A' for Active; 'I' for Inactive)
REMARK    1  A    between atoms: C_7  and  C_8 
REMARK    2  A    between atoms: C_8  and  C_9 
REMARK    3  A    between atoms: C_9  and  N_10 
REMARK       I    between atoms: N_10  and  C_11 
REMARK    4  A    between atoms: C_11  and  C_13 
REMARK    5  A    between atoms: C_13  and  C_14 
ROOT
HETATM    1  C   UNL     1     -41.707 -53.539  15.137  1.00  0.00     0.128 C 
ENDROOT
BRANCH   1   2
HETATM    2  C   UNL     1     -40.800 -53.854  13.937  1.00  0.00     0.078 C 
BRANCH   2   3
HETATM    3  C   UNL     1     -40.621 -52.683  13.027  1.00  0.00     0.029 A 
HETATM    4  N   UNL     1     -39.783 -51.617  13.254  1.00  0.00    -0.350 N 
HETATM    5  C   UNL     1     -38.912 -51.403  14.383  1.00  0.00     0.156 C 
HETATM    6  C   UNL     1     -39.919 -50.753  12.204  1.00  0.00     0.182 A 
HETATM    7  N   UNL     1     -40.779 -51.199  11.318  1.00  0.00    -0.360 N 
HETATM    8  C   UNL     1     -41.227 -52.389  11.821  1.00  0.00     0.114 A 
ATOM      9  HN  UNL     1     -41.054 -50.753  10.442  1.00  0.00     0.166 HD
ENDBRANCH   2   3
ENDBRANCH   1   2
BRANCH   1  10
HETATM   10  N   UNL     1     -42.889 -52.766  14.797  1.00  0.00    -0.361 N 
HETATM   11  C   UNL     1     -43.103 -51.512  15.317  1.00  0.00     0.217 C 
HETATM   12  O   UNL     1     -42.353 -50.976  16.128  1.00  0.00    -0.274 OA
HETATM   13  H   UNL     1     -43.492 -53.108  14.062  1.00  0.00     0.162 HD
BRANCH  11  14
HETATM   14  C   UNL     1     -44.331 -50.807  14.775  1.00  0.00     0.107 C 
BRANCH  14  15
HETATM   15  C   UNL     1     -45.443 -51.775  14.494  1.00  0.00    -0.006 A 
HETATM   16  C   UNL     1     -46.414 -51.499  13.377  1.00  0.00     0.005 A 
HETATM   17  C   UNL     1     -46.872 -51.411  14.805  1.00  0.00     0.005 A 
ENDBRANCH  14  15
ENDBRANCH  11  14
ENDBRANCH   1  10
TORSDOF 5
ENDMDL
