MODEL 1
REMARK VINA RESULT:      -5.9      0.000      0.000
REMARK  3 active torsions:
REMARK  status: ('A' for Active; 'I' for Inactive)
REMARK    1  A    between atoms: C_4  and  N_5 
REMARK       I    between atoms: N_5  and  C_6 
REMARK       I    between atoms: C_6  and  N_8 
REMARK    2  A    between atoms: N_8  and  C_9 
REMARK    3  A    between atoms: N_12  and  C_14 
ROOT
HETATM    1  N   UNL     1     -40.972 -49.226  10.523  1.00  0.00    -0.293 N 
HETATM    2  C   UNL     1     -41.199 -49.956  11.721  1.00  0.00     0.322 C 
HETATM    3  O   UNL     1     -41.903 -49.545  12.621  1.00  0.00    -0.247 OA
HETATM    4  N   UNL     1     -40.532 -51.138  11.720  1.00  0.00    -0.336 N 
HETATM    5  H   UNL     1     -40.337 -49.588   9.831  1.00  0.00     0.172 HD
HETATM    6  H   UNL     1     -39.920 -51.393  10.961  1.00  0.00     0.164 HD
ENDROOT
BRANCH   1   7
HETATM    7  C   UNL     1     -41.615 -48.014  10.264  1.00  0.00     0.127 A 
HETATM    8  C   UNL     1     -42.784 -47.833   9.559  1.00  0.00     0.076 A 
HETATM    9  C   UNL     1     -43.036 -46.451   9.561  1.00  0.00     0.025 A 
HETATM   10  C   UNL     1     -44.187 -45.761   8.931  1.00  0.00     0.070 C 
HETATM   11  N   UNL     1     -42.086 -45.782  10.221  1.00  0.00    -0.302 N 
HETATM   12  N   UNL     1     -41.234 -46.743  10.635  1.00  0.00    -0.281 N 
ATOM     13  HN  UNL     1     -42.020 -44.776  10.375  1.00  0.00     0.186 HD
HETATM   14  C   UNL     1     -40.079 -46.328  11.394  1.00  0.00     0.179 C 
ENDBRANCH   1   7
BRANCH   4  15
HETATM   15  C   UNL     1     -40.619 -52.061  12.837  1.00  0.00     0.116 C 
HETATM   16  C   UNL     1     -39.345 -52.260  13.656  1.00  0.00     0.057 C 
HETATM   17  C   UNL     1     -39.522 -53.639  14.302  1.00  0.00     0.275 C 
HETATM   18  N   UNL     1     -40.787 -54.212  13.794  1.00  0.00     0.095 N 
HETATM   19  C   UNL     1     -41.011 -53.512  12.513  1.00  0.00     0.298 C 
BRANCH  18  20
HETATM   20  C   UNL     1     -41.929 -54.026  14.718  1.00  0.00     0.223 A 
HETATM   21  C   UNL     1     -41.867 -54.493  16.143  1.00  0.00     0.038 A 
HETATM   22  C   UNL     1     -42.704 -55.241  15.148  1.00  0.00     0.038 A 
ENDBRANCH  18  20
ENDBRANCH   4  15
TORSDOF 3
ENDMDL
MODEL 2
REMARK VINA RESULT:      -5.9      2.467      3.038
REMARK  3 active torsions:
REMARK  status: ('A' for Active; 'I' for Inactive)
REMARK    1  A    between atoms: C_4  and  N_5 
REMARK       I    between atoms: N_5  and  C_6 
REMARK       I    between atoms: C_6  and  N_8 
REMARK    2  A    between atoms: N_8  and  C_9 
REMARK    3  A    between atoms: N_12  and  C_14 
ROOT
HETATM    1  N   UNL     1     -41.923 -48.284   9.583  1.00  0.00    -0.293 N 
HETATM    2  C   UNL     1     -41.310 -48.576  10.832  1.00  0.00     0.322 C 
HETATM    3  O   UNL     1     -41.696 -48.106  11.883  1.00  0.00    -0.247 OA
HETATM    4  N   UNL     1     -40.260 -49.424  10.686  1.00  0.00    -0.336 N 
HETATM    5  H   UNL     1     -41.530 -48.657   8.735  1.00  0.00     0.172 HD
HETATM    6  H   UNL     1     -39.959 -49.733   9.776  1.00  0.00     0.164 HD
ENDROOT
BRANCH   1   7
HETATM    7  C   UNL     1     -43.070 -47.495   9.492  1.00  0.00     0.127 A 
HETATM    8  C   UNL     1     -44.338 -47.914   9.153  1.00  0.00     0.076 A 
HETATM    9  C   UNL     1     -45.155 -46.773   9.193  1.00  0.00     0.025 A 
HETATM   10  C   UNL     1     -46.609 -46.716   8.907  1.00  0.00     0.070 C 
HETATM   11  N   UNL     1     -44.459 -45.683   9.529  1.00  0.00    -0.302 N 
HETATM   12  N   UNL     1     -43.200 -46.139   9.702  1.00  0.00    -0.281 N 
ATOM     13  HN  UNL     1     -44.799 -44.728   9.631  1.00  0.00     0.186 HD
HETATM   14  C   UNL     1     -42.190 -45.180  10.080  1.00  0.00     0.179 C 
ENDBRANCH   1   7
BRANCH   4  15
HETATM   15  C   UNL     1     -39.483 -49.874  11.827  1.00  0.00     0.116 C 
HETATM   16  C   UNL     1     -37.972 -49.972  11.625  1.00  0.00     0.057 C 
HETATM   17  C   UNL     1     -37.515 -50.993  12.673  1.00  0.00     0.275 C 
HETATM   18  N   UNL     1     -38.723 -51.502  13.358  1.00  0.00     0.095 N 
HETATM   19  C   UNL     1     -39.813 -51.267  12.389  1.00  0.00     0.298 C 
BRANCH  18  20
HETATM   20  C   UNL     1     -38.994 -50.830  14.649  1.00  0.00     0.223 A 
HETATM   21  C   UNL     1     -37.909 -50.619  15.664  1.00  0.00     0.038 A 
HETATM   22  C   UNL     1     -38.963 -51.658  15.904  1.00  0.00     0.038 A 
ENDBRANCH  18  20
ENDBRANCH   4  15
TORSDOF 3
ENDMDL
MODEL 3
REMARK VINA RESULT:      -5.7      3.197      3.869
REMARK  3 active torsions:
REMARK  status: ('A' for Active; 'I' for Inactive)
REMARK    1  A    between atoms: C_4  and  N_5 
REMARK       I    between atoms: N_5  and  C_6 
REMARK       I    between atoms: C_6  and  N_8 
REMARK    2  A    between atoms: N_8  and  C_9 
REMARK    3  A    between atoms: N_12  and  C_14 
ROOT
HETATM    1  N   UNL     1     -41.943 -49.358  11.274  1.00  0.00    -0.293 N 
HETATM    2  C   UNL     1     -42.810 -49.587  12.378  1.00  0.00     0.322 C 
HETATM    3  O   UNL     1     -43.251 -48.690  13.068  1.00  0.00    -0.247 OA
HETATM    4  N   UNL     1     -43.060 -50.910  12.550  1.00  0.00    -0.336 N 
HETATM    5  H   UNL     1     -41.563 -50.141  10.769  1.00  0.00     0.172 HD
HETATM    6  H   UNL     1     -42.617 -51.606  11.974  1.00  0.00     0.164 HD
ENDROOT
BRANCH   1   7
HETATM    7  C   UNL     1     -41.606 -48.070  10.857  1.00  0.00     0.127 A 
HETATM    8  C   UNL     1     -40.523 -47.325  11.268  1.00  0.00     0.076 A 
HETATM    9  C   UNL     1     -40.602 -46.103  10.580  1.00  0.00     0.025 A 
HETATM   10  C   UNL     1     -39.654 -44.967  10.685  1.00  0.00     0.070 C 
HETATM   11  N   UNL     1     -41.671 -46.058   9.781  1.00  0.00    -0.302 N 
HETATM   12  N   UNL     1     -42.268 -47.255   9.965  1.00  0.00    -0.281 N 
ATOM     13  HN  UNL     1     -41.968 -45.295   9.173  1.00  0.00     0.186 HD
HETATM   14  C   UNL     1     -43.477 -47.518   9.221  1.00  0.00     0.179 C 
ENDBRANCH   1   7
BRANCH   4  15
HETATM   15  C   UNL     1     -43.929 -51.387  13.611  1.00  0.00     0.116 C 
HETATM   16  C   UNL     1     -43.625 -52.778  14.164  1.00  0.00     0.057 C 
HETATM   17  C   UNL     1     -44.959 -53.249  14.755  1.00  0.00     0.275 C 
HETATM   18  N   UNL     1     -45.970 -52.210  14.464  1.00  0.00     0.095 N 
HETATM   19  C   UNL     1     -45.427 -51.500  13.287  1.00  0.00     0.298 C 
BRANCH  18  20
HETATM   20  C   UNL     1     -46.203 -51.283  15.594  1.00  0.00     0.223 A 
HETATM   21  C   UNL     1     -46.261 -51.775  17.010  1.00  0.00     0.038 A 
HETATM   22  C   UNL     1     -47.521 -51.355  16.315  1.00  0.00     0.038 A 
ENDBRANCH  18  20
ENDBRANCH   4  15
TORSDOF 3
ENDMDL
MODEL 4
REMARK VINA RESULT:      -5.7      2.025      7.282
REMARK  3 active torsions:
REMARK  status: ('A' for Active; 'I' for Inactive)
REMARK    1  A    between atoms: C_4  and  N_5 
REMARK       I    between atoms: N_5  and  C_6 
REMARK       I    between atoms: C_6  and  N_8 
REMARK    2  A    between atoms: N_8  and  C_9 
REMARK    3  A    between atoms: N_12  and  C_14 
ROOT
HETATM    1  N   UNL     1     -42.361 -52.140  11.845  1.00  0.00    -0.293 N 
HETATM    2  C   UNL     1     -42.191 -50.801  12.293  1.00  0.00     0.322 C 
HETATM    3  O   UNL     1     -42.623 -50.401  13.354  1.00  0.00    -0.247 OA
HETATM    4  N   UNL     1     -41.505 -50.056  11.389  1.00  0.00    -0.336 N 
HETATM    5  H   UNL     1     -42.030 -52.406  10.933  1.00  0.00     0.172 HD
HETATM    6  H   UNL     1     -41.223 -50.439  10.501  1.00  0.00     0.164 HD
ENDROOT
BRANCH   1   7
HETATM    7  C   UNL     1     -42.969 -53.112  12.641  1.00  0.00     0.127 A 
HETATM    8  C   UNL     1     -44.282 -53.524  12.584  1.00  0.00     0.076 A 
HETATM    9  C   UNL     1     -44.429 -54.512  13.571  1.00  0.00     0.025 A 
HETATM   10  C   UNL     1     -45.666 -55.264  13.894  1.00  0.00     0.070 C 
HETATM   11  N   UNL     1     -43.285 -54.720  14.229  1.00  0.00    -0.302 N 
HETATM   12  N   UNL     1     -42.415 -53.862  13.655  1.00  0.00    -0.281 N 
ATOM     13  HN  UNL     1     -43.109 -55.375  14.990  1.00  0.00     0.186 HD
HETATM   14  C   UNL     1     -41.062 -53.849  14.157  1.00  0.00     0.179 C 
ENDBRANCH   1   7
BRANCH   4  15
HETATM   15  C   UNL     1     -41.201 -48.658  11.632  1.00  0.00     0.116 C 
HETATM   16  C   UNL     1     -41.716 -47.659  10.597  1.00  0.00     0.057 C 
HETATM   17  C   UNL     1     -40.785 -46.450  10.742  1.00  0.00     0.275 C 
HETATM   18  N   UNL     1     -39.753 -46.797  11.742  1.00  0.00     0.095 N 
HETATM   19  C   UNL     1     -39.715 -48.273  11.723  1.00  0.00     0.298 C 
BRANCH  18  20
HETATM   20  C   UNL     1     -40.051 -46.281  13.098  1.00  0.00     0.223 A 
HETATM   21  C   UNL     1     -40.437 -44.849  13.323  1.00  0.00     0.038 A 
HETATM   22  C   UNL     1     -39.075 -45.327  13.729  1.00  0.00     0.038 A 
ENDBRANCH  18  20
ENDBRANCH   4  15
TORSDOF 3
ENDMDL
MODEL 5
REMARK VINA RESULT:      -5.6      3.871      5.161
REMARK  3 active torsions:
REMARK  status: ('A' for Active; 'I' for Inactive)
REMARK    1  A    between atoms: C_4  and  N_5 
REMARK       I    between atoms: N_5  and  C_6 
REMARK       I    between atoms: C_6  and  N_8 
REMARK    2  A    between atoms: N_8  and  C_9 
REMARK    3  A    between atoms: N_12  and  C_14 
ROOT
HETATM    1  N   UNL     1     -42.136 -51.175  11.796  1.00  0.00    -0.293 N 
HETATM    2  C   UNL     1     -42.896 -51.236  12.996  1.00  0.00     0.322 C 
HETATM    3  O   UNL     1     -42.540 -50.709  14.030  1.00  0.00    -0.247 OA
HETATM    4  N   UNL     1     -44.036 -51.953  12.828  1.00  0.00    -0.336 N 
HETATM    5  H   UNL     1     -42.450 -51.675  10.981  1.00  0.00     0.172 HD
HETATM    6  H   UNL     1     -44.244 -52.411  11.956  1.00  0.00     0.164 HD
ENDROOT
BRANCH   1   7
HETATM    7  C   UNL     1     -40.961 -50.427  11.705  1.00  0.00     0.127 A 
HETATM    8  C   UNL     1     -39.706 -50.804  12.129  1.00  0.00     0.076 A 
HETATM    9  C   UNL     1     -38.850 -49.731  11.831  1.00  0.00     0.025 A 
HETATM   10  C   UNL     1     -37.393 -49.663  12.094  1.00  0.00     0.070 C 
HETATM   11  N   UNL     1     -39.511 -48.722  11.257  1.00  0.00    -0.302 N 
HETATM   12  N   UNL     1     -40.787 -49.160  11.193  1.00  0.00    -0.281 N 
ATOM     13  HN  UNL     1     -39.139 -47.827  10.941  1.00  0.00     0.186 HD
HETATM   14  C   UNL     1     -41.766 -48.275  10.609  1.00  0.00     0.179 C 
ENDBRANCH   1   7
BRANCH   4  15
HETATM   15  C   UNL     1     -44.979 -52.146  13.915  1.00  0.00     0.116 C 
HETATM   16  C   UNL     1     -45.310 -53.592  14.281  1.00  0.00     0.057 C 
HETATM   17  C   UNL     1     -46.686 -53.508  14.952  1.00  0.00     0.275 C 
HETATM   18  N   UNL     1     -47.134 -52.101  14.879  1.00  0.00     0.095 N 
HETATM   19  C   UNL     1     -46.382 -51.542  13.737  1.00  0.00     0.298 C 
BRANCH  18  20
HETATM   20  C   UNL     1     -46.876 -51.337  16.120  1.00  0.00     0.223 A 
HETATM   21  C   UNL     1     -46.968 -51.984  17.471  1.00  0.00     0.038 A 
HETATM   22  C   UNL     1     -48.039 -51.034  17.025  1.00  0.00     0.038 A 
ENDBRANCH  18  20
ENDBRANCH   4  15
TORSDOF 3
ENDMDL
MODEL 6
REMARK VINA RESULT:      -5.6      1.341      2.141
REMARK  3 active torsions:
REMARK  status: ('A' for Active; 'I' for Inactive)
REMARK    1  A    between atoms: C_4  and  N_5 
REMARK       I    between atoms: N_5  and  C_6 
REMARK       I    between atoms: C_6  and  N_8 
REMARK    2  A    between atoms: N_8  and  C_9 
REMARK    3  A    between atoms: N_12  and  C_14 
ROOT
HETATM    1  N   UNL     1     -41.103 -48.954  10.653  1.00  0.00    -0.293 N 
HETATM    2  C   UNL     1     -41.509 -49.734  11.770  1.00  0.00     0.322 C 
HETATM    3  O   UNL     1     -41.966 -49.246  12.783  1.00  0.00    -0.247 OA
HETATM    4  N   UNL     1     -41.312 -51.059  11.551  1.00  0.00    -0.336 N 
HETATM    5  H   UNL     1     -40.680 -49.404   9.858  1.00  0.00     0.172 HD
HETATM    6  H   UNL     1     -40.877 -51.391  10.707  1.00  0.00     0.164 HD
ENDROOT
BRANCH   1   7
HETATM    7  C   UNL     1     -41.281 -47.570  10.615  1.00  0.00     0.127 A 
HETATM    8  C   UNL     1     -40.348 -46.608  10.932  1.00  0.00     0.076 A 
HETATM    9  C   UNL     1     -40.981 -45.368  10.747  1.00  0.00     0.025 A 
HETATM   10  C   UNL     1     -40.382 -44.028  10.957  1.00  0.00     0.070 C 
HETATM   11  N   UNL     1     -42.246 -45.520  10.342  1.00  0.00    -0.302 N 
HETATM   12  N   UNL     1     -42.409 -46.858  10.272  1.00  0.00    -0.281 N 
ATOM     13  HN  UNL     1     -42.929 -44.793  10.135  1.00  0.00     0.186 HD
HETATM   14  C   UNL     1     -43.699 -47.351   9.853  1.00  0.00     0.179 C 
ENDBRANCH   1   7
BRANCH   4  15
HETATM   15  C   UNL     1     -41.663 -52.053  12.549  1.00  0.00     0.116 C 
HETATM   16  C   UNL     1     -40.710 -53.239  12.692  1.00  0.00     0.057 C 
HETATM   17  C   UNL     1     -41.577 -54.351  13.294  1.00  0.00     0.275 C 
HETATM   18  N   UNL     1     -42.960 -53.836  13.395  1.00  0.00     0.095 N 
HETATM   19  C   UNL     1     -43.018 -52.760  12.383  1.00  0.00     0.298 C 
BRANCH  18  20
HETATM   20  C   UNL     1     -43.300 -53.327  14.743  1.00  0.00     0.223 A 
HETATM   21  C   UNL     1     -43.164 -54.191  15.962  1.00  0.00     0.038 A 
HETATM   22  C   UNL     1     -44.526 -53.874  15.422  1.00  0.00     0.038 A 
ENDBRANCH  18  20
ENDBRANCH   4  15
TORSDOF 3
ENDMDL
MODEL 7
REMARK VINA RESULT:      -5.3      1.592      7.772
REMARK  3 active torsions:
REMARK  status: ('A' for Active; 'I' for Inactive)
REMARK    1  A    between atoms: C_4  and  N_5 
REMARK       I    between atoms: N_5  and  C_6 
REMARK       I    between atoms: C_6  and  N_8 
REMARK    2  A    between atoms: N_8  and  C_9 
REMARK    3  A    between atoms: N_12  and  C_14 
ROOT
HETATM    1  N   UNL     1     -41.314 -51.521  11.575  1.00  0.00    -0.293 N 
HETATM    2  C   UNL     1     -41.676 -50.200  11.957  1.00  0.00     0.322 C 
HETATM    3  O   UNL     1     -41.989 -49.903  13.091  1.00  0.00    -0.247 OA
HETATM    4  N   UNL     1     -41.631 -49.346  10.903  1.00  0.00    -0.336 N 
HETATM    5  H   UNL     1     -41.115 -51.724  10.610  1.00  0.00     0.172 HD
HETATM    6  H   UNL     1     -41.415 -49.671   9.974  1.00  0.00     0.164 HD
ENDROOT
BRANCH   1   7
HETATM    7  C   UNL     1     -41.213 -52.556  12.506  1.00  0.00     0.127 A 
HETATM    8  C   UNL     1     -40.081 -52.953  13.182  1.00  0.00     0.076 A 
HETATM    9  C   UNL     1     -40.467 -54.026  14.002  1.00  0.00     0.025 A 
HETATM   10  C   UNL     1     -39.595 -54.791  14.927  1.00  0.00     0.070 C 
HETATM   11  N   UNL     1     -41.765 -54.309  13.860  1.00  0.00    -0.302 N 
HETATM   12  N   UNL     1     -42.198 -53.411  12.949  1.00  0.00    -0.281 N 
ATOM     13  HN  UNL     1     -42.304 -55.035  14.331  1.00  0.00     0.186 HD
HETATM   14  C   UNL     1     -43.592 -53.460  12.577  1.00  0.00     0.179 C 
ENDBRANCH   1   7
BRANCH   4  15
HETATM   15  C   UNL     1     -41.951 -47.938  11.051  1.00  0.00     0.116 C 
HETATM   16  C   UNL     1     -43.055 -47.392  10.148  1.00  0.00     0.057 C 
HETATM   17  C   UNL     1     -42.765 -45.890  10.061  1.00  0.00     0.275 C 
HETATM   18  N   UNL     1     -41.513 -45.632  10.803  1.00  0.00     0.095 N 
HETATM   19  C   UNL     1     -40.815 -46.934  10.796  1.00  0.00     0.298 C 
BRANCH  18  20
HETATM   20  C   UNL     1     -41.737 -45.147  12.184  1.00  0.00     0.223 A 
HETATM   21  C   UNL     1     -42.565 -43.926  12.460  1.00  0.00     0.038 A 
HETATM   22  C   UNL     1     -41.074 -43.866  12.607  1.00  0.00     0.038 A 
ENDBRANCH  18  20
ENDBRANCH   4  15
TORSDOF 3
ENDMDL
MODEL 8
REMARK VINA RESULT:      -5.2      2.188      2.922
REMARK  3 active torsions:
REMARK  status: ('A' for Active; 'I' for Inactive)
REMARK    1  A    between atoms: C_4  and  N_5 
REMARK       I    between atoms: N_5  and  C_6 
REMARK       I    between atoms: C_6  and  N_8 
REMARK    2  A    between atoms: N_8  and  C_9 
REMARK    3  A    between atoms: N_12  and  C_14 
ROOT
HETATM    1  N   UNL     1     -41.693 -50.310  11.315  1.00  0.00    -0.293 N 
HETATM    2  C   UNL     1     -42.053 -50.867  12.573  1.00  0.00     0.322 C 
HETATM    3  O   UNL     1     -41.847 -50.301  13.627  1.00  0.00    -0.247 OA
HETATM    4  N   UNL     1     -42.633 -52.085  12.431  1.00  0.00    -0.336 N 
HETATM    5  H   UNL     1     -41.836 -50.844  10.474  1.00  0.00     0.172 HD
HETATM    6  H   UNL     1     -42.723 -52.521  11.528  1.00  0.00     0.164 HD
ENDROOT
BRANCH   1   7
HETATM    7  C   UNL     1     -41.150 -49.029  11.204  1.00  0.00     0.127 A 
HETATM    8  C   UNL     1     -41.808 -47.882  10.818  1.00  0.00     0.076 A 
HETATM    9  C   UNL     1     -40.857 -46.850  10.855  1.00  0.00     0.025 A 
HETATM   10  C   UNL     1     -41.088 -45.423  10.526  1.00  0.00     0.070 C 
HETATM   11  N   UNL     1     -39.658 -47.302  11.233  1.00  0.00    -0.302 N 
HETATM   12  N   UNL     1     -39.854 -48.622  11.436  1.00  0.00    -0.281 N 
ATOM     13  HN  UNL     1     -38.794 -46.771  11.343  1.00  0.00     0.186 HD
HETATM   14  C   UNL     1     -38.720 -49.406  11.864  1.00  0.00     0.179 C 
ENDBRANCH   1   7
BRANCH   4  15
HETATM   15  C   UNL     1     -43.095 -52.845  13.579  1.00  0.00     0.116 C 
HETATM   16  C   UNL     1     -42.369 -54.159  13.862  1.00  0.00     0.057 C 
HETATM   17  C   UNL     1     -43.385 -54.989  14.656  1.00  0.00     0.275 C 
HETATM   18  N   UNL     1     -44.639 -54.209  14.730  1.00  0.00     0.095 N 
HETATM   19  C   UNL     1     -44.564 -53.295  13.572  1.00  0.00     0.298 C 
BRANCH  18  20
HETATM   20  C   UNL     1     -44.792 -53.462  15.999  1.00  0.00     0.223 A 
HETATM   21  C   UNL     1     -44.430 -54.078  17.319  1.00  0.00     0.038 A 
HETATM   22  C   UNL     1     -45.872 -53.891  16.953  1.00  0.00     0.038 A 
ENDBRANCH  18  20
ENDBRANCH   4  15
TORSDOF 3
ENDMDL
MODEL 9
REMARK VINA RESULT:      -5.0      1.524      7.943
REMARK  3 active torsions:
REMARK  status: ('A' for Active; 'I' for Inactive)
REMARK    1  A    between atoms: C_4  and  N_5 
REMARK       I    between atoms: N_5  and  C_6 
REMARK       I    between atoms: C_6  and  N_8 
REMARK    2  A    between atoms: N_8  and  C_9 
REMARK    3  A    between atoms: N_12  and  C_14 
ROOT
HETATM    1  N   UNL     1     -41.291 -52.653  12.705  1.00  0.00    -0.293 N 
HETATM    2  C   UNL     1     -41.325 -51.243  12.884  1.00  0.00     0.322 C 
HETATM    3  O   UNL     1     -41.051 -50.704  13.937  1.00  0.00    -0.247 OA
HETATM    4  N   UNL     1     -41.702 -50.605  11.747  1.00  0.00    -0.336 N 
HETATM    5  H   UNL     1     -41.579 -53.051  11.827  1.00  0.00     0.172 HD
HETATM    6  H   UNL     1     -41.968 -51.118  10.922  1.00  0.00     0.164 HD
ENDROOT
BRANCH   1   7
HETATM    7  C   UNL     1     -40.857 -53.514  13.715  1.00  0.00     0.127 A 
HETATM    8  C   UNL     1     -39.556 -53.868  13.997  1.00  0.00     0.076 A 
HETATM    9  C   UNL     1     -39.615 -54.750  15.087  1.00  0.00     0.025 A 
HETATM   10  C   UNL     1     -38.466 -55.402  15.761  1.00  0.00     0.070 C 
HETATM   11  N   UNL     1     -40.874 -54.959  15.481  1.00  0.00    -0.302 N 
HETATM   12  N   UNL     1     -41.611 -54.206  14.637  1.00  0.00    -0.281 N 
ATOM     13  HN  UNL     1     -41.203 -55.551  16.243  1.00  0.00     0.186 HD
HETATM   14  C   UNL     1     -43.044 -54.218  14.810  1.00  0.00     0.179 C 
ENDBRANCH   1   7
BRANCH   4  15
HETATM   15  C   UNL     1     -41.800 -49.158  11.685  1.00  0.00     0.116 C 
HETATM   16  C   UNL     1     -43.131 -48.546  12.117  1.00  0.00     0.057 C 
HETATM   17  C   UNL     1     -43.175 -47.191  11.402  1.00  0.00     0.275 C 
HETATM   18  N   UNL     1     -41.973 -47.097  10.547  1.00  0.00     0.095 N 
HETATM   19  C   UNL     1     -41.588 -48.503  10.310  1.00  0.00     0.298 C 
BRANCH  18  20
HETATM   20  C   UNL     1     -40.868 -46.332  11.169  1.00  0.00     0.223 A 
HETATM   21  C   UNL     1     -41.055 -44.915  11.623  1.00  0.00     0.038 A 
HETATM   22  C   UNL     1     -40.255 -45.202  10.389  1.00  0.00     0.038 A 
ENDBRANCH  18  20
ENDBRANCH   4  15
TORSDOF 3
ENDMDL
