MODEL 1
REMARK VINA RESULT:      -6.1      0.000      0.000
REMARK  4 active torsions:
REMARK  status: ('A' for Active; 'I' for Inactive)
REMARK    1  A    between atoms: C_2  and  C_3 
REMARK    2  A    between atoms: C_3  and  N_4 
REMARK       I    between atoms: N_4  and  C_5 
REMARK       I    between atoms: C_5  and  N_7 
REMARK    3  A    between atoms: N_7  and  C_8 
REMARK    4  A    between atoms: C_12  and  C_16 
ROOT
HETATM    1  N   UNL     1     -43.482 -51.460  12.836  1.00  0.00    -0.341 N 
HETATM    2  C   UNL     1     -43.023 -50.170  12.708  1.00  0.00     0.320 C 
HETATM    3  O   UNL     1     -43.399 -49.251  13.426  1.00  0.00    -0.247 OA
HETATM    4  N   UNL     1     -42.050 -50.067  11.737  1.00  0.00    -0.306 N 
HETATM    5  H   UNL     1     -43.680 -51.918  11.954  1.00  0.00     0.164 HD
HETATM    6  H   UNL     1     -41.482 -50.899  11.649  1.00  0.00     0.171 HD
ENDROOT
BRANCH   4   7
HETATM    7  C   UNL     1     -41.447 -48.829  11.426  1.00  0.00     0.067 A 
HETATM    8  C   UNL     1     -40.376 -48.354  12.147  1.00  0.00     0.120 A 
HETATM    9  N   UNL     1     -39.784 -47.161  11.923  1.00  0.00    -0.353 N 
HETATM   10  C   UNL     1     -40.267 -46.409  10.909  1.00  0.00     0.085 A 
ATOM     11  HN  UNL     1     -39.003 -46.841  12.495  1.00  0.00     0.166 HD
HETATM   12  N   UNL     1     -41.288 -46.808  10.122  1.00  0.00    -0.353 N 
HETATM   13  C   UNL     1     -41.861 -48.000  10.405  1.00  0.00     0.120 A 
ATOM     14  HN  UNL     1     -41.614 -46.234   9.345  1.00  0.00     0.166 HD
BRANCH  10  15
HETATM   15  C   UNL     1     -39.659 -45.049  10.667  1.00  0.00     0.053 A 
HETATM   16  C   UNL     1     -39.280 -44.160  11.829  1.00  0.00     0.013 A 
HETATM   17  C   UNL     1     -40.454 -43.798  10.969  1.00  0.00     0.013 A 
ENDBRANCH  10  15
ENDBRANCH   4   7
BRANCH   1  18
HETATM   18  C   UNL     1     -44.413 -51.750  13.920  1.00  0.00     0.144 C 
BRANCH  18  19
HETATM   19  C   UNL     1     -45.711 -52.461  13.481  1.00  0.00     0.020 C 
HETATM   20  C   UNL     1     -46.506 -51.621  12.477  1.00  0.00     0.028 C 
HETATM   21  C   UNL     1     -45.402 -53.853  12.907  1.00  0.00     0.022 C 
HETATM   22  C   UNL     1     -45.406 -54.922  14.003  1.00  0.00     0.012 C 
HETATM   23  C   UNL     1     -45.885 -54.357  15.330  1.00  0.00     0.075 C 
HETATM   24  S   UNL     1     -46.765 -52.836  14.925  1.00  0.00    -0.158 SA
ENDBRANCH  18  19
ENDBRANCH   1  18
TORSDOF 4
ENDMDL
MODEL 2
REMARK VINA RESULT:      -5.8      1.617      1.884
REMARK  4 active torsions:
REMARK  status: ('A' for Active; 'I' for Inactive)
REMARK    1  A    between atoms: C_2  and  C_3 
REMARK    2  A    between atoms: C_3  and  N_4 
REMARK       I    between atoms: N_4  and  C_5 
REMARK       I    between atoms: C_5  and  N_7 
REMARK    3  A    between atoms: N_7  and  C_8 
REMARK    4  A    between atoms: C_12  and  C_16 
ROOT
HETATM    1  N   UNL     1     -43.134 -51.877  12.605  1.00  0.00    -0.341 N 
HETATM    2  C   UNL     1     -42.767 -50.553  12.550  1.00  0.00     0.320 C 
HETATM    3  O   UNL     1     -43.217 -49.700  13.307  1.00  0.00    -0.247 OA
HETATM    4  N   UNL     1     -41.791 -50.331  11.602  1.00  0.00    -0.306 N 
HETATM    5  H   UNL     1     -43.288 -52.301  11.699  1.00  0.00     0.164 HD
HETATM    6  H   UNL     1     -41.165 -51.116  11.481  1.00  0.00     0.171 HD
ENDROOT
BRANCH   4   7
HETATM    7  C   UNL     1     -41.275 -49.039  11.364  1.00  0.00     0.067 A 
HETATM    8  C   UNL     1     -40.227 -48.541  12.103  1.00  0.00     0.120 A 
HETATM    9  N   UNL     1     -39.717 -47.300  11.948  1.00  0.00    -0.353 N 
HETATM   10  C   UNL     1     -40.261 -46.520  10.988  1.00  0.00     0.085 A 
ATOM     11  HN  UNL     1     -38.951 -46.965  12.532  1.00  0.00     0.166 HD
HETATM   12  N   UNL     1     -41.265 -46.935  10.188  1.00  0.00    -0.353 N 
HETATM   13  C   UNL     1     -41.755 -48.178  10.400  1.00  0.00     0.120 A 
ATOM     14  HN  UNL     1     -41.639 -46.337   9.452  1.00  0.00     0.166 HD
BRANCH  10  15
HETATM   15  C   UNL     1     -39.747 -45.111  10.826  1.00  0.00     0.053 A 
HETATM   16  C   UNL     1     -39.371 -44.286  12.037  1.00  0.00     0.013 A 
HETATM   17  C   UNL     1     -40.601 -43.937  11.254  1.00  0.00     0.013 A 
ENDBRANCH  10  15
ENDBRANCH   4   7
BRANCH   1  18
HETATM   18  C   UNL     1     -44.056 -52.287  13.657  1.00  0.00     0.144 C 
BRANCH  18  19
HETATM   19  C   UNL     1     -43.902 -53.754  14.113  1.00  0.00     0.020 C 
HETATM   20  C   UNL     1     -44.990 -54.651  13.515  1.00  0.00     0.028 C 
HETATM   21  C   UNL     1     -42.502 -54.287  13.769  1.00  0.00     0.022 C 
HETATM   22  C   UNL     1     -41.509 -54.024  14.905  1.00  0.00     0.012 C 
HETATM   23  C   UNL     1     -42.207 -53.468  16.136  1.00  0.00     0.075 C 
HETATM   24  S   UNL     1     -43.952 -53.876  15.935  1.00  0.00    -0.158 SA
ENDBRANCH  18  19
ENDBRANCH   1  18
TORSDOF 4
ENDMDL
MODEL 3
REMARK VINA RESULT:      -5.7      1.000      2.047
REMARK  4 active torsions:
REMARK  status: ('A' for Active; 'I' for Inactive)
REMARK    1  A    between atoms: C_2  and  C_3 
REMARK    2  A    between atoms: C_3  and  N_4 
REMARK       I    between atoms: N_4  and  C_5 
REMARK       I    between atoms: C_5  and  N_7 
REMARK    3  A    between atoms: N_7  and  C_8 
REMARK    4  A    between atoms: C_12  and  C_16 
ROOT
HETATM    1  N   UNL     1     -42.989 -51.993  12.960  1.00  0.00    -0.341 N 
HETATM    2  C   UNL     1     -42.549 -50.691  12.941  1.00  0.00     0.320 C 
HETATM    3  O   UNL     1     -42.612 -49.947  13.914  1.00  0.00    -0.247 OA
HETATM    4  N   UNL     1     -41.970 -50.363  11.733  1.00  0.00    -0.306 N 
HETATM    5  H   UNL     1     -43.501 -52.268  12.130  1.00  0.00     0.164 HD
HETATM    6  H   UNL     1     -41.505 -51.143  11.287  1.00  0.00     0.171 HD
ENDROOT
BRANCH   4   7
HETATM    7  C   UNL     1     -41.461 -49.070  11.486  1.00  0.00     0.067 A 
HETATM    8  C   UNL     1     -42.029 -48.246  10.543  1.00  0.00     0.120 A 
HETATM    9  N   UNL     1     -41.564 -47.016  10.235  1.00  0.00    -0.353 N 
HETATM   10  C   UNL     1     -40.488 -46.570  10.921  1.00  0.00     0.085 A 
ATOM     11  HN  UNL     1     -42.006 -46.447   9.514  1.00  0.00     0.166 HD
HETATM   12  N   UNL     1     -39.887 -47.290  11.891  1.00  0.00    -0.353 N 
HETATM   13  C   UNL     1     -40.379 -48.524  12.144  1.00  0.00     0.120 A 
ATOM     14  HN  UNL     1     -39.095 -46.918  12.414  1.00  0.00     0.166 HD
BRANCH  10  15
HETATM   15  C   UNL     1     -39.913 -45.222  10.564  1.00  0.00     0.053 A 
HETATM   16  C   UNL     1     -39.332 -44.326  11.635  1.00  0.00     0.013 A 
HETATM   17  C   UNL     1     -40.630 -43.957  10.982  1.00  0.00     0.013 A 
ENDBRANCH  10  15
ENDBRANCH   4   7
BRANCH   1  18
HETATM   18  C   UNL     1     -43.497 -52.524  14.219  1.00  0.00     0.144 C 
BRANCH  18  19
HETATM   19  C   UNL     1     -44.819 -53.312  14.099  1.00  0.00     0.020 C 
HETATM   20  C   UNL     1     -44.581 -54.825  14.111  1.00  0.00     0.028 C 
HETATM   21  C   UNL     1     -45.799 -52.904  15.209  1.00  0.00     0.022 C 
HETATM   22  C   UNL     1     -46.677 -51.726  14.775  1.00  0.00     0.012 C 
HETATM   23  C   UNL     1     -46.469 -51.391  13.307  1.00  0.00     0.075 C 
HETATM   24  S   UNL     1     -45.712 -52.853  12.573  1.00  0.00    -0.158 SA
ENDBRANCH  18  19
ENDBRANCH   1  18
TORSDOF 4
ENDMDL
MODEL 4
REMARK VINA RESULT:      -5.3      4.786      6.105
REMARK  4 active torsions:
REMARK  status: ('A' for Active; 'I' for Inactive)
REMARK    1  A    between atoms: C_2  and  C_3 
REMARK    2  A    between atoms: C_3  and  N_4 
REMARK       I    between atoms: N_4  and  C_5 
REMARK       I    between atoms: C_5  and  N_7 
REMARK    3  A    between atoms: N_7  and  C_8 
REMARK    4  A    between atoms: C_12  and  C_16 
ROOT
HETATM    1  N   UNL     1     -39.916 -48.546  10.975  1.00  0.00    -0.341 N 
HETATM    2  C   UNL     1     -40.498 -47.385  11.425  1.00  0.00     0.320 C 
HETATM    3  O   UNL     1     -40.921 -47.246  12.567  1.00  0.00    -0.247 OA
HETATM    4  N   UNL     1     -40.475 -46.396  10.465  1.00  0.00    -0.306 N 
HETATM    5  H   UNL     1     -40.206 -48.821  10.044  1.00  0.00     0.164 HD
HETATM    6  H   UNL     1     -39.669 -46.447   9.857  1.00  0.00     0.171 HD
ENDROOT
BRANCH   4   7
HETATM    7  C   UNL     1     -41.033 -45.122  10.706  1.00  0.00     0.067 A 
HETATM    8  C   UNL     1     -42.395 -44.939  10.773  1.00  0.00     0.120 A 
HETATM    9  N   UNL     1     -42.988 -43.740  10.961  1.00  0.00    -0.353 N 
HETATM   10  C   UNL     1     -42.182 -42.667  11.118  1.00  0.00     0.085 A 
ATOM     11  HN  UNL     1     -44.003 -43.648  10.985  1.00  0.00     0.166 HD
HETATM   12  N   UNL     1     -40.835 -42.754  11.107  1.00  0.00    -0.353 N 
HETATM   13  C   UNL     1     -40.293 -43.973  10.891  1.00  0.00     0.120 A 
ATOM     14  HN  UNL     1     -40.250 -41.932  11.256  1.00  0.00     0.166 HD
BRANCH  10  15
HETATM   15  C   UNL     1     -42.815 -41.307  11.278  1.00  0.00     0.053 A 
HETATM   16  C   UNL     1     -42.358 -40.372  12.376  1.00  0.00     0.013 A 
HETATM   17  C   UNL     1     -43.707 -41.020  12.466  1.00  0.00     0.013 A 
ENDBRANCH  10  15
ENDBRANCH   4   7
BRANCH   1  18
HETATM   18  C   UNL     1     -39.742 -49.637  11.927  1.00  0.00     0.144 C 
BRANCH  18  19
HETATM   19  C   UNL     1     -38.282 -49.879  12.369  1.00  0.00     0.020 C 
HETATM   20  C   UNL     1     -37.339 -50.001  11.168  1.00  0.00     0.028 C 
HETATM   21  C   UNL     1     -37.812 -48.772  13.325  1.00  0.00     0.022 C 
HETATM   22  C   UNL     1     -38.118 -49.127  14.783  1.00  0.00     0.012 C 
HETATM   23  C   UNL     1     -38.641 -50.548  14.912  1.00  0.00     0.075 C 
HETATM   24  S   UNL     1     -38.156 -51.387  13.392  1.00  0.00    -0.158 SA
ENDBRANCH  18  19
ENDBRANCH   1  18
TORSDOF 4
ENDMDL
MODEL 5
REMARK VINA RESULT:      -5.2      3.023      8.065
REMARK  4 active torsions:
REMARK  status: ('A' for Active; 'I' for Inactive)
REMARK    1  A    between atoms: C_2  and  C_3 
REMARK    2  A    between atoms: C_3  and  N_4 
REMARK       I    between atoms: N_4  and  C_5 
REMARK       I    between atoms: C_5  and  N_7 
REMARK    3  A    between atoms: N_7  and  C_8 
REMARK    4  A    between atoms: C_12  and  C_16 
ROOT
HETATM    1  N   UNL     1     -40.589 -48.016  10.997  1.00  0.00    -0.341 N 
HETATM    2  C   UNL     1     -41.394 -48.961  11.587  1.00  0.00     0.320 C 
HETATM    3  O   UNL     1     -42.601 -48.813  11.741  1.00  0.00    -0.247 OA
HETATM    4  N   UNL     1     -40.691 -50.103  11.908  1.00  0.00    -0.306 N 
HETATM    5  H   UNL     1     -39.701 -47.878  11.464  1.00  0.00     0.164 HD
HETATM    6  H   UNL     1     -39.933 -50.300  11.269  1.00  0.00     0.171 HD
ENDROOT
BRANCH   4   7
HETATM    7  C   UNL     1     -41.317 -51.200  12.539  1.00  0.00     0.067 A 
HETATM    8  C   UNL     1     -41.606 -52.353  11.846  1.00  0.00     0.120 A 
HETATM    9  N   UNL     1     -42.238 -53.419  12.384  1.00  0.00    -0.353 N 
HETATM   10  C   UNL     1     -42.579 -53.345  13.689  1.00  0.00     0.085 A 
ATOM     11  HN  UNL     1     -42.449 -54.247  11.827  1.00  0.00     0.166 HD
HETATM   12  N   UNL     1     -42.302 -52.273  14.460  1.00  0.00    -0.353 N 
HETATM   13  C   UNL     1     -41.689 -51.223  13.866  1.00  0.00     0.120 A 
ATOM     14  HN  UNL     1     -42.545 -52.254  15.450  1.00  0.00     0.166 HD
BRANCH  10  15
HETATM   15  C   UNL     1     -43.331 -54.499  14.305  1.00  0.00     0.053 A 
HETATM   16  C   UNL     1     -43.813 -54.426  15.736  1.00  0.00     0.013 A 
HETATM   17  C   UNL     1     -42.681 -55.342  15.380  1.00  0.00     0.013 A 
ENDBRANCH  10  15
ENDBRANCH   4   7
BRANCH   1  18
HETATM   18  C   UNL     1     -41.220 -46.810  10.475  1.00  0.00     0.144 C 
BRANCH  18  19
HETATM   19  C   UNL     1     -40.650 -45.490  11.036  1.00  0.00     0.020 C 
HETATM   20  C   UNL     1     -39.536 -44.930  10.147  1.00  0.00     0.028 C 
HETATM   21  C   UNL     1     -41.768 -44.453  11.231  1.00  0.00     0.022 C 
HETATM   22  C   UNL     1     -42.393 -44.561  12.625  1.00  0.00     0.012 C 
HETATM   23  C   UNL     1     -41.628 -45.539  13.503  1.00  0.00     0.075 C 
HETATM   24  S   UNL     1     -40.010 -45.727  12.730  1.00  0.00    -0.158 SA
ENDBRANCH  18  19
ENDBRANCH   1  18
TORSDOF 4
ENDMDL
MODEL 6
REMARK VINA RESULT:      -5.1      3.611      7.821
REMARK  4 active torsions:
REMARK  status: ('A' for Active; 'I' for Inactive)
REMARK    1  A    between atoms: C_2  and  C_3 
REMARK    2  A    between atoms: C_3  and  N_4 
REMARK       I    between atoms: N_4  and  C_5 
REMARK       I    between atoms: C_5  and  N_7 
REMARK    3  A    between atoms: N_7  and  C_8 
REMARK    4  A    between atoms: C_12  and  C_16 
ROOT
HETATM    1  N   UNL     1     -40.132 -45.536  11.216  1.00  0.00    -0.341 N 
HETATM    2  C   UNL     1     -40.177 -46.775  11.809  1.00  0.00     0.320 C 
HETATM    3  O   UNL     1     -39.887 -46.967  12.985  1.00  0.00    -0.247 OA
HETATM    4  N   UNL     1     -40.654 -47.739  10.946  1.00  0.00    -0.306 N 
HETATM    5  H   UNL     1     -39.734 -45.538  10.284  1.00  0.00     0.164 HD
HETATM    6  H   UNL     1     -41.331 -47.385  10.284  1.00  0.00     0.171 HD
ENDROOT
BRANCH   4   7
HETATM    7  C   UNL     1     -40.771 -49.089  11.342  1.00  0.00     0.067 A 
HETATM    8  C   UNL     1     -39.675 -49.921  11.379  1.00  0.00     0.120 A 
HETATM    9  N   UNL     1     -39.731 -51.229  11.710  1.00  0.00    -0.353 N 
HETATM   10  C   UNL     1     -40.938 -51.733  12.047  1.00  0.00     0.085 A 
ATOM     11  HN  UNL     1     -38.895 -51.813  11.706  1.00  0.00     0.166 HD
HETATM   12  N   UNL     1     -42.062 -50.987  12.078  1.00  0.00    -0.353 N 
HETATM   13  C   UNL     1     -41.955 -49.688  11.715  1.00  0.00     0.120 A 
ATOM     14  HN  UNL     1     -42.956 -51.385  12.364  1.00  0.00     0.166 HD
BRANCH  10  15
HETATM   15  C   UNL     1     -41.041 -53.203  12.372  1.00  0.00     0.053 A 
HETATM   16  C   UNL     1     -42.202 -53.731  13.184  1.00  0.00     0.013 A 
HETATM   17  C   UNL     1     -40.833 -53.683  13.791  1.00  0.00     0.013 A 
ENDBRANCH  10  15
ENDBRANCH   4   7
BRANCH   1  18
HETATM   18  C   UNL     1     -39.782 -44.392  12.048  1.00  0.00     0.144 C 
BRANCH  18  19
HETATM   19  C   UNL     1     -40.951 -43.428  12.345  1.00  0.00     0.020 C 
HETATM   20  C   UNL     1     -40.922 -42.203  11.426  1.00  0.00     0.028 C 
HETATM   21  C   UNL     1     -42.299 -44.158  12.241  1.00  0.00     0.022 C 
HETATM   22  C   UNL     1     -42.707 -44.772  13.583  1.00  0.00     0.012 C 
HETATM   23  C   UNL     1     -41.764 -44.347  14.698  1.00  0.00     0.075 C 
HETATM   24  S   UNL     1     -40.914 -42.879  14.086  1.00  0.00    -0.158 SA
ENDBRANCH  18  19
ENDBRANCH   1  18
TORSDOF 4
ENDMDL
MODEL 7
REMARK VINA RESULT:      -5.1      2.545      8.330
REMARK  4 active torsions:
REMARK  status: ('A' for Active; 'I' for Inactive)
REMARK    1  A    between atoms: C_2  and  C_3 
REMARK    2  A    between atoms: C_3  and  N_4 
REMARK       I    between atoms: N_4  and  C_5 
REMARK       I    between atoms: C_5  and  N_7 
REMARK    3  A    between atoms: N_7  and  C_8 
REMARK    4  A    between atoms: C_12  and  C_16 
ROOT
HETATM    1  N   UNL     1     -40.057 -48.332  12.248  1.00  0.00    -0.341 N 
HETATM    2  C   UNL     1     -41.223 -49.059  12.259  1.00  0.00     0.320 C 
HETATM    3  O   UNL     1     -42.266 -48.662  11.753  1.00  0.00    -0.247 OA
HETATM    4  N   UNL     1     -41.047 -50.300  12.834  1.00  0.00    -0.306 N 
HETATM    5  H   UNL     1     -39.550 -48.349  13.125  1.00  0.00     0.164 HD
HETATM    6  H   UNL     1     -40.122 -50.682  12.688  1.00  0.00     0.171 HD
ENDROOT
BRANCH   4   7
HETATM    7  C   UNL     1     -42.117 -51.211  12.965  1.00  0.00     0.067 A 
HETATM    8  C   UNL     1     -42.293 -52.239  12.069  1.00  0.00     0.120 A 
HETATM    9  N   UNL     1     -43.319 -53.117  12.119  1.00  0.00    -0.353 N 
HETATM   10  C   UNL     1     -44.205 -52.980  13.130  1.00  0.00     0.085 A 
ATOM     11  HN  UNL     1     -43.421 -53.854  11.422  1.00  0.00     0.166 HD
HETATM   12  N   UNL     1     -44.093 -52.027  14.079  1.00  0.00    -0.353 N 
HETATM   13  C   UNL     1     -43.061 -51.159  13.969  1.00  0.00     0.120 A 
ATOM     14  HN  UNL     1     -44.759 -51.963  14.848  1.00  0.00     0.166 HD
BRANCH  10  15
HETATM   15  C   UNL     1     -45.389 -53.913  13.183  1.00  0.00     0.053 A 
HETATM   16  C   UNL     1     -46.100 -54.178  14.491  1.00  0.00     0.013 A 
HETATM   17  C   UNL     1     -45.267 -55.257  13.867  1.00  0.00     0.013 A 
ENDBRANCH  10  15
ENDBRANCH   4   7
BRANCH   1  18
HETATM   18  C   UNL     1     -40.055 -47.055  11.545  1.00  0.00     0.144 C 
BRANCH  18  19
HETATM   19  C   UNL     1     -40.058 -45.813  12.463  1.00  0.00     0.020 C 
HETATM   20  C   UNL     1     -39.334 -46.085  13.786  1.00  0.00     0.028 C 
HETATM   21  C   UNL     1     -39.447 -44.601  11.743  1.00  0.00     0.022 C 
HETATM   22  C   UNL     1     -40.512 -43.810  10.979  1.00  0.00     0.012 C 
HETATM   23  C   UNL     1     -41.910 -44.326  11.278  1.00  0.00     0.075 C 
HETATM   24  S   UNL     1     -41.766 -45.266  12.810  1.00  0.00    -0.158 SA
ENDBRANCH  18  19
ENDBRANCH   1  18
TORSDOF 4
ENDMDL
MODEL 8
REMARK VINA RESULT:      -5.1      1.561      2.108
REMARK  4 active torsions:
REMARK  status: ('A' for Active; 'I' for Inactive)
REMARK    1  A    between atoms: C_2  and  C_3 
REMARK    2  A    between atoms: C_3  and  N_4 
REMARK       I    between atoms: N_4  and  C_5 
REMARK       I    between atoms: C_5  and  N_7 
REMARK    3  A    between atoms: N_7  and  C_8 
REMARK    4  A    between atoms: C_12  and  C_16 
ROOT
HETATM    1  N   UNL     1     -44.430 -50.955  13.441  1.00  0.00    -0.341 N 
HETATM    2  C   UNL     1     -43.533 -49.914  13.413  1.00  0.00     0.320 C 
HETATM    3  O   UNL     1     -42.965 -49.491  14.414  1.00  0.00    -0.247 OA
HETATM    4  N   UNL     1     -43.304 -49.471  12.128  1.00  0.00    -0.306 N 
HETATM    5  H   UNL     1     -45.252 -50.809  12.866  1.00  0.00     0.164 HD
HETATM    6  H   UNL     1     -43.371 -50.202  11.433  1.00  0.00     0.171 HD
ENDROOT
BRANCH   4   7
HETATM    7  C   UNL     1     -42.426 -48.397  11.865  1.00  0.00     0.067 A 
HETATM    8  C   UNL     1     -41.186 -48.608  11.307  1.00  0.00     0.120 A 
HETATM    9  N   UNL     1     -40.289 -47.627  11.068  1.00  0.00    -0.353 N 
HETATM   10  C   UNL     1     -40.654 -46.363  11.378  1.00  0.00     0.085 A 
ATOM     11  HN  UNL     1     -39.373 -47.832  10.670  1.00  0.00     0.166 HD
HETATM   12  N   UNL     1     -41.862 -46.054  11.891  1.00  0.00    -0.353 N 
HETATM   13  C   UNL     1     -42.715 -47.075  12.133  1.00  0.00     0.120 A 
ATOM     14  HN  UNL     1     -42.123 -45.088  12.089  1.00  0.00     0.166 HD
BRANCH  10  15
HETATM   15  C   UNL     1     -39.653 -45.252  11.171  1.00  0.00     0.053 A 
HETATM   16  C   UNL     1     -40.116 -43.860  10.806  1.00  0.00     0.013 A 
HETATM   17  C   UNL     1     -39.410 -44.699   9.784  1.00  0.00     0.013 A 
ENDBRANCH  10  15
ENDBRANCH   4   7
BRANCH   1  18
HETATM   18  C   UNL     1     -44.665 -51.621  14.717  1.00  0.00     0.144 C 
BRANCH  18  19
HETATM   19  C   UNL     1     -43.845 -52.911  14.931  1.00  0.00     0.020 C 
HETATM   20  C   UNL     1     -42.751 -52.719  15.986  1.00  0.00     0.028 C 
HETATM   21  C   UNL     1     -44.763 -54.085  15.302  1.00  0.00     0.022 C 
HETATM   22  C   UNL     1     -45.256 -54.826  14.055  1.00  0.00     0.012 C 
HETATM   23  C   UNL     1     -44.569 -54.316  12.799  1.00  0.00     0.075 C 
HETATM   24  S   UNL     1     -43.084 -53.464  13.365  1.00  0.00    -0.158 SA
ENDBRANCH  18  19
ENDBRANCH   1  18
TORSDOF 4
ENDMDL
MODEL 9
REMARK VINA RESULT:      -5.1      4.769      7.493
REMARK  4 active torsions:
REMARK  status: ('A' for Active; 'I' for Inactive)
REMARK    1  A    between atoms: C_2  and  C_3 
REMARK    2  A    between atoms: C_3  and  N_4 
REMARK       I    between atoms: N_4  and  C_5 
REMARK       I    between atoms: C_5  and  N_7 
REMARK    3  A    between atoms: N_7  and  C_8 
REMARK    4  A    between atoms: C_12  and  C_16 
ROOT
HETATM    1  N   UNL     1     -37.703 -48.286  14.551  1.00  0.00    -0.341 N 
HETATM    2  C   UNL     1     -38.881 -48.026  13.893  1.00  0.00     0.320 C 
HETATM    3  O   UNL     1     -39.838 -47.474  14.423  1.00  0.00    -0.247 OA
HETATM    4  N   UNL     1     -38.817 -48.393  12.565  1.00  0.00    -0.306 N 
HETATM    5  H   UNL     1     -37.315 -49.202  14.359  1.00  0.00     0.164 HD
HETATM    6  H   UNL     1     -37.893 -48.296  12.167  1.00  0.00     0.171 HD
ENDROOT
BRANCH   4   7
HETATM    7  C   UNL     1     -39.922 -48.230  11.702  1.00  0.00     0.067 A 
HETATM    8  C   UNL     1     -40.139 -47.047  11.034  1.00  0.00     0.120 A 
HETATM    9  N   UNL     1     -41.197 -46.818  10.227  1.00  0.00    -0.353 N 
HETATM   10  C   UNL     1     -42.075 -47.830  10.053  1.00  0.00     0.085 A 
ATOM     11  HN  UNL     1     -41.328 -45.918   9.766  1.00  0.00     0.166 HD
HETATM   12  N   UNL     1     -41.925 -49.039  10.634  1.00  0.00    -0.353 N 
HETATM   13  C   UNL     1     -40.861 -49.208  11.451  1.00  0.00     0.120 A 
ATOM     14  HN  UNL     1     -42.588 -49.795  10.463  1.00  0.00     0.166 HD
BRANCH  10  15
HETATM   15  C   UNL     1     -43.295 -47.588   9.198  1.00  0.00     0.053 A 
HETATM   16  C   UNL     1     -43.966 -46.233   9.183  1.00  0.00     0.013 A 
HETATM   17  C   UNL     1     -44.648 -47.393   9.844  1.00  0.00     0.013 A 
ENDBRANCH  10  15
ENDBRANCH   4   7
BRANCH   1  18
HETATM   18  C   UNL     1     -37.573 -47.823  15.928  1.00  0.00     0.144 C 
BRANCH  18  19
HETATM   19  C   UNL     1     -36.542 -48.600  16.774  1.00  0.00     0.020 C 
HETATM   20  C   UNL     1     -36.213 -49.963  16.158  1.00  0.00     0.028 C 
HETATM   21  C   UNL     1     -35.265 -47.769  16.976  1.00  0.00     0.022 C 
HETATM   22  C   UNL     1     -35.360 -46.894  18.230  1.00  0.00     0.012 C 
HETATM   23  C   UNL     1     -36.611 -47.211  19.034  1.00  0.00     0.075 C 
HETATM   24  S   UNL     1     -37.150 -48.839  18.480  1.00  0.00    -0.158 SA
ENDBRANCH  18  19
ENDBRANCH   1  18
TORSDOF 4
ENDMDL
