MODEL 1
REMARK VINA RESULT:      -6.2      0.000      0.000
REMARK  7 active torsions:
REMARK  status: ('A' for Active; 'I' for Inactive)
REMARK    1  A    between atoms: C_2  and  N_3 
REMARK    2  A    between atoms: C_2  and  C_14 
REMARK    3  A    between atoms: N_3  and  C_4 
REMARK    4  A    between atoms: C_4  and  C_5 
REMARK    5  A    between atoms: C_5  and  C_6 
REMARK       I    between atoms: C_6  and  N_8 
REMARK    6  A    between atoms: N_8  and  C_9 
REMARK    7  A    between atoms: C_14  and  N_16 
ROOT
HETATM    1  N   UNL     1     -40.692 -50.631  10.995  1.00  0.00     0.090 N 
HETATM    2  H   UNL     1     -39.925 -50.970  10.414  1.00  0.00     0.316 HD
ENDROOT
BRANCH   1   3
HETATM    3  C   UNL     1     -40.626 -49.146  11.071  1.00  0.00     0.240 C 
HETATM    4  C   UNL     1     -39.370 -48.720  11.851  1.00  0.00     0.045 C 
BRANCH   3   5
HETATM    5  C   UNL     1     -41.918 -48.450  11.609  1.00  0.00     0.136 C 
HETATM    6  C   UNL     1     -41.629 -47.271  12.545  1.00  0.00     0.036 C 
BRANCH   5   7
HETATM    7  N   UNL     1     -42.800 -48.020  10.522  1.00  0.00    -0.297 N 
HETATM    8  C   UNL     1     -44.081 -47.559  10.656  1.00  0.00     0.118 A 
HETATM    9  C   UNL     1     -44.548 -47.324   9.382  1.00  0.00    -0.028 A 
HETATM   10  C   UNL     1     -45.894 -46.869   8.970  1.00  0.00     0.051 C 
HETATM   11  C   UNL     1     -43.443 -47.623   8.553  1.00  0.00     0.115 A 
HETATM   12  N   UNL     1     -42.368 -48.009   9.243  1.00  0.00    -0.309 N 
ATOM     13  HN  UNL     1     -41.441 -48.242   8.888  1.00  0.00     0.186 HD
ENDBRANCH   5   7
ENDBRANCH   3   5
ENDBRANCH   1   3
BRANCH   1  14
HETATM   14  C   UNL     1     -40.668 -51.298  12.297  1.00  0.00     0.279 C 
BRANCH  14  15
HETATM   15  C   UNL     1     -40.917 -52.799  12.175  1.00  0.00     0.132 C 
BRANCH  15  16
HETATM   16  C   UNL     1     -42.230 -53.132  12.861  1.00  0.00     0.219 C 
HETATM   17  O   UNL     1     -42.546 -54.276  13.178  1.00  0.00    -0.274 OA
HETATM   18  N   UNL     1     -43.041 -52.047  13.074  1.00  0.00    -0.356 N 
HETATM   19  H   UNL     1     -42.643 -51.118  12.996  1.00  0.00     0.162 HD
BRANCH  18  20
HETATM   20  C   UNL     1     -44.314 -52.211  13.740  1.00  0.00     0.084 C 
HETATM   21  C   UNL     1     -45.483 -52.357  12.767  1.00  0.00     0.025 C 
HETATM   22  C   UNL     1     -46.693 -51.750  13.480  1.00  0.00     0.002 C 
HETATM   23  C   UNL     1     -46.185 -51.232  14.822  1.00  0.00     0.002 C 
HETATM   24  C   UNL     1     -44.696 -51.015  14.605  1.00  0.00     0.025 C 
ENDBRANCH  18  20
ENDBRANCH  15  16
ENDBRANCH  14  15
ENDBRANCH   1  14
TORSDOF 7
ENDMDL
MODEL 2
REMARK VINA RESULT:      -5.8      1.836      2.412
REMARK  7 active torsions:
REMARK  status: ('A' for Active; 'I' for Inactive)
REMARK    1  A    between atoms: C_2  and  N_3 
REMARK    2  A    between atoms: C_2  and  C_14 
REMARK    3  A    between atoms: N_3  and  C_4 
REMARK    4  A    between atoms: C_4  and  C_5 
REMARK    5  A    between atoms: C_5  and  C_6 
REMARK       I    between atoms: C_6  and  N_8 
REMARK    6  A    between atoms: N_8  and  C_9 
REMARK    7  A    between atoms: C_14  and  N_16 
ROOT
HETATM    1  N   UNL     1     -40.015 -50.352  11.261  1.00  0.00     0.090 N 
HETATM    2  H   UNL     1     -39.054 -50.562  10.988  1.00  0.00     0.316 HD
ENDROOT
BRANCH   1   3
HETATM    3  C   UNL     1     -40.110 -48.917  11.643  1.00  0.00     0.240 C 
HETATM    4  C   UNL     1     -40.207 -48.791  13.172  1.00  0.00     0.045 C 
BRANCH   3   5
HETATM    5  C   UNL     1     -41.229 -48.108  10.912  1.00  0.00     0.136 C 
HETATM    6  C   UNL     1     -42.626 -48.329  11.505  1.00  0.00     0.036 C 
BRANCH   5   7
HETATM    7  N   UNL     1     -40.928 -46.675  10.865  1.00  0.00    -0.297 N 
HETATM    8  C   UNL     1     -41.709 -45.669  11.364  1.00  0.00     0.118 A 
HETATM    9  C   UNL     1     -41.071 -44.488  11.055  1.00  0.00    -0.028 A 
HETATM   10  C   UNL     1     -41.525 -43.106  11.322  1.00  0.00     0.051 C 
HETATM   11  C   UNL     1     -39.879 -44.901  10.417  1.00  0.00     0.115 A 
HETATM   12  N   UNL     1     -39.770 -46.228  10.334  1.00  0.00    -0.309 N 
ATOM     13  HN  UNL     1     -38.996 -46.776   9.957  1.00  0.00     0.186 HD
ENDBRANCH   5   7
ENDBRANCH   3   5
ENDBRANCH   1   3
BRANCH   1  14
HETATM   14  C   UNL     1     -40.456 -51.279  12.303  1.00  0.00     0.279 C 
BRANCH  14  15
HETATM   15  C   UNL     1     -41.276 -52.433  11.734  1.00  0.00     0.132 C 
BRANCH  15  16
HETATM   16  C   UNL     1     -42.374 -52.784  12.720  1.00  0.00     0.219 C 
HETATM   17  O   UNL     1     -42.321 -53.762  13.461  1.00  0.00    -0.274 OA
HETATM   18  N   UNL     1     -43.444 -51.924  12.696  1.00  0.00    -0.356 N 
HETATM   19  H   UNL     1     -43.337 -51.028  12.235  1.00  0.00     0.162 HD
BRANCH  18  20
HETATM   20  C   UNL     1     -44.555 -52.121  13.600  1.00  0.00     0.084 C 
HETATM   21  C   UNL     1     -45.912 -51.910  12.933  1.00  0.00     0.025 C 
HETATM   22  C   UNL     1     -46.836 -51.381  14.032  1.00  0.00     0.002 C 
HETATM   23  C   UNL     1     -45.981 -51.260  15.289  1.00  0.00     0.002 C 
HETATM   24  C   UNL     1     -44.558 -51.143  14.769  1.00  0.00     0.025 C 
ENDBRANCH  18  20
ENDBRANCH  15  16
ENDBRANCH  14  15
ENDBRANCH   1  14
TORSDOF 7
ENDMDL
MODEL 3
REMARK VINA RESULT:      -5.7      1.948      5.678
REMARK  7 active torsions:
REMARK  status: ('A' for Active; 'I' for Inactive)
REMARK    1  A    between atoms: C_2  and  N_3 
REMARK    2  A    between atoms: C_2  and  C_14 
REMARK    3  A    between atoms: N_3  and  C_4 
REMARK    4  A    between atoms: C_4  and  C_5 
REMARK    5  A    between atoms: C_5  and  C_6 
REMARK       I    between atoms: C_6  and  N_8 
REMARK    6  A    between atoms: N_8  and  C_9 
REMARK    7  A    between atoms: C_14  and  N_16 
ROOT
HETATM    1  N   UNL     1     -41.212 -50.411  12.978  1.00  0.00     0.090 N 
HETATM    2  H   UNL     1     -40.873 -49.686  13.610  1.00  0.00     0.316 HD
ENDROOT
BRANCH   1   3
HETATM    3  C   UNL     1     -41.529 -51.633  13.765  1.00  0.00     0.240 C 
HETATM    4  C   UNL     1     -40.238 -52.219  14.360  1.00  0.00     0.045 C 
BRANCH   3   5
HETATM    5  C   UNL     1     -42.371 -52.711  13.007  1.00  0.00     0.136 C 
HETATM    6  C   UNL     1     -42.041 -54.148  13.428  1.00  0.00     0.036 C 
BRANCH   5   7
HETATM    7  N   UNL     1     -43.810 -52.471  13.137  1.00  0.00    -0.297 N 
HETATM    8  C   UNL     1     -44.431 -51.825  14.171  1.00  0.00     0.118 A 
HETATM    9  C   UNL     1     -45.783 -51.876  13.910  1.00  0.00    -0.028 A 
HETATM   10  C   UNL     1     -46.895 -51.372  14.743  1.00  0.00     0.051 C 
HETATM   11  C   UNL     1     -45.863 -52.529  12.658  1.00  0.00     0.115 A 
HETATM   12  N   UNL     1     -44.667 -52.858  12.168  1.00  0.00    -0.309 N 
ATOM     13  HN  UNL     1     -44.451 -53.298  11.274  1.00  0.00     0.186 HD
ENDBRANCH   5   7
ENDBRANCH   3   5
ENDBRANCH   1   3
BRANCH   1  14
HETATM   14  C   UNL     1     -40.248 -50.627  11.899  1.00  0.00     0.279 C 
BRANCH  14  15
HETATM   15  C   UNL     1     -39.657 -49.316  11.387  1.00  0.00     0.132 C 
BRANCH  15  16
HETATM   16  C   UNL     1     -40.777 -48.303  11.238  1.00  0.00     0.219 C 
HETATM   17  O   UNL     1     -40.986 -47.412  12.058  1.00  0.00    -0.274 OA
HETATM   18  N   UNL     1     -41.549 -48.482  10.118  1.00  0.00    -0.356 N 
HETATM   19  H   UNL     1     -41.201 -49.081   9.378  1.00  0.00     0.162 HD
BRANCH  18  20
HETATM   20  C   UNL     1     -42.639 -47.576   9.833  1.00  0.00     0.084 C 
HETATM   21  C   UNL     1     -43.857 -47.808  10.724  1.00  0.00     0.025 C 
HETATM   22  C   UNL     1     -45.070 -47.420   9.876  1.00  0.00     0.002 C 
HETATM   23  C   UNL     1     -44.526 -47.017   8.509  1.00  0.00     0.002 C 
HETATM   24  C   UNL     1     -43.181 -47.717   8.415  1.00  0.00     0.025 C 
ENDBRANCH  18  20
ENDBRANCH  15  16
ENDBRANCH  14  15
ENDBRANCH   1  14
TORSDOF 7
ENDMDL
MODEL 4
REMARK VINA RESULT:      -5.7      1.744      2.606
REMARK  7 active torsions:
REMARK  status: ('A' for Active; 'I' for Inactive)
REMARK    1  A    between atoms: C_2  and  N_3 
REMARK    2  A    between atoms: C_2  and  C_14 
REMARK    3  A    between atoms: N_3  and  C_4 
REMARK    4  A    between atoms: C_4  and  C_5 
REMARK    5  A    between atoms: C_5  and  C_6 
REMARK       I    between atoms: C_6  and  N_8 
REMARK    6  A    between atoms: N_8  and  C_9 
REMARK    7  A    between atoms: C_14  and  N_16 
ROOT
HETATM    1  N   UNL     1     -41.021 -52.569  11.660  1.00  0.00     0.090 N 
HETATM    2  H   UNL     1     -40.517 -52.965  10.866  1.00  0.00     0.316 HD
ENDROOT
BRANCH   1   3
HETATM    3  C   UNL     1     -40.614 -51.148  11.837  1.00  0.00     0.240 C 
HETATM    4  C   UNL     1     -39.437 -51.063  12.822  1.00  0.00     0.045 C 
BRANCH   3   5
HETATM    5  C   UNL     1     -41.772 -50.168  12.214  1.00  0.00     0.136 C 
HETATM    6  C   UNL     1     -41.869 -49.894  13.720  1.00  0.00     0.036 C 
BRANCH   5   7
HETATM    7  N   UNL     1     -41.679 -48.904  11.481  1.00  0.00    -0.297 N 
HETATM    8  C   UNL     1     -40.701 -47.957  11.625  1.00  0.00     0.118 A 
HETATM    9  C   UNL     1     -41.037 -46.917  10.786  1.00  0.00    -0.028 A 
HETATM   10  C   UNL     1     -40.339 -45.626  10.605  1.00  0.00     0.051 C 
HETATM   11  C   UNL     1     -42.209 -47.368  10.137  1.00  0.00     0.115 A 
HETATM   12  N   UNL     1     -42.581 -48.588  10.529  1.00  0.00    -0.309 N 
ATOM     13  HN  UNL     1     -43.362 -49.149  10.188  1.00  0.00     0.186 HD
ENDBRANCH   5   7
ENDBRANCH   3   5
ENDBRANCH   1   3
BRANCH   1  14
HETATM   14  C   UNL     1     -40.822 -53.401  12.847  1.00  0.00     0.279 C 
BRANCH  14  15
HETATM   15  C   UNL     1     -42.037 -54.273  13.146  1.00  0.00     0.132 C 
BRANCH  15  16
HETATM   16  C   UNL     1     -43.278 -53.399  13.137  1.00  0.00     0.219 C 
HETATM   17  O   UNL     1     -43.879 -53.102  12.108  1.00  0.00    -0.274 OA
HETATM   18  N   UNL     1     -43.657 -52.952  14.378  1.00  0.00    -0.356 N 
HETATM   19  H   UNL     1     -43.266 -53.401  15.198  1.00  0.00     0.162 HD
BRANCH  18  20
HETATM   20  C   UNL     1     -44.836 -52.128  14.525  1.00  0.00     0.084 C 
HETATM   21  C   UNL     1     -44.745 -51.158  15.700  1.00  0.00     0.025 C 
HETATM   22  C   UNL     1     -46.180 -50.976  16.199  1.00  0.00     0.002 C 
HETATM   23  C   UNL     1     -47.053 -51.876  15.331  1.00  0.00     0.002 C 
HETATM   24  C   UNL     1     -46.100 -52.936  14.804  1.00  0.00     0.025 C 
ENDBRANCH  18  20
ENDBRANCH  15  16
ENDBRANCH  14  15
ENDBRANCH   1  14
TORSDOF 7
ENDMDL
MODEL 5
REMARK VINA RESULT:      -5.6      2.057      3.101
REMARK  7 active torsions:
REMARK  status: ('A' for Active; 'I' for Inactive)
REMARK    1  A    between atoms: C_2  and  N_3 
REMARK    2  A    between atoms: C_2  and  C_14 
REMARK    3  A    between atoms: N_3  and  C_4 
REMARK    4  A    between atoms: C_4  and  C_5 
REMARK    5  A    between atoms: C_5  and  C_6 
REMARK       I    between atoms: C_6  and  N_8 
REMARK    6  A    between atoms: N_8  and  C_9 
REMARK    7  A    between atoms: C_14  and  N_16 
ROOT
HETATM    1  N   UNL     1     -39.678 -51.648  13.029  1.00  0.00     0.090 N 
HETATM    2  H   UNL     1     -39.892 -51.811  12.044  1.00  0.00     0.316 HD
ENDROOT
BRANCH   1   3
HETATM    3  C   UNL     1     -38.356 -50.973  13.134  1.00  0.00     0.240 C 
HETATM    4  C   UNL     1     -38.066 -50.622  14.603  1.00  0.00     0.045 C 
BRANCH   3   5
HETATM    5  C   UNL     1     -38.159 -49.747  12.185  1.00  0.00     0.136 C 
HETATM    6  C   UNL     1     -37.286 -50.058  10.963  1.00  0.00     0.036 C 
BRANCH   5   7
HETATM    7  N   UNL     1     -39.438 -49.178  11.753  1.00  0.00    -0.297 N 
HETATM    8  C   UNL     1     -40.039 -48.061  12.265  1.00  0.00     0.118 A 
HETATM    9  C   UNL     1     -41.241 -47.926  11.605  1.00  0.00    -0.028 A 
HETATM   10  C   UNL     1     -42.294 -46.912  11.822  1.00  0.00     0.051 C 
HETATM   11  C   UNL     1     -41.238 -48.987  10.671  1.00  0.00     0.115 A 
HETATM   12  N   UNL     1     -40.129 -49.727  10.731  1.00  0.00    -0.309 N 
ATOM     13  HN  UNL     1     -39.867 -50.519  10.145  1.00  0.00     0.186 HD
ENDBRANCH   5   7
ENDBRANCH   3   5
ENDBRANCH   1   3
BRANCH   1  14
HETATM   14  C   UNL     1     -39.772 -52.901  13.778  1.00  0.00     0.279 C 
BRANCH  14  15
HETATM   15  C   UNL     1     -40.901 -53.791  13.265  1.00  0.00     0.132 C 
BRANCH  15  16
HETATM   16  C   UNL     1     -42.041 -52.908  12.792  1.00  0.00     0.219 C 
HETATM   17  O   UNL     1     -42.021 -52.307  11.721  1.00  0.00    -0.274 OA
HETATM   18  N   UNL     1     -43.087 -52.823  13.676  1.00  0.00    -0.356 N 
HETATM   19  H   UNL     1     -43.148 -53.502  14.426  1.00  0.00     0.162 HD
BRANCH  18  20
HETATM   20  C   UNL     1     -44.255 -52.035  13.347  1.00  0.00     0.084 C 
HETATM   21  C   UNL     1     -44.957 -51.466  14.577  1.00  0.00     0.025 C 
HETATM   22  C   UNL     1     -46.440 -51.385  14.207  1.00  0.00     0.002 C 
HETATM   23  C   UNL     1     -46.560 -51.948  12.795  1.00  0.00     0.002 C 
HETATM   24  C   UNL     1     -45.338 -52.838  12.636  1.00  0.00     0.025 C 
ENDBRANCH  18  20
ENDBRANCH  15  16
ENDBRANCH  14  15
ENDBRANCH   1  14
TORSDOF 7
ENDMDL
MODEL 6
REMARK VINA RESULT:      -5.6      1.908      6.061
REMARK  7 active torsions:
REMARK  status: ('A' for Active; 'I' for Inactive)
REMARK    1  A    between atoms: C_2  and  N_3 
REMARK    2  A    between atoms: C_2  and  C_14 
REMARK    3  A    between atoms: N_3  and  C_4 
REMARK    4  A    between atoms: C_4  and  C_5 
REMARK    5  A    between atoms: C_5  and  C_6 
REMARK       I    between atoms: C_6  and  N_8 
REMARK    6  A    between atoms: N_8  and  C_9 
REMARK    7  A    between atoms: C_14  and  N_16 
ROOT
HETATM    1  N   UNL     1     -42.128 -51.854  12.495  1.00  0.00     0.090 N 
HETATM    2  H   UNL     1     -42.218 -51.012  13.064  1.00  0.00     0.316 HD
ENDROOT
BRANCH   1   3
HETATM    3  C   UNL     1     -42.198 -53.049  13.380  1.00  0.00     0.240 C 
HETATM    4  C   UNL     1     -40.976 -53.950  13.136  1.00  0.00     0.045 C 
BRANCH   3   5
HETATM    5  C   UNL     1     -43.541 -53.845  13.315  1.00  0.00     0.136 C 
HETATM    6  C   UNL     1     -43.580 -55.051  14.262  1.00  0.00     0.036 C 
BRANCH   5   7
HETATM    7  N   UNL     1     -44.701 -52.984  13.555  1.00  0.00    -0.297 N 
HETATM    8  C   UNL     1     -45.186 -52.605  14.777  1.00  0.00     0.118 A 
HETATM    9  C   UNL     1     -46.310 -51.846  14.533  1.00  0.00    -0.028 A 
HETATM   10  C   UNL     1     -47.235 -51.241  15.515  1.00  0.00     0.051 C 
HETATM   11  C   UNL     1     -46.379 -51.782  13.123  1.00  0.00     0.115 A 
HETATM   12  N   UNL     1     -45.383 -52.439  12.525  1.00  0.00    -0.309 N 
ATOM     13  HN  UNL     1     -45.185 -52.513  11.527  1.00  0.00     0.186 HD
ENDBRANCH   5   7
ENDBRANCH   3   5
ENDBRANCH   1   3
BRANCH   1  14
HETATM   14  C   UNL     1     -40.915 -51.783  11.681  1.00  0.00     0.279 C 
BRANCH  14  15
HETATM   15  C   UNL     1     -40.273 -50.399  11.729  1.00  0.00     0.132 C 
BRANCH  15  16
HETATM   16  C   UNL     1     -41.370 -49.351  11.681  1.00  0.00     0.219 C 
HETATM   17  O   UNL     1     -42.057 -49.058  12.656  1.00  0.00    -0.274 OA
HETATM   18  N   UNL     1     -41.543 -48.777  10.446  1.00  0.00    -0.356 N 
HETATM   19  H   UNL     1     -40.816 -48.894   9.750  1.00  0.00     0.162 HD
BRANCH  18  20
HETATM   20  C   UNL     1     -42.537 -47.745  10.257  1.00  0.00     0.084 C 
HETATM   21  C   UNL     1     -43.149 -47.753   8.858  1.00  0.00     0.025 C 
HETATM   22  C   UNL     1     -43.505 -46.297   8.554  1.00  0.00     0.002 C 
HETATM   23  C   UNL     1     -43.052 -45.483   9.762  1.00  0.00     0.002 C 
HETATM   24  C   UNL     1     -41.975 -46.336  10.411  1.00  0.00     0.025 C 
ENDBRANCH  18  20
ENDBRANCH  15  16
ENDBRANCH  14  15
ENDBRANCH   1  14
TORSDOF 7
ENDMDL
MODEL 7
REMARK VINA RESULT:      -5.6      1.855      2.271
REMARK  7 active torsions:
REMARK  status: ('A' for Active; 'I' for Inactive)
REMARK    1  A    between atoms: C_2  and  N_3 
REMARK    2  A    between atoms: C_2  and  C_14 
REMARK    3  A    between atoms: N_3  and  C_4 
REMARK    4  A    between atoms: C_4  and  C_5 
REMARK    5  A    between atoms: C_5  and  C_6 
REMARK       I    between atoms: C_6  and  N_8 
REMARK    6  A    between atoms: N_8  and  C_9 
REMARK    7  A    between atoms: C_14  and  N_16 
ROOT
HETATM    1  N   UNL     1     -40.172 -48.072  12.020  1.00  0.00     0.090 N 
HETATM    2  H   UNL     1     -40.339 -47.676  12.945  1.00  0.00     0.316 HD
ENDROOT
BRANCH   1   3
HETATM    3  C   UNL     1     -40.786 -47.187  10.993  1.00  0.00     0.240 C 
HETATM    4  C   UNL     1     -39.889 -45.958  10.762  1.00  0.00     0.045 C 
BRANCH   3   5
HETATM    5  C   UNL     1     -42.273 -46.789  11.263  1.00  0.00     0.136 C 
HETATM    6  C   UNL     1     -42.451 -45.309  11.623  1.00  0.00     0.036 C 
BRANCH   5   7
HETATM    7  N   UNL     1     -43.145 -47.138  10.139  1.00  0.00    -0.297 N 
HETATM    8  C   UNL     1     -44.474 -47.454  10.216  1.00  0.00     0.118 A 
HETATM    9  C   UNL     1     -44.877 -47.764   8.936  1.00  0.00    -0.028 A 
HETATM   10  C   UNL     1     -46.208 -48.224   8.482  1.00  0.00     0.051 C 
HETATM   11  C   UNL     1     -43.721 -47.545   8.152  1.00  0.00     0.115 A 
HETATM   12  N   UNL     1     -42.679 -47.129   8.873  1.00  0.00    -0.309 N 
ATOM     13  HN  UNL     1     -41.749 -46.866   8.544  1.00  0.00     0.186 HD
ENDBRANCH   5   7
ENDBRANCH   3   5
ENDBRANCH   1   3
BRANCH   1  14
HETATM   14  C   UNL     1     -40.640 -49.457  11.974  1.00  0.00     0.279 C 
BRANCH  14  15
HETATM   15  C   UNL     1     -39.939 -50.333  13.009  1.00  0.00     0.132 C 
BRANCH  15  16
HETATM   16  C   UNL     1     -40.502 -51.740  12.917  1.00  0.00     0.219 C 
HETATM   17  O   UNL     1     -39.815 -52.717  12.630  1.00  0.00    -0.274 OA
HETATM   18  N   UNL     1     -41.850 -51.820  13.161  1.00  0.00    -0.356 N 
HETATM   19  H   UNL     1     -42.313 -51.035  13.602  1.00  0.00     0.162 HD
BRANCH  18  20
HETATM   20  C   UNL     1     -42.518 -53.103  13.131  1.00  0.00     0.084 C 
HETATM   21  C   UNL     1     -43.898 -53.042  12.482  1.00  0.00     0.025 C 
HETATM   22  C   UNL     1     -44.732 -54.118  13.181  1.00  0.00     0.002 C 
HETATM   23  C   UNL     1     -43.829 -54.739  14.241  1.00  0.00     0.002 C 
HETATM   24  C   UNL     1     -42.783 -53.672  14.521  1.00  0.00     0.025 C 
ENDBRANCH  18  20
ENDBRANCH  15  16
ENDBRANCH  14  15
ENDBRANCH   1  14
TORSDOF 7
ENDMDL
MODEL 8
REMARK VINA RESULT:      -5.5      2.535      4.495
REMARK  7 active torsions:
REMARK  status: ('A' for Active; 'I' for Inactive)
REMARK    1  A    between atoms: C_2  and  N_3 
REMARK    2  A    between atoms: C_2  and  C_14 
REMARK    3  A    between atoms: N_3  and  C_4 
REMARK    4  A    between atoms: C_4  and  C_5 
REMARK    5  A    between atoms: C_5  and  C_6 
REMARK       I    between atoms: C_6  and  N_8 
REMARK    6  A    between atoms: N_8  and  C_9 
REMARK    7  A    between atoms: C_14  and  N_16 
ROOT
HETATM    1  N   UNL     1     -40.914 -48.730  13.679  1.00  0.00     0.090 N 
HETATM    2  H   UNL     1     -40.858 -48.479  14.667  1.00  0.00     0.316 HD
ENDROOT
BRANCH   1   3
HETATM    3  C   UNL     1     -39.559 -48.627  13.073  1.00  0.00     0.240 C 
HETATM    4  C   UNL     1     -39.300 -47.180  12.621  1.00  0.00     0.045 C 
BRANCH   3   5
HETATM    5  C   UNL     1     -39.259 -49.661  11.940  1.00  0.00     0.136 C 
HETATM    6  C   UNL     1     -37.761 -49.909  11.725  1.00  0.00     0.036 C 
BRANCH   5   7
HETATM    7  N   UNL     1     -39.948 -50.934  12.165  1.00  0.00    -0.297 N 
HETATM    8  C   UNL     1     -39.763 -51.776  13.227  1.00  0.00     0.118 A 
HETATM    9  C   UNL     1     -40.570 -52.870  13.005  1.00  0.00    -0.028 A 
HETATM   10  C   UNL     1     -40.700 -54.092  13.827  1.00  0.00     0.051 C 
HETATM   11  C   UNL     1     -41.245 -52.557  11.803  1.00  0.00     0.115 A 
HETATM   12  N   UNL     1     -40.898 -51.366  11.310  1.00  0.00    -0.309 N 
ATOM     13  HN  UNL     1     -41.265 -50.895  10.482  1.00  0.00     0.186 HD
ENDBRANCH   5   7
ENDBRANCH   3   5
ENDBRANCH   1   3
BRANCH   1  14
HETATM   14  C   UNL     1     -41.932 -47.918  13.013  1.00  0.00     0.279 C 
BRANCH  14  15
HETATM   15  C   UNL     1     -43.014 -48.775  12.363  1.00  0.00     0.132 C 
BRANCH  15  16
HETATM   16  C   UNL     1     -43.574 -49.726  13.405  1.00  0.00     0.219 C 
HETATM   17  O   UNL     1     -43.461 -49.535  14.614  1.00  0.00    -0.274 OA
HETATM   18  N   UNL     1     -44.198 -50.829  12.880  1.00  0.00    -0.356 N 
HETATM   19  H   UNL     1     -44.453 -50.823  11.899  1.00  0.00     0.162 HD
BRANCH  18  20
HETATM   20  C   UNL     1     -44.800 -51.810  13.755  1.00  0.00     0.084 C 
HETATM   21  C   UNL     1     -44.588 -53.245  13.281  1.00  0.00     0.025 C 
HETATM   22  C   UNL     1     -45.818 -54.023  13.751  1.00  0.00     0.002 C 
HETATM   23  C   UNL     1     -46.726 -53.012  14.443  1.00  0.00     0.002 C 
HETATM   24  C   UNL     1     -46.315 -51.671  13.858  1.00  0.00     0.025 C 
ENDBRANCH  18  20
ENDBRANCH  15  16
ENDBRANCH  14  15
ENDBRANCH   1  14
TORSDOF 7
ENDMDL
MODEL 9
REMARK VINA RESULT:      -5.5      3.180      6.786
REMARK  7 active torsions:
REMARK  status: ('A' for Active; 'I' for Inactive)
REMARK    1  A    between atoms: C_2  and  N_3 
REMARK    2  A    between atoms: C_2  and  C_14 
REMARK    3  A    between atoms: N_3  and  C_4 
REMARK    4  A    between atoms: C_4  and  C_5 
REMARK    5  A    between atoms: C_5  and  C_6 
REMARK       I    between atoms: C_6  and  N_8 
REMARK    6  A    between atoms: N_8  and  C_9 
REMARK    7  A    between atoms: C_14  and  N_16 
ROOT
HETATM    1  N   UNL     1     -40.567 -50.381  13.286  1.00  0.00     0.090 N 
HETATM    2  H   UNL     1     -39.884 -49.801  13.774  1.00  0.00     0.316 HD
ENDROOT
BRANCH   1   3
HETATM    3  C   UNL     1     -40.755 -51.651  14.039  1.00  0.00     0.240 C 
HETATM    4  C   UNL     1     -39.617 -51.823  15.059  1.00  0.00     0.045 C 
BRANCH   3   5
HETATM    5  C   UNL     1     -40.952 -52.924  13.154  1.00  0.00     0.136 C 
HETATM    6  C   UNL     1     -40.121 -54.125  13.623  1.00  0.00     0.036 C 
BRANCH   5   7
HETATM    7  N   UNL     1     -42.362 -53.304  13.049  1.00  0.00    -0.297 N 
HETATM    8  C   UNL     1     -43.027 -54.178  13.865  1.00  0.00     0.118 A 
HETATM    9  C   UNL     1     -44.309 -54.277  13.371  1.00  0.00    -0.028 A 
HETATM   10  C   UNL     1     -45.413 -55.132  13.858  1.00  0.00     0.051 C 
HETATM   11  C   UNL     1     -44.327 -53.373  12.285  1.00  0.00     0.115 A 
HETATM   12  N   UNL     1     -43.159 -52.752  12.109  1.00  0.00    -0.309 N 
ATOM     13  HN  UNL     1     -42.924 -52.032  11.426  1.00  0.00     0.186 HD
ENDBRANCH   5   7
ENDBRANCH   3   5
ENDBRANCH   1   3
BRANCH   1  14
HETATM   14  C   UNL     1     -40.165 -50.565  11.892  1.00  0.00     0.279 C 
BRANCH  14  15
HETATM   15  C   UNL     1     -38.976 -49.685  11.518  1.00  0.00     0.132 C 
BRANCH  15  16
HETATM   16  C   UNL     1     -39.223 -48.283  12.043  1.00  0.00     0.219 C 
HETATM   17  O   UNL     1     -38.990 -47.953  13.203  1.00  0.00    -0.274 OA
HETATM   18  N   UNL     1     -39.751 -47.421  11.115  1.00  0.00    -0.356 N 
HETATM   19  H   UNL     1     -39.714 -47.679  10.135  1.00  0.00     0.162 HD
BRANCH  18  20
HETATM   20  C   UNL     1     -40.017 -46.045  11.469  1.00  0.00     0.084 C 
HETATM   21  C   UNL     1     -41.495 -45.770  11.733  1.00  0.00     0.025 C 
HETATM   22  C   UNL     1     -41.727 -44.317  11.316  1.00  0.00     0.002 C 
HETATM   23  C   UNL     1     -40.393 -43.805  10.783  1.00  0.00     0.002 C 
HETATM   24  C   UNL     1     -39.646 -45.060  10.365  1.00  0.00     0.025 C 
ENDBRANCH  18  20
ENDBRANCH  15  16
ENDBRANCH  14  15
ENDBRANCH   1  14
TORSDOF 7
ENDMDL
