MODEL 1
REMARK VINA RESULT:      -5.9      0.000      0.000
REMARK  5 active torsions:
REMARK  status: ('A' for Active; 'I' for Inactive)
REMARK    1  A    between atoms: C_3  and  N_4 
REMARK    2  A    between atoms: C_5  and  N_6 
REMARK    3  A    between atoms: N_14  and  C_15 
REMARK    4  A    between atoms: C_15  and  C_16 
REMARK       I    between atoms: C_16  and  N_18 
REMARK    5  A    between atoms: N_18  and  C_19 
ROOT
HETATM    1  C   UNL     1     -38.366 -49.667  11.304  1.00  0.00     0.162 C 
HETATM    2  N   UNL     1     -39.733 -49.718  11.802  1.00  0.00    -0.292 N 
HETATM    3  C   UNL     1     -40.251 -50.875  12.352  1.00  0.00     0.116 C 
HETATM    4  C   UNL     1     -41.543 -50.910  12.754  1.00  0.00     0.138 C 
HETATM    5  C   UNL     1     -42.417 -49.750  12.380  1.00  0.00     0.282 C 
HETATM    6  O   UNL     1     -43.637 -49.891  12.308  1.00  0.00    -0.265 OA
HETATM    7  N   UNL     1     -41.764 -48.565  12.125  1.00  0.00    -0.255 N 
HETATM    8  C   UNL     1     -40.425 -48.511  11.797  1.00  0.00     0.333 C 
HETATM    9  O   UNL     1     -39.881 -47.437  11.512  1.00  0.00    -0.246 OA
ENDROOT
BRANCH   7  10
HETATM   10  C   UNL     1     -42.564 -47.357  11.978  1.00  0.00     0.240 C 
BRANCH  10  11
HETATM   11  C   UNL     1     -43.143 -47.225  10.568  1.00  0.00     0.236 C 
HETATM   12  O   UNL     1     -42.510 -46.680   9.662  1.00  0.00    -0.272 OA
HETATM   13  N   UNL     1     -44.441 -47.669  10.411  1.00  0.00    -0.355 N 
HETATM   14  H   UNL     1     -44.951 -47.991  11.233  1.00  0.00     0.162 HD
BRANCH  13  15
HETATM   15  C   UNL     1     -45.151 -47.486   9.178  1.00  0.00     0.084 A 
HETATM   16  C   UNL     1     -46.530 -46.892   9.131  1.00  0.00     0.027 A 
HETATM   17  C   UNL     1     -46.335 -48.353   8.850  1.00  0.00     0.027 A 
ENDBRANCH  13  15
ENDBRANCH  10  11
ENDBRANCH   7  10
BRANCH   4  18
HETATM   18  N   UNL     1     -42.076 -51.956  13.540  1.00  0.00    -0.374 N 
HETATM   19  C   UNL     1     -42.533 -51.625  14.906  1.00  0.00     0.123 C 
HETATM   20  C   UNL     1     -42.397 -52.872  15.776  1.00  0.00     0.020 C 
HETATM   21  C   UNL     1     -43.180 -54.045  15.186  1.00  0.00     0.003 C 
HETATM   22  C   UNL     1     -42.842 -54.259  13.707  1.00  0.00     0.020 C 
HETATM   23  C   UNL     1     -42.953 -52.958  12.909  1.00  0.00     0.123 C 
ENDBRANCH   4  18
BRANCH   3  24
HETATM   24  N   UNL     1     -39.460 -52.001  12.586  1.00  0.00    -0.286 NA
HETATM   25  H   UNL     1     -38.817 -51.855  13.356  1.00  0.00     0.125 HD
HETATM   26  H   UNL     1     -40.079 -52.792  12.784  1.00  0.00     0.125 HD
ENDBRANCH   3  24
TORSDOF 5
ENDMDL
MODEL 2
REMARK VINA RESULT:      -5.8      2.749      4.625
REMARK  5 active torsions:
REMARK  status: ('A' for Active; 'I' for Inactive)
REMARK    1  A    between atoms: C_3  and  N_4 
REMARK    2  A    between atoms: C_5  and  N_6 
REMARK    3  A    between atoms: N_14  and  C_15 
REMARK    4  A    between atoms: C_15  and  C_16 
REMARK       I    between atoms: C_16  and  N_18 
REMARK    5  A    between atoms: N_18  and  C_19 
ROOT
HETATM    1  C   UNL     1     -40.300 -55.015  15.759  1.00  0.00     0.162 C 
HETATM    2  N   UNL     1     -41.166 -54.210  14.911  1.00  0.00    -0.292 N 
HETATM    3  C   UNL     1     -42.495 -54.009  15.233  1.00  0.00     0.116 C 
HETATM    4  C   UNL     1     -43.292 -53.304  14.395  1.00  0.00     0.138 C 
HETATM    5  C   UNL     1     -42.741 -52.958  13.043  1.00  0.00     0.282 C 
HETATM    6  O   UNL     1     -43.503 -52.731  12.104  1.00  0.00    -0.265 OA
HETATM    7  N   UNL     1     -41.368 -52.926  12.944  1.00  0.00    -0.255 N 
HETATM    8  C   UNL     1     -40.544 -53.571  13.843  1.00  0.00     0.333 C 
HETATM    9  O   UNL     1     -39.317 -53.577  13.692  1.00  0.00    -0.246 OA
ENDROOT
BRANCH   7  10
HETATM   10  C   UNL     1     -40.779 -52.382  11.728  1.00  0.00     0.240 C 
BRANCH  10  11
HETATM   11  C   UNL     1     -40.635 -50.861  11.796  1.00  0.00     0.236 C 
HETATM   12  O   UNL     1     -39.655 -50.330  12.322  1.00  0.00    -0.272 OA
HETATM   13  N   UNL     1     -41.709 -50.137  11.316  1.00  0.00    -0.355 N 
HETATM   14  H   UNL     1     -42.543 -50.641  11.013  1.00  0.00     0.162 HD
BRANCH  13  15
HETATM   15  C   UNL     1     -41.764 -48.709  11.438  1.00  0.00     0.084 A 
HETATM   16  C   UNL     1     -43.055 -47.948  11.337  1.00  0.00     0.027 A 
HETATM   17  C   UNL     1     -42.044 -47.856  10.232  1.00  0.00     0.027 A 
ENDBRANCH  13  15
ENDBRANCH  10  11
ENDBRANCH   7  10
BRANCH   4  18
HETATM   18  N   UNL     1     -44.578 -52.848  14.758  1.00  0.00    -0.374 N 
HETATM   19  C   UNL     1     -44.772 -51.392  14.916  1.00  0.00     0.123 C 
HETATM   20  C   UNL     1     -45.893 -51.160  15.926  1.00  0.00     0.020 C 
HETATM   21  C   UNL     1     -47.181 -51.859  15.490  1.00  0.00     0.003 C 
HETATM   22  C   UNL     1     -46.933 -53.329  15.140  1.00  0.00     0.020 C 
HETATM   23  C   UNL     1     -45.765 -53.486  14.162  1.00  0.00     0.123 C 
ENDBRANCH   4  18
BRANCH   3  24
HETATM   24  N   UNL     1     -43.037 -54.443  16.443  1.00  0.00    -0.286 NA
HETATM   25  H   UNL     1     -43.849 -55.034  16.300  1.00  0.00     0.125 HD
HETATM   26  H   UNL     1     -42.312 -54.952  16.956  1.00  0.00     0.125 HD
ENDBRANCH   3  24
TORSDOF 5
ENDMDL
MODEL 3
REMARK VINA RESULT:      -5.6      2.274      3.714
REMARK  5 active torsions:
REMARK  status: ('A' for Active; 'I' for Inactive)
REMARK    1  A    between atoms: C_3  and  N_4 
REMARK    2  A    between atoms: C_5  and  N_6 
REMARK    3  A    between atoms: N_14  and  C_15 
REMARK    4  A    between atoms: C_15  and  C_16 
REMARK       I    between atoms: C_16  and  N_18 
REMARK    5  A    between atoms: N_18  and  C_19 
ROOT
HETATM    1  C   UNL     1     -38.989 -53.149  16.012  1.00  0.00     0.162 C 
HETATM    2  N   UNL     1     -39.829 -52.708  14.907  1.00  0.00    -0.292 N 
HETATM    3  C   UNL     1     -41.160 -53.070  14.832  1.00  0.00     0.116 C 
HETATM    4  C   UNL     1     -41.901 -52.694  13.763  1.00  0.00     0.138 C 
HETATM    5  C   UNL     1     -41.178 -52.083  12.600  1.00  0.00     0.282 C 
HETATM    6  O   UNL     1     -41.670 -52.125  11.473  1.00  0.00    -0.265 OA
HETATM    7  N   UNL     1     -39.963 -51.502  12.886  1.00  0.00    -0.255 N 
HETATM    8  C   UNL     1     -39.239 -51.816  14.018  1.00  0.00     0.333 C 
HETATM    9  O   UNL     1     -38.121 -51.325  14.216  1.00  0.00    -0.246 OA
ENDROOT
BRANCH   7  10
HETATM   10  C   UNL     1     -39.323 -50.702  11.851  1.00  0.00     0.240 C 
BRANCH  10  11
HETATM   11  C   UNL     1     -39.938 -49.305  11.749  1.00  0.00     0.236 C 
HETATM   12  O   UNL     1     -39.651 -48.416  12.553  1.00  0.00    -0.272 OA
HETATM   13  N   UNL     1     -40.891 -49.144  10.763  1.00  0.00    -0.355 N 
HETATM   14  H   UNL     1     -41.173 -49.957  10.216  1.00  0.00     0.162 HD
BRANCH  13  15
HETATM   15  C   UNL     1     -41.641 -47.927  10.640  1.00  0.00     0.084 A 
HETATM   16  C   UNL     1     -43.095 -47.844  11.009  1.00  0.00     0.027 A 
HETATM   17  C   UNL     1     -42.685 -47.786   9.567  1.00  0.00     0.027 A 
ENDBRANCH  13  15
ENDBRANCH  10  11
ENDBRANCH   7  10
BRANCH   4  18
HETATM   18  N   UNL     1     -43.308 -52.808  13.724  1.00  0.00    -0.374 N 
HETATM   19  C   UNL     1     -44.096 -51.563  13.622  1.00  0.00     0.123 C 
HETATM   20  C   UNL     1     -45.456 -51.797  14.275  1.00  0.00     0.020 C 
HETATM   21  C   UNL     1     -46.181 -52.980  13.632  1.00  0.00     0.003 C 
HETATM   22  C   UNL     1     -45.284 -54.219  13.565  1.00  0.00     0.020 C 
HETATM   23  C   UNL     1     -43.922 -53.898  12.944  1.00  0.00     0.123 C 
ENDBRANCH   4  18
BRANCH   3  24
HETATM   24  N   UNL     1     -41.801 -53.751  15.868  1.00  0.00    -0.286 NA
HETATM   25  H   UNL     1     -41.201 -53.851  16.679  1.00  0.00     0.125 HD
HETATM   26  H   UNL     1     -42.650 -53.236  16.114  1.00  0.00     0.125 HD
ENDBRANCH   3  24
TORSDOF 5
ENDMDL
MODEL 4
REMARK VINA RESULT:      -5.6      3.809      6.373
REMARK  5 active torsions:
REMARK  status: ('A' for Active; 'I' for Inactive)
REMARK    1  A    between atoms: C_3  and  N_4 
REMARK    2  A    between atoms: C_5  and  N_6 
REMARK    3  A    between atoms: N_14  and  C_15 
REMARK    4  A    between atoms: C_15  and  C_16 
REMARK       I    between atoms: C_16  and  N_18 
REMARK    5  A    between atoms: N_18  and  C_19 
ROOT
HETATM    1  C   UNL     1     -41.877 -56.220  17.036  1.00  0.00     0.162 C 
HETATM    2  N   UNL     1     -41.814 -55.248  15.953  1.00  0.00    -0.292 N 
HETATM    3  C   UNL     1     -42.964 -54.710  15.407  1.00  0.00     0.116 C 
HETATM    4  C   UNL     1     -42.876 -53.853  14.363  1.00  0.00     0.138 C 
HETATM    5  C   UNL     1     -41.537 -53.696  13.706  1.00  0.00     0.282 C 
HETATM    6  O   UNL     1     -41.460 -53.314  12.539  1.00  0.00    -0.265 OA
HETATM    7  N   UNL     1     -40.446 -54.013  14.483  1.00  0.00    -0.255 N 
HETATM    8  C   UNL     1     -40.539 -54.817  15.600  1.00  0.00     0.333 C 
HETATM    9  O   UNL     1     -39.531 -55.136  16.242  1.00  0.00    -0.246 OA
ENDROOT
BRANCH   7  10
HETATM   10  C   UNL     1     -39.121 -53.670  13.983  1.00  0.00     0.240 C 
BRANCH  10  11
HETATM   11  C   UNL     1     -38.833 -52.174  14.110  1.00  0.00     0.236 C 
HETATM   12  O   UNL     1     -38.597 -51.655  15.204  1.00  0.00    -0.272 OA
HETATM   13  N   UNL     1     -38.946 -51.442  12.945  1.00  0.00    -0.355 N 
HETATM   14  H   UNL     1     -39.270 -51.913  12.100  1.00  0.00     0.162 HD
BRANCH  13  15
HETATM   15  C   UNL     1     -38.831 -50.012  12.944  1.00  0.00     0.084 A 
HETATM   16  C   UNL     1     -39.297 -49.174  11.788  1.00  0.00     0.027 A 
HETATM   17  C   UNL     1     -37.829 -49.333  12.054  1.00  0.00     0.027 A 
ENDBRANCH  13  15
ENDBRANCH  10  11
ENDBRANCH   7  10
BRANCH   4  18
HETATM   18  N   UNL     1     -43.966 -53.078  13.910  1.00  0.00    -0.374 N 
HETATM   19  C   UNL     1     -44.008 -51.654  14.302  1.00  0.00     0.123 C 
HETATM   20  C   UNL     1     -45.467 -51.208  14.351  1.00  0.00     0.020 C 
HETATM   21  C   UNL     1     -46.161 -51.446  13.010  1.00  0.00     0.003 C 
HETATM   22  C   UNL     1     -45.949 -52.879  12.513  1.00  0.00     0.020 C 
HETATM   23  C   UNL     1     -44.469 -53.272  12.538  1.00  0.00     0.123 C 
ENDBRANCH   4  18
BRANCH   3  24
HETATM   24  N   UNL     1     -44.225 -54.958  15.948  1.00  0.00    -0.286 NA
HETATM   25  H   UNL     1     -44.928 -54.337  15.563  1.00  0.00     0.125 HD
HETATM   26  H   UNL     1     -44.470 -55.934  15.758  1.00  0.00     0.125 HD
ENDBRANCH   3  24
TORSDOF 5
ENDMDL
MODEL 5
REMARK VINA RESULT:      -5.5      3.041      5.827
REMARK  5 active torsions:
REMARK  status: ('A' for Active; 'I' for Inactive)
REMARK    1  A    between atoms: C_3  and  N_4 
REMARK    2  A    between atoms: C_5  and  N_6 
REMARK    3  A    between atoms: N_14  and  C_15 
REMARK    4  A    between atoms: C_15  and  C_16 
REMARK       I    between atoms: C_16  and  N_18 
REMARK    5  A    between atoms: N_18  and  C_19 
ROOT
HETATM    1  C   UNL     1     -37.540 -50.290  14.646  1.00  0.00     0.162 C 
HETATM    2  N   UNL     1     -38.642 -49.891  13.783  1.00  0.00    -0.292 N 
HETATM    3  C   UNL     1     -38.940 -48.559  13.573  1.00  0.00     0.116 C 
HETATM    4  C   UNL     1     -40.007 -48.219  12.812  1.00  0.00     0.138 C 
HETATM    5  C   UNL     1     -40.949 -49.315  12.410  1.00  0.00     0.282 C 
HETATM    6  O   UNL     1     -42.116 -49.054  12.123  1.00  0.00    -0.265 OA
HETATM    7  N   UNL     1     -40.420 -50.586  12.399  1.00  0.00    -0.255 N 
HETATM    8  C   UNL     1     -39.283 -50.923  13.104  1.00  0.00     0.333 C 
HETATM    9  O   UNL     1     -38.869 -52.088  13.126  1.00  0.00    -0.246 OA
ENDROOT
BRANCH   7  10
HETATM   10  C   UNL     1     -41.213 -51.655  11.807  1.00  0.00     0.240 C 
BRANCH  10  11
HETATM   11  C   UNL     1     -42.285 -52.169  12.769  1.00  0.00     0.236 C 
HETATM   12  O   UNL     1     -42.016 -52.978  13.660  1.00  0.00    -0.272 OA
HETATM   13  N   UNL     1     -43.572 -51.740  12.513  1.00  0.00    -0.355 N 
HETATM   14  H   UNL     1     -43.744 -51.174  11.683  1.00  0.00     0.162 HD
BRANCH  13  15
HETATM   15  C   UNL     1     -44.691 -52.247  13.254  1.00  0.00     0.084 A 
HETATM   16  C   UNL     1     -46.030 -52.485  12.616  1.00  0.00     0.027 A 
HETATM   17  C   UNL     1     -45.853 -51.349  13.580  1.00  0.00     0.027 A 
ENDBRANCH  13  15
ENDBRANCH  10  11
ENDBRANCH   7  10
BRANCH   4  18
HETATM   18  N   UNL     1     -40.235 -46.903  12.350  1.00  0.00    -0.374 N 
HETATM   19  C   UNL     1     -40.254 -46.681  10.890  1.00  0.00     0.123 C 
HETATM   20  C   UNL     1     -39.814 -45.247  10.612  1.00  0.00     0.020 C 
HETATM   21  C   UNL     1     -40.702 -44.245  11.350  1.00  0.00     0.003 C 
HETATM   22  C   UNL     1     -40.835 -44.596  12.834  1.00  0.00     0.020 C 
HETATM   23  C   UNL     1     -41.231 -46.061  13.035  1.00  0.00     0.123 C 
ENDBRANCH   4  18
BRANCH   3  24
HETATM   24  N   UNL     1     -38.125 -47.534  14.056  1.00  0.00    -0.286 NA
HETATM   25  H   UNL     1     -38.620 -46.650  14.099  1.00  0.00     0.125 HD
HETATM   26  H   UNL     1     -37.791 -47.801  14.986  1.00  0.00     0.125 HD
ENDBRANCH   3  24
TORSDOF 5
ENDMDL
MODEL 6
REMARK VINA RESULT:      -5.5      2.082      2.566
REMARK  5 active torsions:
REMARK  status: ('A' for Active; 'I' for Inactive)
REMARK    1  A    between atoms: C_3  and  N_4 
REMARK    2  A    between atoms: C_5  and  N_6 
REMARK    3  A    between atoms: N_14  and  C_15 
REMARK    4  A    between atoms: C_15  and  C_16 
REMARK       I    between atoms: C_16  and  N_18 
REMARK    5  A    between atoms: N_18  and  C_19 
ROOT
HETATM    1  C   UNL     1     -37.588 -49.247  15.482  1.00  0.00     0.162 C 
HETATM    2  N   UNL     1     -38.565 -49.441  14.421  1.00  0.00    -0.292 N 
HETATM    3  C   UNL     1     -39.292 -50.612  14.322  1.00  0.00     0.116 C 
HETATM    4  C   UNL     1     -40.151 -50.787  13.290  1.00  0.00     0.138 C 
HETATM    5  C   UNL     1     -40.112 -49.781  12.178  1.00  0.00     0.282 C 
HETATM    6  O   UNL     1     -40.508 -50.086  11.053  1.00  0.00    -0.265 OA
HETATM    7  N   UNL     1     -39.607 -48.543  12.505  1.00  0.00    -0.255 N 
HETATM    8  C   UNL     1     -38.799 -48.338  13.604  1.00  0.00     0.333 C 
HETATM    9  O   UNL     1     -38.309 -47.227  13.837  1.00  0.00    -0.246 OA
ENDROOT
BRANCH   7  10
HETATM   10  C   UNL     1     -39.750 -47.464  11.537  1.00  0.00     0.240 C 
BRANCH  10  11
HETATM   11  C   UNL     1     -41.218 -47.143  11.254  1.00  0.00     0.236 C 
HETATM   12  O   UNL     1     -41.971 -46.742  12.143  1.00  0.00    -0.272 OA
HETATM   13  N   UNL     1     -41.653 -47.418   9.973  1.00  0.00    -0.355 N 
HETATM   14  H   UNL     1     -41.009 -47.869   9.323  1.00  0.00     0.162 HD
BRANCH  13  15
HETATM   15  C   UNL     1     -43.034 -47.288   9.607  1.00  0.00     0.084 A 
HETATM   16  C   UNL     1     -43.547 -47.709   8.259  1.00  0.00     0.027 A 
HETATM   17  C   UNL     1     -43.458 -46.251   8.605  1.00  0.00     0.027 A 
ENDBRANCH  13  15
ENDBRANCH  10  11
ENDBRANCH   7  10
BRANCH   4  18
HETATM   18  N   UNL     1     -41.100 -51.832  13.248  1.00  0.00    -0.374 N 
HETATM   19  C   UNL     1     -42.526 -51.463  13.136  1.00  0.00     0.123 C 
HETATM   20  C   UNL     1     -43.362 -52.561  13.787  1.00  0.00     0.020 C 
HETATM   21  C   UNL     1     -43.078 -53.922  13.150  1.00  0.00     0.003 C 
HETATM   22  C   UNL     1     -41.576 -54.213  13.093  1.00  0.00     0.020 C 
HETATM   23  C   UNL     1     -40.798 -53.049  12.474  1.00  0.00     0.123 C 
ENDBRANCH   4  18
BRANCH   3  24
HETATM   24  N   UNL     1     -39.232 -51.604  15.301  1.00  0.00    -0.286 NA
HETATM   25  H   UNL     1     -38.285 -51.741  15.639  1.00  0.00     0.125 HD
HETATM   26  H   UNL     1     -39.849 -51.334  16.071  1.00  0.00     0.125 HD
ENDBRANCH   3  24
TORSDOF 5
ENDMDL
MODEL 7
REMARK VINA RESULT:      -5.5      2.416      5.491
REMARK  5 active torsions:
REMARK  status: ('A' for Active; 'I' for Inactive)
REMARK    1  A    between atoms: C_3  and  N_4 
REMARK    2  A    between atoms: C_5  and  N_6 
REMARK    3  A    between atoms: N_14  and  C_15 
REMARK    4  A    between atoms: C_15  and  C_16 
REMARK       I    between atoms: C_16  and  N_18 
REMARK    5  A    between atoms: N_18  and  C_19 
ROOT
HETATM    1  C   UNL     1     -37.339 -51.201  12.362  1.00  0.00     0.162 C 
HETATM    2  N   UNL     1     -38.701 -50.773  12.644  1.00  0.00    -0.292 N 
HETATM    3  C   UNL     1     -39.208 -49.603  12.111  1.00  0.00     0.116 C 
HETATM    4  C   UNL     1     -40.459 -49.201  12.437  1.00  0.00     0.138 C 
HETATM    5  C   UNL     1     -41.158 -49.939  13.540  1.00  0.00     0.282 C 
HETATM    6  O   UNL     1     -42.058 -49.393  14.178  1.00  0.00    -0.265 OA
HETATM    7  N   UNL     1     -40.720 -51.222  13.776  1.00  0.00    -0.255 N 
HETATM    8  C   UNL     1     -39.478 -51.669  13.372  1.00  0.00     0.333 C 
HETATM    9  O   UNL     1     -39.088 -52.808  13.654  1.00  0.00    -0.246 OA
ENDROOT
BRANCH   7  10
HETATM   10  C   UNL     1     -41.501 -52.062  14.674  1.00  0.00     0.240 C 
BRANCH  10  11
HETATM   11  C   UNL     1     -42.801 -52.536  14.023  1.00  0.00     0.236 C 
HETATM   12  O   UNL     1     -42.795 -53.226  13.001  1.00  0.00    -0.272 OA
HETATM   13  N   UNL     1     -43.964 -52.066  14.601  1.00  0.00    -0.355 N 
HETATM   14  H   UNL     1     -43.895 -51.396  15.367  1.00  0.00     0.162 HD
BRANCH  13  15
HETATM   15  C   UNL     1     -45.248 -52.326  14.016  1.00  0.00     0.084 A 
HETATM   16  C   UNL     1     -45.860 -51.409  12.995  1.00  0.00     0.027 A 
HETATM   17  C   UNL     1     -46.433 -51.475  14.381  1.00  0.00     0.027 A 
ENDBRANCH  13  15
ENDBRANCH  10  11
ENDBRANCH   7  10
BRANCH   4  18
HETATM   18  N   UNL     1     -41.136 -48.165  11.757  1.00  0.00    -0.374 N 
HETATM   19  C   UNL     1     -42.412 -48.498  11.092  1.00  0.00     0.123 C 
HETATM   20  C   UNL     1     -42.603 -47.551   9.910  1.00  0.00     0.020 C 
HETATM   21  C   UNL     1     -42.564 -46.091  10.361  1.00  0.00     0.003 C 
HETATM   22  C   UNL     1     -41.329 -45.800  11.219  1.00  0.00     0.020 C 
HETATM   23  C   UNL     1     -41.176 -46.817  12.352  1.00  0.00     0.123 C 
ENDBRANCH   4  18
BRANCH   3  24
HETATM   24  N   UNL     1     -38.500 -48.850  11.174  1.00  0.00    -0.286 NA
HETATM   25  H   UNL     1     -37.840 -49.420  10.655  1.00  0.00     0.125 HD
HETATM   26  H   UNL     1     -39.173 -48.415  10.537  1.00  0.00     0.125 HD
ENDBRANCH   3  24
TORSDOF 5
ENDMDL
MODEL 8
REMARK VINA RESULT:      -5.4      3.522      5.667
REMARK  5 active torsions:
REMARK  status: ('A' for Active; 'I' for Inactive)
REMARK    1  A    between atoms: C_3  and  N_4 
REMARK    2  A    between atoms: C_5  and  N_6 
REMARK    3  A    between atoms: N_14  and  C_15 
REMARK    4  A    between atoms: C_15  and  C_16 
REMARK       I    between atoms: C_16  and  N_18 
REMARK    5  A    between atoms: N_18  and  C_19 
ROOT
HETATM    1  C   UNL     1     -43.831 -47.703  10.091  1.00  0.00     0.162 C 
HETATM    2  N   UNL     1     -42.501 -47.390  10.591  1.00  0.00    -0.292 N 
HETATM    3  C   UNL     1     -41.816 -48.273  11.403  1.00  0.00     0.116 C 
HETATM    4  C   UNL     1     -40.604 -47.930  11.901  1.00  0.00     0.138 C 
HETATM    5  C   UNL     1     -40.158 -46.509  11.720  1.00  0.00     0.282 C 
HETATM    6  O   UNL     1     -39.330 -46.018  12.486  1.00  0.00    -0.265 OA
HETATM    7  N   UNL     1     -40.737 -45.827  10.675  1.00  0.00    -0.255 N 
HETATM    8  C   UNL     1     -41.931 -46.218  10.103  1.00  0.00     0.333 C 
HETATM    9  O   UNL     1     -42.458 -45.548   9.207  1.00  0.00    -0.246 OA
ENDROOT
BRANCH   7  10
HETATM   10  C   UNL     1     -40.186 -44.528  10.312  1.00  0.00     0.240 C 
BRANCH  10  11
HETATM   11  C   UNL     1     -40.828 -43.393  11.111  1.00  0.00     0.236 C 
HETATM   12  O   UNL     1     -41.920 -42.918  10.790  1.00  0.00    -0.272 OA
HETATM   13  N   UNL     1     -40.066 -42.886  12.145  1.00  0.00    -0.355 N 
HETATM   14  H   UNL     1     -39.119 -43.239  12.275  1.00  0.00     0.162 HD
BRANCH  13  15
HETATM   15  C   UNL     1     -40.489 -41.736  12.892  1.00  0.00     0.084 A 
HETATM   16  C   UNL     1     -40.395 -40.344  12.336  1.00  0.00     0.027 A 
HETATM   17  C   UNL     1     -39.474 -40.773  13.439  1.00  0.00     0.027 A 
ENDBRANCH  13  15
ENDBRANCH  10  11
ENDBRANCH   7  10
BRANCH   4  18
HETATM   18  N   UNL     1     -39.740 -48.855  12.528  1.00  0.00    -0.374 N 
HETATM   19  C   UNL     1     -38.438 -49.124  11.884  1.00  0.00     0.123 C 
HETATM   20  C   UNL     1     -38.002 -50.541  12.247  1.00  0.00     0.020 C 
HETATM   21  C   UNL     1     -37.933 -50.725  13.764  1.00  0.00     0.003 C 
HETATM   22  C   UNL     1     -39.222 -50.259  14.446  1.00  0.00     0.020 C 
HETATM   23  C   UNL     1     -39.622 -48.851  13.996  1.00  0.00     0.123 C 
ENDBRANCH   4  18
BRANCH   3  24
HETATM   24  N   UNL     1     -42.296 -49.555  11.671  1.00  0.00    -0.286 NA
HETATM   25  H   UNL     1     -41.578 -50.260  11.541  1.00  0.00     0.125 HD
HETATM   26  H   UNL     1     -42.643 -49.574  12.634  1.00  0.00     0.125 HD
ENDBRANCH   3  24
TORSDOF 5
ENDMDL
MODEL 9
REMARK VINA RESULT:      -5.4      3.186      5.518
REMARK  5 active torsions:
REMARK  status: ('A' for Active; 'I' for Inactive)
REMARK    1  A    between atoms: C_3  and  N_4 
REMARK    2  A    between atoms: C_5  and  N_6 
REMARK    3  A    between atoms: N_14  and  C_15 
REMARK    4  A    between atoms: C_15  and  C_16 
REMARK       I    between atoms: C_16  and  N_18 
REMARK    5  A    between atoms: N_18  and  C_19 
ROOT
HETATM    1  C   UNL     1     -40.112 -54.491  13.524  1.00  0.00     0.162 C 
HETATM    2  N   UNL     1     -40.837 -53.232  13.430  1.00  0.00    -0.292 N 
HETATM    3  C   UNL     1     -42.196 -53.169  13.674  1.00  0.00     0.116 C 
HETATM    4  C   UNL     1     -42.854 -51.996  13.522  1.00  0.00     0.138 C 
HETATM    5  C   UNL     1     -42.110 -50.862  12.881  1.00  0.00     0.282 C 
HETATM    6  O   UNL     1     -42.725 -49.956  12.320  1.00  0.00    -0.265 OA
HETATM    7  N   UNL     1     -40.737 -50.923  12.962  1.00  0.00    -0.255 N 
HETATM    8  C   UNL     1     -40.059 -52.101  13.202  1.00  0.00     0.333 C 
HETATM    9  O   UNL     1     -38.823 -52.135  13.206  1.00  0.00    -0.246 OA
ENDROOT
BRANCH   7  10
HETATM   10  C   UNL     1     -39.971 -49.751  12.561  1.00  0.00     0.240 C 
BRANCH  10  11
HETATM   11  C   UNL     1     -39.535 -48.915  13.765  1.00  0.00     0.236 C 
HETATM   12  O   UNL     1     -40.111 -47.867  14.063  1.00  0.00    -0.272 OA
HETATM   13  N   UNL     1     -38.410 -49.365  14.427  1.00  0.00    -0.355 N 
HETATM   14  H   UNL     1     -37.907 -50.168  14.050  1.00  0.00     0.162 HD
BRANCH  13  15
HETATM   15  C   UNL     1     -37.815 -48.608  15.491  1.00  0.00     0.084 A 
HETATM   16  C   UNL     1     -36.658 -47.679  15.260  1.00  0.00     0.027 A 
HETATM   17  C   UNL     1     -36.447 -48.965  16.002  1.00  0.00     0.027 A 
ENDBRANCH  13  15
ENDBRANCH  10  11
ENDBRANCH   7  10
BRANCH   4  18
HETATM   18  N   UNL     1     -44.174 -51.789  13.981  1.00  0.00    -0.374 N 
HETATM   19  C   UNL     1     -44.389 -50.751  15.010  1.00  0.00     0.123 C 
HETATM   20  C   UNL     1     -45.612 -51.136  15.837  1.00  0.00     0.020 C 
HETATM   21  C   UNL     1     -46.844 -51.317  14.949  1.00  0.00     0.003 C 
HETATM   22  C   UNL     1     -46.554 -52.248  13.769  1.00  0.00     0.020 C 
HETATM   23  C   UNL     1     -45.287 -51.829  13.017  1.00  0.00     0.123 C 
ENDBRANCH   4  18
BRANCH   3  24
HETATM   24  N   UNL     1     -42.912 -54.266  14.155  1.00  0.00    -0.286 NA
HETATM   25  H   UNL     1     -42.389 -55.129  14.055  1.00  0.00     0.125 HD
HETATM   26  H   UNL     1     -43.137 -54.097  15.139  1.00  0.00     0.125 HD
ENDBRANCH   3  24
TORSDOF 5
ENDMDL
