MODEL 1
REMARK VINA RESULT:      -5.3      0.000      0.000
REMARK  3 active torsions:
REMARK  status: ('A' for Active; 'I' for Inactive)
REMARK    1  A    between atoms: O_1  and  C_2 
REMARK    2  A    between atoms: C_2  and  CA_4 
REMARK    3  A    between atoms: C_6  and  N_11 
ROOT
HETATM    1  CA  UNL     1     -45.059 -53.051  13.330  1.00  0.00     0.108 A 
HETATM    2  C   UNL     1     -43.790 -52.917  12.770  1.00  0.00     0.066 A 
HETATM    3  C   UNL     1     -42.726 -53.684  13.259  1.00  0.00     0.034 A 
HETATM    4  C   UNL     1     -43.047 -54.526  14.337  1.00  0.00     0.046 A 
HETATM    5  C   UNL     1     -44.344 -54.603  14.835  1.00  0.00     0.091 A 
HETATM    6  N   UNL     1     -45.376 -53.890  14.353  1.00  0.00    -0.360 N 
ATOM      7  HN  UNL     1     -46.322 -53.971  14.725  1.00  0.00     0.165 HD
ENDROOT
BRANCH   3   8
HETATM    8  N   UNL     1     -41.434 -53.584  12.763  1.00  0.00    -0.377 N 
HETATM    9  C   UNL     1     -40.261 -54.210  13.416  1.00  0.00     0.149 C 
HETATM   10  C   UNL     1     -39.422 -53.144  14.139  1.00  0.00     0.187 C 
HETATM   11  O   UNL     1     -38.999 -52.111  13.231  1.00  0.00    -0.388 OA
HETATM   12  C   UNL     1     -40.139 -51.476  12.628  1.00  0.00     0.187 C 
HETATM   13  C   UNL     1     -41.013 -52.485  11.863  1.00  0.00     0.149 C 
ENDBRANCH   3   8
BRANCH   1  14
HETATM   14  C   UNL     1     -46.198 -52.241  12.806  1.00  0.00     0.193 C 
HETATM   15  OXT UNL     1     -46.777 -51.364  13.421  1.00  0.00    -0.645 OA
BRANCH  14  16
HETATM   16  O   UNL     1     -46.497 -52.617  11.538  1.00  0.00    -0.772 OA
HETATM   17  H   UNL     1     -47.151 -51.975  11.170  1.00  0.00     0.167 HD
ENDBRANCH  14  16
ENDBRANCH   1  14
TORSDOF 3
ENDMDL
MODEL 2
REMARK VINA RESULT:      -5.3      1.649      5.508
REMARK  3 active torsions:
REMARK  status: ('A' for Active; 'I' for Inactive)
REMARK    1  A    between atoms: O_1  and  C_2 
REMARK    2  A    between atoms: C_2  and  CA_4 
REMARK    3  A    between atoms: C_6  and  N_11 
ROOT
HETATM    1  CA  UNL     1     -40.666 -54.325  14.355  1.00  0.00     0.108 A 
HETATM    2  C   UNL     1     -41.832 -54.108  13.624  1.00  0.00     0.066 A 
HETATM    3  C   UNL     1     -43.071 -54.479  14.159  1.00  0.00     0.034 A 
HETATM    4  C   UNL     1     -43.014 -55.092  15.422  1.00  0.00     0.046 A 
HETATM    5  C   UNL     1     -41.804 -55.269  16.087  1.00  0.00     0.091 A 
HETATM    6  N   UNL     1     -40.614 -54.890  15.591  1.00  0.00    -0.360 N 
ATOM      7  HN  UNL     1     -39.740 -55.017  16.101  1.00  0.00     0.165 HD
ENDROOT
BRANCH   3   8
HETATM    8  N   UNL     1     -44.268 -54.313  13.477  1.00  0.00    -0.377 N 
HETATM    9  C   UNL     1     -44.512 -53.213  12.515  1.00  0.00     0.149 C 
HETATM   10  C   UNL     1     -45.418 -52.143  13.147  1.00  0.00     0.187 C 
HETATM   11  O   UNL     1     -46.665 -52.712  13.585  1.00  0.00    -0.388 OA
HETATM   12  C   UNL     1     -46.431 -53.752  14.549  1.00  0.00     0.187 C 
HETATM   13  C   UNL     1     -45.547 -54.872  13.974  1.00  0.00     0.149 C 
ENDBRANCH   3   8
BRANCH   1  14
HETATM   14  C   UNL     1     -39.344 -53.924  13.791  1.00  0.00     0.193 C 
HETATM   15  OXT UNL     1     -38.938 -52.779  13.700  1.00  0.00    -0.645 OA
BRANCH  14  16
HETATM   16  O   UNL     1     -38.650 -55.020  13.395  1.00  0.00    -0.772 OA
HETATM   17  H   UNL     1     -37.686 -54.827  13.487  1.00  0.00     0.167 HD
ENDBRANCH  14  16
ENDBRANCH   1  14
TORSDOF 3
ENDMDL
MODEL 3
REMARK VINA RESULT:      -5.3      6.041      7.055
REMARK  3 active torsions:
REMARK  status: ('A' for Active; 'I' for Inactive)
REMARK    1  A    between atoms: O_1  and  C_2 
REMARK    2  A    between atoms: C_2  and  CA_4 
REMARK    3  A    between atoms: C_6  and  N_11 
ROOT
HETATM    1  CA  UNL     1     -45.251 -47.104   9.085  1.00  0.00     0.108 A 
HETATM    2  C   UNL     1     -44.196 -47.779   9.695  1.00  0.00     0.066 A 
HETATM    3  C   UNL     1     -43.054 -47.075  10.095  1.00  0.00     0.034 A 
HETATM    4  C   UNL     1     -43.068 -45.701   9.799  1.00  0.00     0.046 A 
HETATM    5  C   UNL     1     -44.168 -45.104   9.189  1.00  0.00     0.091 A 
HETATM    6  N   UNL     1     -45.278 -45.769   8.827  1.00  0.00    -0.360 N 
ATOM      7  HN  UNL     1     -46.078 -45.309   8.393  1.00  0.00     0.165 HD
ENDROOT
BRANCH   3   8
HETATM    8  N   UNL     1     -41.958 -47.687  10.687  1.00  0.00    -0.377 N 
HETATM    9  C   UNL     1     -42.057 -48.913  11.513  1.00  0.00     0.149 C 
HETATM   10  C   UNL     1     -41.908 -48.563  13.003  1.00  0.00     0.187 C 
HETATM   11  O   UNL     1     -40.663 -47.887  13.256  1.00  0.00    -0.388 OA
HETATM   12  C   UNL     1     -40.584 -46.677  12.485  1.00  0.00     0.187 C 
HETATM   13  C   UNL     1     -40.702 -46.955  10.976  1.00  0.00     0.149 C 
ENDBRANCH   3   8
BRANCH   1  14
HETATM   14  C   UNL     1     -46.473 -47.851   8.665  1.00  0.00     0.193 C 
HETATM   15  OXT UNL     1     -46.479 -48.859   7.983  1.00  0.00    -0.645 OA
BRANCH  14  16
HETATM   16  O   UNL     1     -47.584 -47.247   9.156  1.00  0.00    -0.772 OA
HETATM   17  H   UNL     1     -47.596 -47.369  10.135  1.00  0.00     0.167 HD
ENDBRANCH  14  16
ENDBRANCH   1  14
TORSDOF 3
ENDMDL
MODEL 4
REMARK VINA RESULT:      -5.2      1.665      5.716
REMARK  3 active torsions:
REMARK  status: ('A' for Active; 'I' for Inactive)
REMARK    1  A    between atoms: O_1  and  C_2 
REMARK    2  A    between atoms: C_2  and  CA_4 
REMARK    3  A    between atoms: C_6  and  N_11 
ROOT
HETATM    1  CA  UNL     1     -40.880 -53.793  13.510  1.00  0.00     0.108 A 
HETATM    2  C   UNL     1     -42.212 -54.193  13.569  1.00  0.00     0.066 A 
HETATM    3  C   UNL     1     -43.195 -53.449  12.907  1.00  0.00     0.034 A 
HETATM    4  C   UNL     1     -42.728 -52.300  12.247  1.00  0.00     0.046 A 
HETATM    5  C   UNL     1     -41.375 -51.973  12.235  1.00  0.00     0.091 A 
HETATM    6  N   UNL     1     -40.422 -52.698  12.845  1.00  0.00    -0.360 N 
ATOM      7  HN  UNL     1     -39.434 -52.447  12.812  1.00  0.00     0.165 HD
ENDROOT
BRANCH   3   8
HETATM    8  N   UNL     1     -44.543 -53.778  12.942  1.00  0.00    -0.377 N 
HETATM    9  C   UNL     1     -45.622 -52.837  12.561  1.00  0.00     0.149 C 
HETATM   10  C   UNL     1     -46.335 -52.308  13.816  1.00  0.00     0.187 C 
HETATM   11  O   UNL     1     -46.866 -53.387  14.606  1.00  0.00    -0.388 OA
HETATM   12  C   UNL     1     -45.814 -54.278  15.010  1.00  0.00     0.187 C 
HETATM   13  C   UNL     1     -45.070 -54.867  13.799  1.00  0.00     0.149 C 
ENDBRANCH   3   8
BRANCH   1  14
HETATM   14  C   UNL     1     -39.827 -54.589  14.209  1.00  0.00     0.193 C 
HETATM   15  OXT UNL     1     -39.891 -54.978  15.360  1.00  0.00    -0.645 OA
BRANCH  14  16
HETATM   16  O   UNL     1     -38.784 -54.822  13.374  1.00  0.00    -0.772 OA
HETATM   17  H   UNL     1     -38.007 -54.305  13.697  1.00  0.00     0.167 HD
ENDBRANCH  14  16
ENDBRANCH   1  14
TORSDOF 3
ENDMDL
MODEL 5
REMARK VINA RESULT:      -5.2      4.569      6.582
REMARK  3 active torsions:
REMARK  status: ('A' for Active; 'I' for Inactive)
REMARK    1  A    between atoms: O_1  and  C_2 
REMARK    2  A    between atoms: C_2  and  CA_4 
REMARK    3  A    between atoms: C_6  and  N_11 
ROOT
HETATM    1  CA  UNL     1     -40.715 -50.950  11.864  1.00  0.00     0.108 A 
HETATM    2  C   UNL     1     -41.449 -49.768  11.816  1.00  0.00     0.066 A 
HETATM    3  C   UNL     1     -40.787 -48.535  11.800  1.00  0.00     0.034 A 
HETATM    4  C   UNL     1     -39.386 -48.611  11.874  1.00  0.00     0.046 A 
HETATM    5  C   UNL     1     -38.729 -49.838  11.916  1.00  0.00     0.091 A 
HETATM    6  N   UNL     1     -39.358 -51.026  11.904  1.00  0.00    -0.360 N 
ATOM      7  HN  UNL     1     -38.856 -51.913  11.922  1.00  0.00     0.165 HD
ENDROOT
BRANCH   3   8
HETATM    8  N   UNL     1     -41.456 -47.319  11.775  1.00  0.00    -0.377 N 
HETATM    9  C   UNL     1     -42.805 -47.143  11.189  1.00  0.00     0.149 C 
HETATM   10  C   UNL     1     -42.706 -46.433   9.829  1.00  0.00     0.187 C 
HETATM   11  O   UNL     1     -42.043 -45.162   9.954  1.00  0.00    -0.388 OA
HETATM   12  C   UNL     1     -40.719 -45.336  10.484  1.00  0.00     0.187 C 
HETATM   13  C   UNL     1     -40.744 -46.022  11.861  1.00  0.00     0.149 C 
ENDBRANCH   3   8
BRANCH   1  14
HETATM   14  C   UNL     1     -41.418 -52.268  11.873  1.00  0.00     0.193 C 
HETATM   15  OXT UNL     1     -42.568 -52.447  12.228  1.00  0.00    -0.645 OA
BRANCH  14  16
HETATM   16  O   UNL     1     -40.591 -53.244  11.422  1.00  0.00    -0.772 OA
HETATM   17  H   UNL     1     -40.944 -53.576  10.562  1.00  0.00     0.167 HD
ENDBRANCH  14  16
ENDBRANCH   1  14
TORSDOF 3
ENDMDL
MODEL 6
REMARK VINA RESULT:      -5.0      1.553      5.272
REMARK  3 active torsions:
REMARK  status: ('A' for Active; 'I' for Inactive)
REMARK    1  A    between atoms: O_1  and  C_2 
REMARK    2  A    between atoms: C_2  and  CA_4 
REMARK    3  A    between atoms: C_6  and  N_11 
ROOT
HETATM    1  CA  UNL     1     -41.364 -52.260  12.589  1.00  0.00     0.108 A 
HETATM    2  C   UNL     1     -42.744 -52.416  12.486  1.00  0.00     0.066 A 
HETATM    3  C   UNL     1     -43.372 -53.503  13.106  1.00  0.00     0.034 A 
HETATM    4  C   UNL     1     -42.508 -54.389  13.771  1.00  0.00     0.046 A 
HETATM    5  C   UNL     1     -41.137 -54.156  13.829  1.00  0.00     0.091 A 
HETATM    6  N   UNL     1     -40.531 -53.100  13.260  1.00  0.00    -0.360 N 
ATOM      7  HN  UNL     1     -39.526 -52.941  13.326  1.00  0.00     0.165 HD
ENDROOT
BRANCH   3   8
HETATM    8  N   UNL     1     -44.738 -53.731  13.025  1.00  0.00    -0.377 N 
HETATM    9  C   UNL     1     -45.720 -52.682  12.666  1.00  0.00     0.149 C 
HETATM   10  C   UNL     1     -46.481 -52.214  13.918  1.00  0.00     0.187 C 
HETATM   11  O   UNL     1     -47.140 -53.316  14.567  1.00  0.00    -0.388 OA
HETATM   12  C   UNL     1     -46.182 -54.316  14.952  1.00  0.00     0.187 C 
HETATM   13  C   UNL     1     -45.398 -54.849  13.741  1.00  0.00     0.149 C 
ENDBRANCH   3   8
BRANCH   1  14
HETATM   14  C   UNL     1     -40.692 -51.097  11.937  1.00  0.00     0.193 C 
HETATM   15  OXT UNL     1     -41.245 -50.068  11.595  1.00  0.00    -0.645 OA
BRANCH  14  16
HETATM   16  O   UNL     1     -39.368 -51.348  11.780  1.00  0.00    -0.772 OA
HETATM   17  H   UNL     1     -39.270 -52.176  11.252  1.00  0.00     0.167 HD
ENDBRANCH  14  16
ENDBRANCH   1  14
TORSDOF 3
ENDMDL
MODEL 7
REMARK VINA RESULT:      -5.0      4.751      6.386
REMARK  3 active torsions:
REMARK  status: ('A' for Active; 'I' for Inactive)
REMARK    1  A    between atoms: O_1  and  C_2 
REMARK    2  A    between atoms: C_2  and  CA_4 
REMARK    3  A    between atoms: C_6  and  N_11 
ROOT
HETATM    1  CA  UNL     1     -42.185 -47.313  10.075  1.00  0.00     0.108 A 
HETATM    2  C   UNL     1     -41.617 -48.249  10.936  1.00  0.00     0.066 A 
HETATM    3  C   UNL     1     -40.464 -47.923  11.659  1.00  0.00     0.034 A 
HETATM    4  C   UNL     1     -39.948 -46.640  11.410  1.00  0.00     0.046 A 
HETATM    5  C   UNL     1     -40.582 -45.763  10.534  1.00  0.00     0.091 A 
HETATM    6  N   UNL     1     -41.704 -46.059   9.857  1.00  0.00    -0.360 N 
ATOM      7  HN  UNL     1     -42.159 -45.396   9.230  1.00  0.00     0.165 HD
ENDROOT
BRANCH   3   8
HETATM    8  N   UNL     1     -39.834 -48.814  12.516  1.00  0.00    -0.377 N 
HETATM    9  C   UNL     1     -38.363 -48.983  12.579  1.00  0.00     0.149 C 
HETATM   10  C   UNL     1     -37.947 -50.290  11.884  1.00  0.00     0.187 C 
HETATM   11  O   UNL     1     -38.608 -51.424  12.473  1.00  0.00    -0.388 OA
HETATM   12  C   UNL     1     -40.035 -51.280  12.375  1.00  0.00     0.187 C 
HETATM   13  C   UNL     1     -40.526 -50.000  13.074  1.00  0.00     0.149 C 
ENDBRANCH   3   8
BRANCH   1  14
HETATM   14  C   UNL     1     -43.420 -47.653   9.308  1.00  0.00     0.193 C 
HETATM   15  OXT UNL     1     -43.523 -47.624   8.095  1.00  0.00    -0.645 OA
BRANCH  14  16
HETATM   16  O   UNL     1     -44.417 -48.007  10.156  1.00  0.00    -0.772 OA
HETATM   17  H   UNL     1     -45.280 -47.850   9.703  1.00  0.00     0.167 HD
ENDBRANCH  14  16
ENDBRANCH   1  14
TORSDOF 3
ENDMDL
MODEL 8
REMARK VINA RESULT:      -4.9      5.177      7.533
REMARK  3 active torsions:
REMARK  status: ('A' for Active; 'I' for Inactive)
REMARK    1  A    between atoms: O_1  and  C_2 
REMARK    2  A    between atoms: C_2  and  CA_4 
REMARK    3  A    between atoms: C_6  and  N_11 
ROOT
HETATM    1  CA  UNL     1     -39.066 -50.084  11.683  1.00  0.00     0.108 A 
HETATM    2  C   UNL     1     -39.342 -48.719  11.731  1.00  0.00     0.066 A 
HETATM    3  C   UNL     1     -40.656 -48.279  11.925  1.00  0.00     0.034 A 
HETATM    4  C   UNL     1     -41.617 -49.299  12.022  1.00  0.00     0.046 A 
HETATM    5  C   UNL     1     -41.254 -50.642  11.967  1.00  0.00     0.091 A 
HETATM    6  N   UNL     1     -39.991 -51.072  11.809  1.00  0.00    -0.360 N 
ATOM      7  HN  UNL     1     -39.746 -52.062  11.785  1.00  0.00     0.165 HD
ENDROOT
BRANCH   3   8
HETATM    8  N   UNL     1     -41.005 -46.936  11.960  1.00  0.00    -0.377 N 
HETATM    9  C   UNL     1     -42.351 -46.434  11.600  1.00  0.00     0.149 C 
HETATM   10  C   UNL     1     -42.319 -45.770  10.213  1.00  0.00     0.187 C 
HETATM   11  O   UNL     1     -41.357 -44.701  10.172  1.00  0.00    -0.388 OA
HETATM   12  C   UNL     1     -40.044 -45.195  10.481  1.00  0.00     0.187 C 
HETATM   13  C   UNL     1     -39.997 -45.853  11.871  1.00  0.00     0.149 C 
ENDBRANCH   3   8
BRANCH   1  14
HETATM   14  C   UNL     1     -37.664 -50.557  11.485  1.00  0.00     0.193 C 
HETATM   15  OXT UNL     1     -37.041 -51.253  12.266  1.00  0.00    -0.645 OA
BRANCH  14  16
HETATM   16  O   UNL     1     -37.178 -50.104  10.302  1.00  0.00    -0.772 OA
HETATM   17  H   UNL     1     -36.195 -50.191  10.317  1.00  0.00     0.167 HD
ENDBRANCH  14  16
ENDBRANCH   1  14
TORSDOF 3
ENDMDL
MODEL 9
REMARK VINA RESULT:      -4.9      6.814      8.538
REMARK  3 active torsions:
REMARK  status: ('A' for Active; 'I' for Inactive)
REMARK    1  A    between atoms: O_1  and  C_2 
REMARK    2  A    between atoms: C_2  and  CA_4 
REMARK    3  A    between atoms: C_6  and  N_11 
ROOT
HETATM    1  CA  UNL     1     -41.443 -48.009  10.731  1.00  0.00     0.108 A 
HETATM    2  C   UNL     1     -41.120 -46.708  11.110  1.00  0.00     0.066 A 
HETATM    3  C   UNL     1     -41.885 -45.633  10.640  1.00  0.00     0.034 A 
HETATM    4  C   UNL     1     -42.928 -45.983   9.766  1.00  0.00     0.046 A 
HETATM    5  C   UNL     1     -43.185 -47.312   9.441  1.00  0.00     0.091 A 
HETATM    6  N   UNL     1     -42.472 -48.350   9.910  1.00  0.00    -0.360 N 
ATOM      7  HN  UNL     1     -42.687 -49.318   9.670  1.00  0.00     0.165 HD
ENDROOT
BRANCH   3   8
HETATM    8  N   UNL     1     -41.605 -44.312  10.958  1.00  0.00    -0.377 N 
HETATM    9  C   UNL     1     -40.293 -43.858  11.475  1.00  0.00     0.149 C 
HETATM   10  C   UNL     1     -40.385 -43.573  12.983  1.00  0.00     0.187 C 
HETATM   11  O   UNL     1     -41.401 -42.595  13.267  1.00  0.00    -0.388 OA
HETATM   12  C   UNL     1     -42.682 -43.053  12.802  1.00  0.00     0.187 C 
HETATM   13  C   UNL     1     -42.670 -43.335  11.289  1.00  0.00     0.149 C 
ENDBRANCH   3   8
BRANCH   1  14
HETATM   14  C   UNL     1     -40.635 -49.158  11.237  1.00  0.00     0.193 C 
HETATM   15  OXT UNL     1     -40.255 -49.296  12.385  1.00  0.00    -0.645 OA
BRANCH  14  16
HETATM   16  O   UNL     1     -40.385 -50.034  10.232  1.00  0.00    -0.772 OA
HETATM   17  H   UNL     1     -41.221 -50.517  10.027  1.00  0.00     0.167 HD
ENDBRANCH  14  16
ENDBRANCH   1  14
TORSDOF 3
ENDMDL
