MODEL 1
REMARK VINA RESULT:      -5.7      0.000      0.000
REMARK  6 active torsions:
REMARK  status: ('A' for Active; 'I' for Inactive)
REMARK    1  A    between atoms: O_2  and  C_3 
REMARK    2  A    between atoms: C_3  and  C_4 
REMARK    3  A    between atoms: C_8  and  C_9 
REMARK    4  A    between atoms: C_9  and  C_10 
REMARK    5  A    between atoms: C_10  and  N_12 
REMARK       I    between atoms: N_12  and  C_13 
REMARK    6  A    between atoms: C_13  and  C_15 
ROOT
HETATM    1  C   UNL     1     -40.758 -54.194  13.281  1.00  0.00     0.111 C 
ENDROOT
BRANCH   1   2
HETATM    2  C   UNL     1     -40.620 -52.825  12.728  1.00  0.00     0.150 A 
HETATM    3  O   UNL     1     -41.441 -52.490  11.690  1.00  0.00    -0.223 OA
HETATM    4  N   UNL     1     -41.126 -51.174  11.345  1.00  0.00    -0.245 N 
HETATM    5  C   UNL     1     -40.154 -50.852  12.211  1.00  0.00     0.127 A 
ATOM      6  HN  UNL     1     -41.537 -50.597  10.611  1.00  0.00     0.196 HD
HETATM    7  N   UNL     1     -39.813 -51.854  13.088  1.00  0.00    -0.325 N 
ATOM      8  HN  UNL     1     -39.112 -51.845  13.830  1.00  0.00     0.169 HD
BRANCH   5   9
HETATM    9  C   UNL     1     -39.463 -49.529  12.175  1.00  0.00     0.245 C 
BRANCH   9  10
HETATM   10  O   UNL     1     -38.037 -49.600  12.354  1.00  0.00    -0.389 OA
HETATM   11  C   UNL     1     -37.357 -49.966  11.160  1.00  0.00     0.202 C 
ENDBRANCH   9  10
ENDBRANCH   5   9
ENDBRANCH   1   2
BRANCH   1  12
HETATM   12  C   UNL     1     -41.778 -54.267  14.437  1.00  0.00     0.087 C 
HETATM   13  C   UNL     1     -41.270 -53.539  15.687  1.00  0.00     0.032 C 
BRANCH  12  14
HETATM   14  N   UNL     1     -43.084 -53.707  14.056  1.00  0.00    -0.356 N 
HETATM   15  C   UNL     1     -44.264 -54.390  14.278  1.00  0.00     0.222 C 
HETATM   16  O   UNL     1     -44.290 -55.537  14.711  1.00  0.00    -0.273 OA
HETATM   17  H   UNL     1     -43.138 -52.729  13.797  1.00  0.00     0.162 HD
BRANCH  15  18
HETATM   18  C   UNL     1     -45.516 -53.600  13.927  1.00  0.00     0.078 C 
HETATM   19  C   UNL     1     -45.351 -52.798  12.631  1.00  0.00     0.014 C 
HETATM   20  C   UNL     1     -45.945 -51.413  12.887  1.00  0.00     0.001 C 
HETATM   21  C   UNL     1     -46.669 -51.510  14.219  1.00  0.00     0.001 C 
HETATM   22  C   UNL     1     -45.874 -52.551  14.986  1.00  0.00     0.014 C 
ENDBRANCH  15  18
ENDBRANCH  12  14
ENDBRANCH   1  12
TORSDOF 6
ENDMDL
MODEL 2
REMARK VINA RESULT:      -5.7      1.968      2.398
REMARK  6 active torsions:
REMARK  status: ('A' for Active; 'I' for Inactive)
REMARK    1  A    between atoms: O_2  and  C_3 
REMARK    2  A    between atoms: C_3  and  C_4 
REMARK    3  A    between atoms: C_8  and  C_9 
REMARK    4  A    between atoms: C_9  and  C_10 
REMARK    5  A    between atoms: C_10  and  N_12 
REMARK       I    between atoms: N_12  and  C_13 
REMARK    6  A    between atoms: C_13  and  C_15 
ROOT
HETATM    1  C   UNL     1     -40.900 -53.724  12.665  1.00  0.00     0.111 C 
ENDROOT
BRANCH   1   2
HETATM    2  C   UNL     1     -40.896 -52.253  12.470  1.00  0.00     0.150 A 
HETATM    3  O   UNL     1     -40.824 -51.479  13.592  1.00  0.00    -0.223 OA
HETATM    4  N   UNL     1     -40.838 -50.151  13.159  1.00  0.00    -0.245 N 
HETATM    5  C   UNL     1     -40.913 -50.263  11.825  1.00  0.00     0.127 A 
ATOM      6  HN  UNL     1     -40.800 -49.302  13.722  1.00  0.00     0.196 HD
HETATM    7  N   UNL     1     -40.949 -51.556  11.358  1.00  0.00    -0.325 N 
ATOM      8  HN  UNL     1     -41.004 -51.888  10.395  1.00  0.00     0.169 HD
BRANCH   5   9
HETATM    9  C   UNL     1     -41.009 -49.071  10.931  1.00  0.00     0.245 C 
BRANCH   9  10
HETATM   10  O   UNL     1     -42.239 -48.334  11.056  1.00  0.00    -0.389 OA
HETATM   11  C   UNL     1     -42.651 -47.751   9.826  1.00  0.00     0.202 C 
ENDBRANCH   9  10
ENDBRANCH   5   9
ENDBRANCH   1   2
BRANCH   1  12
HETATM   12  C   UNL     1     -42.083 -54.204  13.532  1.00  0.00     0.087 C 
HETATM   13  C   UNL     1     -41.612 -54.708  14.901  1.00  0.00     0.032 C 
BRANCH  12  14
HETATM   14  N   UNL     1     -43.086 -53.146  13.732  1.00  0.00    -0.356 N 
HETATM   15  C   UNL     1     -44.341 -53.212  13.161  1.00  0.00     0.222 C 
HETATM   16  O   UNL     1     -44.662 -54.099  12.377  1.00  0.00    -0.273 OA
HETATM   17  H   UNL     1     -42.921 -52.448  14.448  1.00  0.00     0.162 HD
BRANCH  15  18
HETATM   18  C   UNL     1     -45.276 -52.087  13.579  1.00  0.00     0.078 C 
HETATM   19  C   UNL     1     -44.647 -51.174  14.638  1.00  0.00     0.014 C 
HETATM   20  C   UNL     1     -45.725 -50.905  15.689  1.00  0.00     0.001 C 
HETATM   21  C   UNL     1     -47.020 -51.443  15.103  1.00  0.00     0.001 C 
HETATM   22  C   UNL     1     -46.568 -52.596  14.226  1.00  0.00     0.014 C 
ENDBRANCH  15  18
ENDBRANCH  12  14
ENDBRANCH   1  12
TORSDOF 6
ENDMDL
MODEL 3
REMARK VINA RESULT:      -5.2      2.736      4.348
REMARK  6 active torsions:
REMARK  status: ('A' for Active; 'I' for Inactive)
REMARK    1  A    between atoms: O_2  and  C_3 
REMARK    2  A    between atoms: C_3  and  C_4 
REMARK    3  A    between atoms: C_8  and  C_9 
REMARK    4  A    between atoms: C_9  and  C_10 
REMARK    5  A    between atoms: C_10  and  N_12 
REMARK       I    between atoms: N_12  and  C_13 
REMARK    6  A    between atoms: C_13  and  C_15 
ROOT
HETATM    1  C   UNL     1     -38.724 -49.462  13.296  1.00  0.00     0.111 C 
ENDROOT
BRANCH   1   2
HETATM    2  C   UNL     1     -39.732 -49.237  12.232  1.00  0.00     0.150 A 
HETATM    3  O   UNL     1     -39.685 -50.065  11.148  1.00  0.00    -0.223 OA
HETATM    4  N   UNL     1     -40.715 -49.661  10.295  1.00  0.00    -0.245 N 
HETATM    5  C   UNL     1     -41.277 -48.637  10.955  1.00  0.00     0.127 A 
ATOM      6  HN  UNL     1     -40.977 -50.051   9.390  1.00  0.00     0.196 HD
HETATM    7  N   UNL     1     -40.694 -48.345  12.165  1.00  0.00    -0.325 N 
ATOM      8  HN  UNL     1     -40.943 -47.620  12.838  1.00  0.00     0.169 HD
BRANCH   5   9
HETATM    9  C   UNL     1     -42.407 -47.847  10.382  1.00  0.00     0.245 C 
BRANCH   9  10
HETATM   10  O   UNL     1     -42.602 -48.029   8.969  1.00  0.00    -0.389 OA
HETATM   11  C   UNL     1     -43.530 -47.099   8.423  1.00  0.00     0.202 C 
ENDBRANCH   9  10
ENDBRANCH   5   9
ENDBRANCH   1   2
BRANCH   1  12
HETATM   12  C   UNL     1     -39.135 -50.580  14.277  1.00  0.00     0.087 C 
HETATM   13  C   UNL     1     -39.624 -50.008  15.613  1.00  0.00     0.032 C 
BRANCH  12  14
HETATM   14  N   UNL     1     -40.183 -51.447  13.717  1.00  0.00    -0.356 N 
HETATM   15  C   UNL     1     -39.961 -52.785  13.453  1.00  0.00     0.222 C 
HETATM   16  O   UNL     1     -38.857 -53.304  13.574  1.00  0.00    -0.273 OA
HETATM   17  H   UNL     1     -41.137 -51.107  13.697  1.00  0.00     0.162 HD
BRANCH  15  18
HETATM   18  C   UNL     1     -41.197 -53.542  12.991  1.00  0.00     0.078 C 
HETATM   19  C   UNL     1     -42.165 -52.648  12.208  1.00  0.00     0.014 C 
HETATM   20  C   UNL     1     -43.573 -52.969  12.712  1.00  0.00     0.001 C 
HETATM   21  C   UNL     1     -43.431 -54.208  13.581  1.00  0.00     0.001 C 
HETATM   22  C   UNL     1     -42.031 -54.087  14.155  1.00  0.00     0.014 C 
ENDBRANCH  15  18
ENDBRANCH  12  14
ENDBRANCH   1  12
TORSDOF 6
ENDMDL
MODEL 4
REMARK VINA RESULT:      -5.0      2.690      3.600
REMARK  6 active torsions:
REMARK  status: ('A' for Active; 'I' for Inactive)
REMARK    1  A    between atoms: O_2  and  C_3 
REMARK    2  A    between atoms: C_3  and  C_4 
REMARK    3  A    between atoms: C_8  and  C_9 
REMARK    4  A    between atoms: C_9  and  C_10 
REMARK    5  A    between atoms: C_10  and  N_12 
REMARK       I    between atoms: N_12  and  C_13 
REMARK    6  A    between atoms: C_13  and  C_15 
ROOT
HETATM    1  C   UNL     1     -39.634 -49.827  13.225  1.00  0.00     0.111 C 
ENDROOT
BRANCH   1   2
HETATM    2  C   UNL     1     -40.392 -49.014  12.243  1.00  0.00     0.150 A 
HETATM    3  O   UNL     1     -40.645 -49.585  11.030  1.00  0.00    -0.223 OA
HETATM    4  N   UNL     1     -41.357 -48.640  10.287  1.00  0.00    -0.245 N 
HETATM    5  C   UNL     1     -41.462 -47.602  11.130  1.00  0.00     0.127 A 
ATOM      6  HN  UNL     1     -41.712 -48.720   9.335  1.00  0.00     0.196 HD
HETATM    7  N   UNL     1     -40.874 -47.798  12.357  1.00  0.00    -0.325 N 
ATOM      8  HN  UNL     1     -40.826 -47.161  13.153  1.00  0.00     0.169 HD
BRANCH   5   9
HETATM    9  C   UNL     1     -42.113 -46.318  10.733  1.00  0.00     0.245 C 
BRANCH   9  10
HETATM   10  O   UNL     1     -41.339 -45.516   9.825  1.00  0.00    -0.389 OA
HETATM   11  C   UNL     1     -40.115 -45.073  10.398  1.00  0.00     0.202 C 
ENDBRANCH   9  10
ENDBRANCH   5   9
ENDBRANCH   1   2
BRANCH   1  12
HETATM   12  C   UNL     1     -40.074 -51.306  13.237  1.00  0.00     0.087 C 
HETATM   13  C   UNL     1     -39.213 -52.145  14.187  1.00  0.00     0.032 C 
BRANCH  12  14
HETATM   14  N   UNL     1     -41.488 -51.457  13.614  1.00  0.00    -0.356 N 
HETATM   15  C   UNL     1     -42.388 -52.136  12.816  1.00  0.00     0.222 C 
HETATM   16  O   UNL     1     -42.092 -52.563  11.706  1.00  0.00    -0.273 OA
HETATM   17  H   UNL     1     -41.768 -51.223  14.559  1.00  0.00     0.162 HD
BRANCH  15  18
HETATM   18  C   UNL     1     -43.772 -52.289  13.430  1.00  0.00     0.078 C 
HETATM   19  C   UNL     1     -44.697 -53.156  12.567  1.00  0.00     0.014 C 
HETATM   20  C   UNL     1     -46.055 -52.454  12.531  1.00  0.00     0.001 C 
HETATM   21  C   UNL     1     -45.979 -51.346  13.567  1.00  0.00     0.001 C 
HETATM   22  C   UNL     1     -44.512 -50.955  13.571  1.00  0.00     0.014 C 
ENDBRANCH  15  18
ENDBRANCH  12  14
ENDBRANCH   1  12
TORSDOF 6
ENDMDL
MODEL 5
REMARK VINA RESULT:      -4.9      3.113      7.142
REMARK  6 active torsions:
REMARK  status: ('A' for Active; 'I' for Inactive)
REMARK    1  A    between atoms: O_2  and  C_3 
REMARK    2  A    between atoms: C_3  and  C_4 
REMARK    3  A    between atoms: C_8  and  C_9 
REMARK    4  A    between atoms: C_9  and  C_10 
REMARK    5  A    between atoms: C_10  and  N_12 
REMARK       I    between atoms: N_12  and  C_13 
REMARK    6  A    between atoms: C_13  and  C_15 
ROOT
HETATM    1  C   UNL     1     -46.854 -51.420  14.097  1.00  0.00     0.111 C 
ENDROOT
BRANCH   1   2
HETATM    2  C   UNL     1     -46.567 -52.134  15.364  1.00  0.00     0.150 A 
HETATM    3  O   UNL     1     -46.194 -53.444  15.268  1.00  0.00    -0.223 OA
HETATM    4  N   UNL     1     -45.985 -53.894  16.573  1.00  0.00    -0.245 N 
HETATM    5  C   UNL     1     -46.248 -52.811  17.318  1.00  0.00     0.127 A 
ATOM      6  HN  UNL     1     -45.700 -54.823  16.884  1.00  0.00     0.196 HD
HETATM    7  N   UNL     1     -46.613 -51.696  16.602  1.00  0.00    -0.325 N 
ATOM      8  HN  UNL     1     -46.856 -50.766  16.943  1.00  0.00     0.169 HD
BRANCH   5   9
HETATM    9  C   UNL     1     -46.205 -52.842  18.811  1.00  0.00     0.245 C 
BRANCH   9  10
HETATM   10  O   UNL     1     -47.324 -53.509  19.422  1.00  0.00    -0.389 OA
HETATM   11  C   UNL     1     -46.926 -54.614  20.224  1.00  0.00     0.202 C 
ENDBRANCH   9  10
ENDBRANCH   5   9
ENDBRANCH   1   2
BRANCH   1  12
HETATM   12  C   UNL     1     -46.367 -52.196  12.855  1.00  0.00     0.087 C 
HETATM   13  C   UNL     1     -47.030 -51.684  11.572  1.00  0.00     0.032 C 
BRANCH  12  14
HETATM   14  N   UNL     1     -44.906 -52.125  12.698  1.00  0.00    -0.356 N 
HETATM   15  C   UNL     1     -44.141 -53.249  12.459  1.00  0.00     0.222 C 
HETATM   16  O   UNL     1     -44.614 -54.380  12.461  1.00  0.00    -0.273 OA
HETATM   17  H   UNL     1     -44.473 -51.216  12.579  1.00  0.00     0.162 HD
BRANCH  15  18
HETATM   18  C   UNL     1     -42.669 -52.959  12.207  1.00  0.00     0.078 C 
HETATM   19  C   UNL     1     -41.749 -53.868  13.030  1.00  0.00     0.014 C 
HETATM   20  C   UNL     1     -40.639 -52.982  13.596  1.00  0.00     0.001 C 
HETATM   21  C   UNL     1     -40.778 -51.641  12.894  1.00  0.00     0.001 C 
HETATM   22  C   UNL     1     -42.266 -51.536  12.609  1.00  0.00     0.014 C 
ENDBRANCH  15  18
ENDBRANCH  12  14
ENDBRANCH   1  12
TORSDOF 6
ENDMDL
MODEL 6
REMARK VINA RESULT:      -4.9      1.504      1.717
REMARK  6 active torsions:
REMARK  status: ('A' for Active; 'I' for Inactive)
REMARK    1  A    between atoms: O_2  and  C_3 
REMARK    2  A    between atoms: C_3  and  C_4 
REMARK    3  A    between atoms: C_8  and  C_9 
REMARK    4  A    between atoms: C_9  and  C_10 
REMARK    5  A    between atoms: C_10  and  N_12 
REMARK       I    between atoms: N_12  and  C_13 
REMARK    6  A    between atoms: C_13  and  C_15 
ROOT
HETATM    1  C   UNL     1     -42.369 -53.839  12.547  1.00  0.00     0.111 C 
ENDROOT
BRANCH   1   2
HETATM    2  C   UNL     1     -42.048 -52.415  12.285  1.00  0.00     0.150 A 
HETATM    3  O   UNL     1     -42.940 -51.485  12.735  1.00  0.00    -0.223 OA
HETATM    4  N   UNL     1     -42.429 -50.237  12.371  1.00  0.00    -0.245 N 
HETATM    5  C   UNL     1     -41.283 -50.543  11.745  1.00  0.00     0.127 A 
ATOM      6  HN  UNL     1     -42.830 -49.314  12.541  1.00  0.00     0.196 HD
HETATM    7  N   UNL     1     -41.011 -51.889  11.673  1.00  0.00    -0.325 N 
ATOM      8  HN  UNL     1     -40.210 -52.359  11.252  1.00  0.00     0.169 HD
BRANCH   5   9
HETATM    9  C   UNL     1     -40.411 -49.501  11.126  1.00  0.00     0.245 C 
BRANCH   9  10
HETATM   10  O   UNL     1     -39.004 -49.692  11.357  1.00  0.00    -0.389 OA
HETATM   11  C   UNL     1     -38.537 -48.977  12.494  1.00  0.00     0.202 C 
ENDBRANCH   9  10
ENDBRANCH   5   9
ENDBRANCH   1   2
BRANCH   1  12
HETATM   12  C   UNL     1     -42.441 -54.162  14.054  1.00  0.00     0.087 C 
HETATM   13  C   UNL     1     -41.179 -53.703  14.793  1.00  0.00     0.032 C 
BRANCH  12  14
HETATM   14  N   UNL     1     -43.617 -53.552  14.694  1.00  0.00    -0.356 N 
HETATM   15  C   UNL     1     -44.802 -54.244  14.855  1.00  0.00     0.222 C 
HETATM   16  O   UNL     1     -44.979 -55.364  14.390  1.00  0.00    -0.273 OA
HETATM   17  H   UNL     1     -43.502 -52.677  15.191  1.00  0.00     0.162 HD
BRANCH  15  18
HETATM   18  C   UNL     1     -45.861 -53.488  15.644  1.00  0.00     0.078 C 
HETATM   19  C   UNL     1     -46.868 -52.778  14.731  1.00  0.00     0.014 C 
HETATM   20  C   UNL     1     -47.089 -51.382  15.315  1.00  0.00     0.001 C 
HETATM   21  C   UNL     1     -46.420 -51.391  16.680  1.00  0.00     0.001 C 
HETATM   22  C   UNL     1     -45.272 -52.371  16.513  1.00  0.00     0.014 C 
ENDBRANCH  15  18
ENDBRANCH  12  14
ENDBRANCH   1  12
TORSDOF 6
ENDMDL
MODEL 7
REMARK VINA RESULT:      -4.9      1.870      5.894
REMARK  6 active torsions:
REMARK  status: ('A' for Active; 'I' for Inactive)
REMARK    1  A    between atoms: O_2  and  C_3 
REMARK    2  A    between atoms: C_3  and  C_4 
REMARK    3  A    between atoms: C_8  and  C_9 
REMARK    4  A    between atoms: C_9  and  C_10 
REMARK    5  A    between atoms: C_10  and  N_12 
REMARK       I    between atoms: N_12  and  C_13 
REMARK    6  A    between atoms: C_13  and  C_15 
ROOT
HETATM    1  C   UNL     1     -41.221 -49.923  12.164  1.00  0.00     0.111 C 
ENDROOT
BRANCH   1   2
HETATM    2  C   UNL     1     -42.187 -51.043  12.276  1.00  0.00     0.150 A 
HETATM    3  O   UNL     1     -41.839 -52.223  11.686  1.00  0.00    -0.223 OA
HETATM    4  N   UNL     1     -42.893 -53.110  11.921  1.00  0.00    -0.245 N 
HETATM    5  C   UNL     1     -43.762 -52.374  12.629  1.00  0.00     0.127 A 
ATOM      6  HN  UNL     1     -42.980 -54.082  11.625  1.00  0.00     0.196 HD
HETATM    7  N   UNL     1     -43.357 -51.083  12.871  1.00  0.00    -0.325 N 
ATOM      8  HN  UNL     1     -43.842 -50.345  13.382  1.00  0.00     0.169 HD
BRANCH   5   9
HETATM    9  C   UNL     1     -45.088 -52.907  13.062  1.00  0.00     0.245 C 
BRANCH   9  10
HETATM   10  O   UNL     1     -45.325 -54.278  12.693  1.00  0.00    -0.389 OA
HETATM   11  C   UNL     1     -45.488 -55.125  13.824  1.00  0.00     0.202 C 
ENDBRANCH   9  10
ENDBRANCH   5   9
ENDBRANCH   1   2
BRANCH   1  12
HETATM   12  C   UNL     1     -40.043 -50.055  13.151  1.00  0.00     0.087 C 
HETATM   13  C   UNL     1     -40.099 -48.982  14.245  1.00  0.00     0.032 C 
BRANCH  12  14
HETATM   14  N   UNL     1     -40.000 -51.382  13.786  1.00  0.00    -0.356 N 
HETATM   15  C   UNL     1     -38.875 -52.181  13.732  1.00  0.00     0.222 C 
HETATM   16  O   UNL     1     -37.885 -51.880  13.074  1.00  0.00    -0.273 OA
HETATM   17  H   UNL     1     -40.740 -51.638  14.428  1.00  0.00     0.162 HD
BRANCH  15  18
HETATM   18  C   UNL     1     -38.982 -53.461  14.546  1.00  0.00     0.078 C 
HETATM   19  C   UNL     1     -40.240 -54.266  14.199  1.00  0.00     0.014 C 
HETATM   20  C   UNL     1     -40.843 -54.740  15.522  1.00  0.00     0.001 C 
HETATM   21  C   UNL     1     -39.803 -54.433  16.587  1.00  0.00     0.001 C 
HETATM   22  C   UNL     1     -39.093 -53.202  16.052  1.00  0.00     0.014 C 
ENDBRANCH  15  18
ENDBRANCH  12  14
ENDBRANCH   1  12
TORSDOF 6
ENDMDL
MODEL 8
REMARK VINA RESULT:      -4.8      2.208      5.966
REMARK  6 active torsions:
REMARK  status: ('A' for Active; 'I' for Inactive)
REMARK    1  A    between atoms: O_2  and  C_3 
REMARK    2  A    between atoms: C_3  and  C_4 
REMARK    3  A    between atoms: C_8  and  C_9 
REMARK    4  A    between atoms: C_9  and  C_10 
REMARK    5  A    between atoms: C_10  and  N_12 
REMARK       I    between atoms: N_12  and  C_13 
REMARK    6  A    between atoms: C_13  and  C_15 
ROOT
HETATM    1  C   UNL     1     -39.145 -51.900  13.968  1.00  0.00     0.111 C 
ENDROOT
BRANCH   1   2
HETATM    2  C   UNL     1     -40.372 -52.259  13.216  1.00  0.00     0.150 A 
HETATM    3  O   UNL     1     -40.259 -52.362  11.860  1.00  0.00    -0.223 OA
HETATM    4  N   UNL     1     -41.527 -52.700  11.381  1.00  0.00    -0.245 N 
HETATM    5  C   UNL     1     -42.268 -52.770  12.496  1.00  0.00     0.127 A 
ATOM      6  HN  UNL     1     -41.818 -52.857  10.416  1.00  0.00     0.196 HD
HETATM    7  N   UNL     1     -41.584 -52.503  13.658  1.00  0.00    -0.325 N 
ATOM      8  HN  UNL     1     -41.929 -52.496  14.618  1.00  0.00     0.169 HD
BRANCH   5   9
HETATM    9  C   UNL     1     -43.734 -53.056  12.460  1.00  0.00     0.245 C 
BRANCH   9  10
HETATM   10  O   UNL     1     -44.250 -53.656  13.661  1.00  0.00    -0.389 OA
HETATM   11  C   UNL     1     -45.226 -52.842  14.300  1.00  0.00     0.202 C 
ENDBRANCH   9  10
ENDBRANCH   5   9
ENDBRANCH   1   2
BRANCH   1  12
HETATM   12  C   UNL     1     -38.497 -50.595  13.460  1.00  0.00     0.087 C 
HETATM   13  C   UNL     1     -37.253 -50.875  12.610  1.00  0.00     0.032 C 
BRANCH  12  14
HETATM   14  N   UNL     1     -39.438 -49.782  12.675  1.00  0.00    -0.356 N 
HETATM   15  C   UNL     1     -39.426 -48.401  12.723  1.00  0.00     0.222 C 
HETATM   16  O   UNL     1     -38.704 -47.775  13.491  1.00  0.00    -0.273 OA
HETATM   17  H   UNL     1     -39.981 -50.231  11.948  1.00  0.00     0.162 HD
BRANCH  15  18
HETATM   18  C   UNL     1     -40.392 -47.737  11.753  1.00  0.00     0.078 C 
HETATM   19  C   UNL     1     -41.468 -46.917  12.475  1.00  0.00     0.014 C 
HETATM   20  C   UNL     1     -42.797 -47.224  11.785  1.00  0.00     0.001 C 
HETATM   21  C   UNL     1     -42.444 -48.002  10.528  1.00  0.00     0.001 C 
HETATM   22  C   UNL     1     -41.177 -48.747  10.909  1.00  0.00     0.014 C 
ENDBRANCH  15  18
ENDBRANCH  12  14
ENDBRANCH   1  12
TORSDOF 6
ENDMDL
MODEL 9
REMARK VINA RESULT:      -4.7      5.206      7.706
REMARK  6 active torsions:
REMARK  status: ('A' for Active; 'I' for Inactive)
REMARK    1  A    between atoms: O_2  and  C_3 
REMARK    2  A    between atoms: C_3  and  C_4 
REMARK    3  A    between atoms: C_8  and  C_9 
REMARK    4  A    between atoms: C_9  and  C_10 
REMARK    5  A    between atoms: C_10  and  N_12 
REMARK       I    between atoms: N_12  and  C_13 
REMARK    6  A    between atoms: C_13  and  C_15 
ROOT
HETATM    1  C   UNL     1     -42.697 -47.966  13.312  1.00  0.00     0.111 C 
ENDROOT
BRANCH   1   2
HETATM    2  C   UNL     1     -43.100 -47.463  11.976  1.00  0.00     0.150 A 
HETATM    3  O   UNL     1     -42.722 -46.192  11.653  1.00  0.00    -0.223 OA
HETATM    4  N   UNL     1     -43.212 -45.948  10.368  1.00  0.00    -0.245 N 
HETATM    5  C   UNL     1     -43.829 -47.095  10.050  1.00  0.00     0.127 A 
ATOM      6  HN  UNL     1     -43.123 -45.101   9.807  1.00  0.00     0.196 HD
HETATM    7  N   UNL     1     -43.779 -48.063  11.026  1.00  0.00    -0.325 N 
ATOM      8  HN  UNL     1     -44.169 -49.006  11.014  1.00  0.00     0.169 HD
BRANCH   5   9
HETATM    9  C   UNL     1     -44.561 -47.275   8.761  1.00  0.00     0.245 C 
BRANCH   9  10
HETATM   10  O   UNL     1     -45.819 -46.581   8.692  1.00  0.00    -0.389 OA
HETATM   11  C   UNL     1     -46.908 -47.387   9.126  1.00  0.00     0.202 C 
ENDBRANCH   9  10
ENDBRANCH   5   9
ENDBRANCH   1   2
BRANCH   1  12
HETATM   12  C   UNL     1     -41.459 -47.235  13.873  1.00  0.00     0.087 C 
HETATM   13  C   UNL     1     -41.671 -46.797  15.327  1.00  0.00     0.032 C 
BRANCH  12  14
HETATM   14  N   UNL     1     -40.247 -48.065  13.797  1.00  0.00    -0.356 N 
HETATM   15  C   UNL     1     -39.353 -47.959  12.749  1.00  0.00     0.222 C 
HETATM   16  O   UNL     1     -39.563 -47.244  11.775  1.00  0.00    -0.273 OA
HETATM   17  H   UNL     1     -39.965 -48.592  14.615  1.00  0.00     0.162 HD
BRANCH  15  18
HETATM   18  C   UNL     1     -38.104 -48.812  12.907  1.00  0.00     0.078 C 
HETATM   19  C   UNL     1     -37.712 -49.516  11.602  1.00  0.00     0.014 C 
HETATM   20  C   UNL     1     -37.340 -50.953  11.967  1.00  0.00     0.001 C 
HETATM   21  C   UNL     1     -37.271 -50.992  13.485  1.00  0.00     0.001 C 
HETATM   22  C   UNL     1     -38.283 -49.948  13.920  1.00  0.00     0.014 C 
ENDBRANCH  15  18
ENDBRANCH  12  14
ENDBRANCH   1  12
TORSDOF 6
ENDMDL
