MODEL 1
REMARK VINA RESULT:      -6.0      0.000      0.000
REMARK  6 active torsions:
REMARK  status: ('A' for Active; 'I' for Inactive)
REMARK    1  A    between atoms: C_2  and  C_4 
REMARK    2  A    between atoms: C_7  and  C_8 
REMARK    3  A    between atoms: C_8  and  C_9 
REMARK       I    between atoms: C_9  and  N_11 
REMARK    4  A    between atoms: N_11  and  C_12 
REMARK    5  A    between atoms: C_12  and  C_13 
REMARK    6  A    between atoms: C_13  and  N_14 
ROOT
HETATM    1  C   UNL     1     -41.520 -50.918  12.119  1.00  0.00     0.223 C 
HETATM    2  O   UNL     1     -42.045 -50.319  13.056  1.00  0.00    -0.273 OA
HETATM    3  N   UNL     1     -40.784 -50.287  11.132  1.00  0.00    -0.359 N 
HETATM    4  H   UNL     1     -40.699 -50.800  10.261  1.00  0.00     0.162 HD
ENDROOT
BRANCH   1   5
HETATM    5  C   UNL     1     -41.633 -52.420  11.952  1.00  0.00     0.160 C 
BRANCH   5   6
HETATM    6  C   UNL     1     -42.874 -52.936  12.594  1.00  0.00     0.025 A 
HETATM    7  N   UNL     1     -44.060 -52.221  12.455  1.00  0.00    -0.356 N 
HETATM    8  C   UNL     1     -45.045 -52.848  13.071  1.00  0.00     0.054 A 
ATOM      9  HN  UNL     1     -44.155 -51.339  11.951  1.00  0.00     0.166 HD
HETATM   10  S   UNL     1     -44.605 -54.323  13.843  1.00  0.00    -0.086 SA
HETATM   11  C   UNL     1     -42.992 -54.104  13.325  1.00  0.00     0.077 A 
BRANCH   8  12
HETATM   12  C   UNL     1     -46.476 -52.369  13.131  1.00  0.00     0.035 C 
HETATM   13  C   UNL     1     -46.682 -51.433  14.321  1.00  0.00     0.016 C 
HETATM   14  C   UNL     1     -46.885 -51.688  11.827  1.00  0.00     0.016 C 
ENDBRANCH   8  12
ENDBRANCH   5   6
ENDBRANCH   1   5
BRANCH   3  15
HETATM   15  C   UNL     1     -40.780 -48.837  11.021  1.00  0.00     0.152 C 
BRANCH  15  16
HETATM   16  C   UNL     1     -41.849 -48.248  10.070  1.00  0.00     0.292 C 
BRANCH  16  17
HETATM   17  N   UNL     1     -42.680 -47.199  10.692  1.00  0.00     0.094 N 
HETATM   18  C   UNL     1     -44.089 -47.636  10.842  1.00  0.00     0.298 C 
HETATM   19  C   UNL     1     -44.926 -47.562   9.551  1.00  0.00     0.198 C 
HETATM   20  O   UNL     1     -44.892 -46.245   8.988  1.00  0.00    -0.388 OA
HETATM   21  C   UNL     1     -43.542 -45.866   8.700  1.00  0.00     0.198 C 
HETATM   22  C   UNL     1     -42.672 -45.907   9.967  1.00  0.00     0.298 C 
ENDBRANCH  16  17
ENDBRANCH  15  16
ENDBRANCH   3  15
TORSDOF 6
ENDMDL
MODEL 2
REMARK VINA RESULT:      -5.9      1.446      1.928
REMARK  6 active torsions:
REMARK  status: ('A' for Active; 'I' for Inactive)
REMARK    1  A    between atoms: C_2  and  C_4 
REMARK    2  A    between atoms: C_7  and  C_8 
REMARK    3  A    between atoms: C_8  and  C_9 
REMARK       I    between atoms: C_9  and  N_11 
REMARK    4  A    between atoms: N_11  and  C_12 
REMARK    5  A    between atoms: C_12  and  C_13 
REMARK    6  A    between atoms: C_13  and  N_14 
ROOT
HETATM    1  C   UNL     1     -40.823 -51.494  12.397  1.00  0.00     0.223 C 
HETATM    2  O   UNL     1     -40.730 -50.939  13.489  1.00  0.00    -0.273 OA
HETATM    3  N   UNL     1     -40.480 -50.885  11.203  1.00  0.00    -0.359 N 
HETATM    4  H   UNL     1     -40.906 -51.285  10.375  1.00  0.00     0.162 HD
ENDROOT
BRANCH   1   5
HETATM    5  C   UNL     1     -41.332 -52.915  12.250  1.00  0.00     0.160 C 
BRANCH   5   6
HETATM    6  C   UNL     1     -42.724 -53.038  12.765  1.00  0.00     0.025 A 
HETATM    7  N   UNL     1     -43.613 -51.982  12.584  1.00  0.00    -0.356 N 
HETATM    8  C   UNL     1     -44.794 -52.290  13.084  1.00  0.00     0.054 A 
ATOM      9  HN  UNL     1     -43.384 -51.098  12.129  1.00  0.00     0.166 HD
HETATM   10  S   UNL     1     -44.905 -53.855  13.794  1.00  0.00    -0.086 SA
HETATM   11  C   UNL     1     -43.263 -54.136  13.411  1.00  0.00     0.077 A 
BRANCH   8  12
HETATM   12  C   UNL     1     -46.006 -51.388  13.068  1.00  0.00     0.035 C 
HETATM   13  C   UNL     1     -46.933 -51.751  11.908  1.00  0.00     0.016 C 
HETATM   14  C   UNL     1     -46.754 -51.445  14.398  1.00  0.00     0.016 C 
ENDBRANCH   8  12
ENDBRANCH   5   6
ENDBRANCH   1   5
BRANCH   3  15
HETATM   15  C   UNL     1     -40.202 -49.458  11.151  1.00  0.00     0.152 C 
BRANCH  15  16
HETATM   16  C   UNL     1     -41.424 -48.561  10.847  1.00  0.00     0.292 C 
BRANCH  16  17
HETATM   17  N   UNL     1     -41.538 -47.393  11.744  1.00  0.00     0.094 N 
HETATM   18  C   UNL     1     -42.743 -46.585  11.436  1.00  0.00     0.298 C 
HETATM   19  C   UNL     1     -42.600 -45.659  10.214  1.00  0.00     0.198 C 
HETATM   20  O   UNL     1     -41.466 -44.793  10.350  1.00  0.00    -0.388 OA
HETATM   21  C   UNL     1     -40.271 -45.567  10.501  1.00  0.00     0.198 C 
HETATM   22  C   UNL     1     -40.361 -46.495  11.723  1.00  0.00     0.298 C 
ENDBRANCH  16  17
ENDBRANCH  15  16
ENDBRANCH   3  15
TORSDOF 6
ENDMDL
MODEL 3
REMARK VINA RESULT:      -5.8      2.842      6.355
REMARK  6 active torsions:
REMARK  status: ('A' for Active; 'I' for Inactive)
REMARK    1  A    between atoms: C_2  and  C_4 
REMARK    2  A    between atoms: C_7  and  C_8 
REMARK    3  A    between atoms: C_8  and  C_9 
REMARK       I    between atoms: C_9  and  N_11 
REMARK    4  A    between atoms: N_11  and  C_12 
REMARK    5  A    between atoms: C_12  and  C_13 
REMARK    6  A    between atoms: C_13  and  N_14 
ROOT
HETATM    1  C   UNL     1     -40.598 -51.085  11.915  1.00  0.00     0.223 C 
HETATM    2  O   UNL     1     -39.827 -51.753  12.600  1.00  0.00    -0.273 OA
HETATM    3  N   UNL     1     -41.937 -51.397  11.754  1.00  0.00    -0.359 N 
HETATM    4  H   UNL     1     -42.377 -51.004  10.930  1.00  0.00     0.162 HD
ENDROOT
BRANCH   1   5
HETATM    5  C   UNL     1     -40.152 -49.842  11.169  1.00  0.00     0.160 C 
BRANCH   5   6
HETATM    6  C   UNL     1     -41.259 -48.850  11.075  1.00  0.00     0.025 A 
HETATM    7  N   UNL     1     -41.844 -48.599   9.837  1.00  0.00    -0.356 N 
HETATM    8  C   UNL     1     -42.815 -47.714   9.963  1.00  0.00     0.054 A 
ATOM      9  HN  UNL     1     -41.563 -49.035   8.959  1.00  0.00     0.166 HD
HETATM   10  S   UNL     1     -43.080 -47.140  11.565  1.00  0.00    -0.086 SA
HETATM   11  C   UNL     1     -41.809 -48.136  12.123  1.00  0.00     0.077 A 
BRANCH   8  12
HETATM   12  C   UNL     1     -43.674 -47.200   8.832  1.00  0.00     0.035 C 
HETATM   13  C   UNL     1     -43.392 -47.974   7.545  1.00  0.00     0.016 C 
HETATM   14  C   UNL     1     -45.156 -47.266   9.192  1.00  0.00     0.016 C 
ENDBRANCH   8  12
ENDBRANCH   5   6
ENDBRANCH   1   5
BRANCH   3  15
HETATM   15  C   UNL     1     -42.460 -52.675  12.208  1.00  0.00     0.152 C 
BRANCH  15  16
HETATM   16  C   UNL     1     -43.617 -52.585  13.232  1.00  0.00     0.292 C 
BRANCH  16  17
HETATM   17  N   UNL     1     -44.865 -53.226  12.773  1.00  0.00     0.094 N 
HETATM   18  C   UNL     1     -45.973 -52.246  12.663  1.00  0.00     0.298 C 
HETATM   19  C   UNL     1     -46.633 -51.872  14.003  1.00  0.00     0.198 C 
HETATM   20  O   UNL     1     -47.094 -53.039  14.697  1.00  0.00    -0.388 OA
HETATM   21  C   UNL     1     -46.001 -53.930  14.940  1.00  0.00     0.198 C 
HETATM   22  C   UNL     1     -45.321 -54.347  13.626  1.00  0.00     0.298 C 
ENDBRANCH  16  17
ENDBRANCH  15  16
ENDBRANCH   3  15
TORSDOF 6
ENDMDL
MODEL 4
REMARK VINA RESULT:      -5.5      2.956      6.058
REMARK  6 active torsions:
REMARK  status: ('A' for Active; 'I' for Inactive)
REMARK    1  A    between atoms: C_2  and  C_4 
REMARK    2  A    between atoms: C_7  and  C_8 
REMARK    3  A    between atoms: C_8  and  C_9 
REMARK       I    between atoms: C_9  and  N_11 
REMARK    4  A    between atoms: N_11  and  C_12 
REMARK    5  A    between atoms: C_12  and  C_13 
REMARK    6  A    between atoms: C_13  and  N_14 
ROOT
HETATM    1  C   UNL     1     -40.901 -50.708  12.246  1.00  0.00     0.223 C 
HETATM    2  O   UNL     1     -41.105 -51.871  11.906  1.00  0.00    -0.273 OA
HETATM    3  N   UNL     1     -41.358 -50.173  13.437  1.00  0.00    -0.359 N 
HETATM    4  H   UNL     1     -41.434 -49.162  13.457  1.00  0.00     0.162 HD
ENDROOT
BRANCH   1   5
HETATM    5  C   UNL     1     -40.124 -49.735  11.381  1.00  0.00     0.160 C 
BRANCH   5   6
HETATM    6  C   UNL     1     -40.967 -48.565  11.006  1.00  0.00     0.025 A 
HETATM    7  N   UNL     1     -41.997 -48.735  10.086  1.00  0.00    -0.356 N 
HETATM    8  C   UNL     1     -42.639 -47.597   9.904  1.00  0.00     0.054 A 
ATOM      9  HN  UNL     1     -42.224 -49.614   9.620  1.00  0.00     0.166 HD
HETATM   10  S   UNL     1     -42.046 -46.266  10.823  1.00  0.00    -0.086 SA
HETATM   11  C   UNL     1     -40.850 -47.279  11.503  1.00  0.00     0.077 A 
BRANCH   8  12
HETATM   12  C   UNL     1     -43.817 -47.401   8.979  1.00  0.00     0.035 C 
HETATM   13  C   UNL     1     -44.208 -45.925   8.908  1.00  0.00     0.016 C 
HETATM   14  C   UNL     1     -43.521 -47.953   7.586  1.00  0.00     0.016 C 
ENDBRANCH   8  12
ENDBRANCH   5   6
ENDBRANCH   1   5
BRANCH   3  15
HETATM   15  C   UNL     1     -42.309 -50.901  14.261  1.00  0.00     0.152 C 
BRANCH  15  16
HETATM   16  C   UNL     1     -43.795 -50.548  14.016  1.00  0.00     0.292 C 
BRANCH  16  17
HETATM   17  N   UNL     1     -44.731 -51.617  14.417  1.00  0.00     0.094 N 
HETATM   18  C   UNL     1     -44.283 -52.944  13.931  1.00  0.00     0.298 C 
HETATM   19  C   UNL     1     -44.576 -53.217  12.444  1.00  0.00     0.198 C 
HETATM   20  O   UNL     1     -45.968 -53.046  12.151  1.00  0.00    -0.388 OA
HETATM   21  C   UNL     1     -46.381 -51.716  12.479  1.00  0.00     0.198 C 
HETATM   22  C   UNL     1     -46.125 -51.406  13.963  1.00  0.00     0.298 C 
ENDBRANCH  16  17
ENDBRANCH  15  16
ENDBRANCH   3  15
TORSDOF 6
ENDMDL
MODEL 5
REMARK VINA RESULT:      -5.5      3.030      7.067
REMARK  6 active torsions:
REMARK  status: ('A' for Active; 'I' for Inactive)
REMARK    1  A    between atoms: C_2  and  C_4 
REMARK    2  A    between atoms: C_7  and  C_8 
REMARK    3  A    between atoms: C_8  and  C_9 
REMARK       I    between atoms: C_9  and  N_11 
REMARK    4  A    between atoms: N_11  and  C_12 
REMARK    5  A    between atoms: C_12  and  C_13 
REMARK    6  A    between atoms: C_13  and  N_14 
ROOT
HETATM    1  C   UNL     1     -41.574 -50.254  12.294  1.00  0.00     0.223 C 
HETATM    2  O   UNL     1     -41.679 -49.648  13.358  1.00  0.00    -0.273 OA
HETATM    3  N   UNL     1     -42.105 -51.514  12.081  1.00  0.00    -0.359 N 
HETATM    4  H   UNL     1     -41.680 -52.041  11.327  1.00  0.00     0.162 HD
ENDROOT
BRANCH   1   5
HETATM    5  C   UNL     1     -40.841 -49.674  11.100  1.00  0.00     0.160 C 
BRANCH   5   6
HETATM    6  C   UNL     1     -41.435 -48.371  10.691  1.00  0.00     0.025 A 
HETATM    7  N   UNL     1     -42.621 -48.363   9.963  1.00  0.00    -0.356 N 
HETATM    8  C   UNL     1     -42.997 -47.122   9.718  1.00  0.00     0.054 A 
ATOM      9  HN  UNL     1     -43.127 -49.196   9.662  1.00  0.00     0.166 HD
HETATM   10  S   UNL     1     -41.955 -45.903  10.346  1.00  0.00    -0.086 SA
HETATM   11  C   UNL     1     -40.932 -47.116  10.981  1.00  0.00     0.077 A 
BRANCH   8  12
HETATM   12  C   UNL     1     -44.238 -46.725   8.954  1.00  0.00     0.035 C 
HETATM   13  C   UNL     1     -45.453 -47.503   9.456  1.00  0.00     0.016 C 
HETATM   14  C   UNL     1     -44.482 -45.220   9.043  1.00  0.00     0.016 C 
ENDBRANCH   8  12
ENDBRANCH   5   6
ENDBRANCH   1   5
BRANCH   3  15
HETATM   15  C   UNL     1     -42.628 -52.296  13.190  1.00  0.00     0.152 C 
BRANCH  15  16
HETATM   16  C   UNL     1     -43.947 -53.050  12.896  1.00  0.00     0.292 C 
BRANCH  16  17
HETATM   17  N   UNL     1     -44.005 -54.397  13.500  1.00  0.00     0.094 N 
HETATM   18  C   UNL     1     -45.394 -54.914  13.547  1.00  0.00     0.298 C 
HETATM   19  C   UNL     1     -46.253 -54.341  14.689  1.00  0.00     0.198 C 
HETATM   20  O   UNL     1     -45.625 -54.544  15.961  1.00  0.00    -0.388 OA
HETATM   21  C   UNL     1     -44.337 -53.920  15.979  1.00  0.00     0.198 C 
HETATM   22  C   UNL     1     -43.436 -54.475  14.865  1.00  0.00     0.298 C 
ENDBRANCH  16  17
ENDBRANCH  15  16
ENDBRANCH   3  15
TORSDOF 6
ENDMDL
MODEL 6
REMARK VINA RESULT:      -5.4      2.445      3.168
REMARK  6 active torsions:
REMARK  status: ('A' for Active; 'I' for Inactive)
REMARK    1  A    between atoms: C_2  and  C_4 
REMARK    2  A    between atoms: C_7  and  C_8 
REMARK    3  A    between atoms: C_8  and  C_9 
REMARK       I    between atoms: C_9  and  N_11 
REMARK    4  A    between atoms: N_11  and  C_12 
REMARK    5  A    between atoms: C_12  and  C_13 
REMARK    6  A    between atoms: C_13  and  N_14 
ROOT
HETATM    1  C   UNL     1     -41.477 -49.615  11.574  1.00  0.00     0.223 C 
HETATM    2  O   UNL     1     -42.337 -49.336  12.407  1.00  0.00    -0.273 OA
HETATM    3  N   UNL     1     -41.264 -48.876  10.424  1.00  0.00    -0.359 N 
HETATM    4  H   UNL     1     -40.795 -49.369   9.673  1.00  0.00     0.162 HD
ENDROOT
BRANCH   1   5
HETATM    5  C   UNL     1     -40.560 -50.813  11.726  1.00  0.00     0.160 C 
BRANCH   5   6
HETATM    6  C   UNL     1     -41.284 -51.966  12.332  1.00  0.00     0.025 A 
HETATM    7  N   UNL     1     -42.636 -52.142  12.054  1.00  0.00    -0.356 N 
HETATM    8  C   UNL     1     -43.088 -53.224  12.660  1.00  0.00     0.054 A 
ATOM      9  HN  UNL     1     -43.197 -51.524  11.466  1.00  0.00     0.166 HD
HETATM   10  S   UNL     1     -41.922 -54.085  13.589  1.00  0.00    -0.086 SA
HETATM   11  C   UNL     1     -40.738 -52.932  13.157  1.00  0.00     0.077 A 
BRANCH   8  12
HETATM   12  C   UNL     1     -44.509 -53.731  12.585  1.00  0.00     0.035 C 
HETATM   13  C   UNL     1     -44.783 -54.734  13.705  1.00  0.00     0.016 C 
HETATM   14  C   UNL     1     -45.509 -52.579  12.630  1.00  0.00     0.016 C 
ENDBRANCH   8  12
ENDBRANCH   5   6
ENDBRANCH   1   5
BRANCH   3  15
HETATM   15  C   UNL     1     -42.207 -47.845  10.020  1.00  0.00     0.152 C 
BRANCH  15  16
HETATM   16  C   UNL     1     -41.862 -46.415  10.498  1.00  0.00     0.292 C 
BRANCH  16  17
HETATM   17  N   UNL     1     -40.446 -46.245  10.881  1.00  0.00     0.094 N 
HETATM   18  C   UNL     1     -40.287 -46.145  12.352  1.00  0.00     0.298 C 
HETATM   19  C   UNL     1     -40.634 -44.766  12.943  1.00  0.00     0.198 C 
HETATM   20  O   UNL     1     -39.878 -43.726  12.309  1.00  0.00    -0.388 OA
HETATM   21  C   UNL     1     -40.137 -43.717  10.901  1.00  0.00     0.198 C 
HETATM   22  C   UNL     1     -39.786 -45.071  10.264  1.00  0.00     0.298 C 
ENDBRANCH  16  17
ENDBRANCH  15  16
ENDBRANCH   3  15
TORSDOF 6
ENDMDL
MODEL 7
REMARK VINA RESULT:      -5.1      3.142      7.627
REMARK  6 active torsions:
REMARK  status: ('A' for Active; 'I' for Inactive)
REMARK    1  A    between atoms: C_2  and  C_4 
REMARK    2  A    between atoms: C_7  and  C_8 
REMARK    3  A    between atoms: C_8  and  C_9 
REMARK       I    between atoms: C_9  and  N_11 
REMARK    4  A    between atoms: N_11  and  C_12 
REMARK    5  A    between atoms: C_12  and  C_13 
REMARK    6  A    between atoms: C_13  and  N_14 
ROOT
HETATM    1  C   UNL     1     -41.288 -50.615  12.112  1.00  0.00     0.223 C 
HETATM    2  O   UNL     1     -41.256 -50.181  13.261  1.00  0.00    -0.273 OA
HETATM    3  N   UNL     1     -41.839 -51.840  11.777  1.00  0.00    -0.359 N 
HETATM    4  H   UNL     1     -41.514 -52.237  10.903  1.00  0.00     0.162 HD
ENDROOT
BRANCH   1   5
HETATM    5  C   UNL     1     -40.716 -49.845  10.937  1.00  0.00     0.160 C 
BRANCH   5   6
HETATM    6  C   UNL     1     -41.217 -48.442  10.925  1.00  0.00     0.025 A 
HETATM    7  N   UNL     1     -40.302 -47.394  10.891  1.00  0.00    -0.356 N 
HETATM    8  C   UNL     1     -40.935 -46.237  10.861  1.00  0.00     0.054 A 
ATOM      9  HN  UNL     1     -39.287 -47.504  10.889  1.00  0.00     0.166 HD
HETATM   10  S   UNL     1     -42.654 -46.342  10.871  1.00  0.00    -0.086 SA
HETATM   11  C   UNL     1     -42.542 -48.046  10.924  1.00  0.00     0.077 A 
BRANCH   8  12
HETATM   12  C   UNL     1     -40.269 -44.882  10.817  1.00  0.00     0.035 C 
HETATM   13  C   UNL     1     -39.639 -44.547  12.169  1.00  0.00     0.016 C 
HETATM   14  C   UNL     1     -39.229 -44.815   9.701  1.00  0.00     0.016 C 
ENDBRANCH   8  12
ENDBRANCH   5   6
ENDBRANCH   1   5
BRANCH   3  15
HETATM   15  C   UNL     1     -42.213 -52.792  12.811  1.00  0.00     0.152 C 
BRANCH  15  16
HETATM   16  C   UNL     1     -43.730 -53.073  12.927  1.00  0.00     0.292 C 
BRANCH  16  17
HETATM   17  N   UNL     1     -44.045 -54.428  13.422  1.00  0.00     0.094 N 
HETATM   18  C   UNL     1     -45.504 -54.614  13.610  1.00  0.00     0.298 C 
HETATM   19  C   UNL     1     -46.070 -53.989  14.899  1.00  0.00     0.198 C 
HETATM   20  O   UNL     1     -45.374 -54.470  16.056  1.00  0.00    -0.388 OA
HETATM   21  C   UNL     1     -43.979 -54.164  15.954  1.00  0.00     0.198 C 
HETATM   22  C   UNL     1     -43.366 -54.785  14.689  1.00  0.00     0.298 C 
ENDBRANCH  16  17
ENDBRANCH  15  16
ENDBRANCH   3  15
TORSDOF 6
ENDMDL
MODEL 8
REMARK VINA RESULT:      -5.0      2.943      3.717
REMARK  6 active torsions:
REMARK  status: ('A' for Active; 'I' for Inactive)
REMARK    1  A    between atoms: C_2  and  C_4 
REMARK    2  A    between atoms: C_7  and  C_8 
REMARK    3  A    between atoms: C_8  and  C_9 
REMARK       I    between atoms: C_9  and  N_11 
REMARK    4  A    between atoms: N_11  and  C_12 
REMARK    5  A    between atoms: C_12  and  C_13 
REMARK    6  A    between atoms: C_13  and  N_14 
ROOT
HETATM    1  C   UNL     1     -40.957 -52.935  12.800  1.00  0.00     0.223 C 
HETATM    2  O   UNL     1     -41.165 -52.347  11.742  1.00  0.00    -0.273 OA
HETATM    3  N   UNL     1     -40.025 -52.516  13.733  1.00  0.00    -0.359 N 
HETATM    4  H   UNL     1     -39.701 -53.232  14.373  1.00  0.00     0.162 HD
ENDROOT
BRANCH   1   5
HETATM    5  C   UNL     1     -41.708 -54.194  13.189  1.00  0.00     0.160 C 
BRANCH   5   6
HETATM    6  C   UNL     1     -43.038 -53.863  13.774  1.00  0.00     0.025 A 
HETATM    7  N   UNL     1     -43.710 -52.726  13.335  1.00  0.00    -0.356 N 
HETATM    8  C   UNL     1     -44.872 -52.618  13.950  1.00  0.00     0.054 A 
ATOM      9  HN  UNL     1     -43.355 -52.070  12.639  1.00  0.00     0.166 HD
HETATM   10  S   UNL     1     -45.222 -53.869  15.081  1.00  0.00    -0.086 SA
HETATM   11  C   UNL     1     -43.718 -54.598  14.728  1.00  0.00     0.077 A 
BRANCH   8  12
HETATM   12  C   UNL     1     -45.874 -51.510  13.727  1.00  0.00     0.035 C 
HETATM   13  C   UNL     1     -46.609 -51.707  12.401  1.00  0.00     0.016 C 
HETATM   14  C   UNL     1     -46.862 -51.417  14.887  1.00  0.00     0.016 C 
ENDBRANCH   8  12
ENDBRANCH   5   6
ENDBRANCH   1   5
BRANCH   3  15
HETATM   15  C   UNL     1     -39.068 -51.471  13.406  1.00  0.00     0.152 C 
BRANCH  15  16
HETATM   16  C   UNL     1     -39.414 -50.068  13.958  1.00  0.00     0.292 C 
BRANCH  16  17
HETATM   17  N   UNL     1     -38.663 -48.975  13.309  1.00  0.00     0.094 N 
HETATM   18  C   UNL     1     -38.863 -47.684  14.010  1.00  0.00     0.298 C 
HETATM   19  C   UNL     1     -40.198 -46.982  13.694  1.00  0.00     0.198 C 
HETATM   20  O   UNL     1     -40.360 -46.790  12.284  1.00  0.00    -0.388 OA
HETATM   21  C   UNL     1     -40.315 -48.050  11.606  1.00  0.00     0.198 C 
HETATM   22  C   UNL     1     -38.990 -48.780  11.877  1.00  0.00     0.298 C 
ENDBRANCH  16  17
ENDBRANCH  15  16
ENDBRANCH   3  15
TORSDOF 6
ENDMDL
MODEL 9
REMARK VINA RESULT:      -4.7      2.834      3.900
REMARK  6 active torsions:
REMARK  status: ('A' for Active; 'I' for Inactive)
REMARK    1  A    between atoms: C_2  and  C_4 
REMARK    2  A    between atoms: C_7  and  C_8 
REMARK    3  A    between atoms: C_8  and  C_9 
REMARK       I    between atoms: C_9  and  N_11 
REMARK    4  A    between atoms: N_11  and  C_12 
REMARK    5  A    between atoms: C_12  and  C_13 
REMARK    6  A    between atoms: C_13  and  N_14 
ROOT
HETATM    1  C   UNL     1     -42.238 -53.653  13.740  1.00  0.00     0.223 C 
HETATM    2  O   UNL     1     -42.938 -53.871  12.753  1.00  0.00    -0.273 OA
HETATM    3  N   UNL     1     -41.207 -52.731  13.753  1.00  0.00    -0.359 N 
HETATM    4  H   UNL     1     -40.505 -52.876  14.469  1.00  0.00     0.162 HD
ENDROOT
BRANCH   1   5
HETATM    5  C   UNL     1     -42.438 -54.385  15.053  1.00  0.00     0.160 C 
BRANCH   5   6
HETATM    6  C   UNL     1     -43.713 -53.973  15.705  1.00  0.00     0.025 A 
HETATM    7  N   UNL     1     -44.651 -53.255  14.970  1.00  0.00    -0.356 N 
HETATM    8  C   UNL     1     -45.715 -53.006  15.710  1.00  0.00     0.054 A 
ATOM      9  HN  UNL     1     -44.534 -52.963  14.000  1.00  0.00     0.166 HD
HETATM   10  S   UNL     1     -45.649 -53.618  17.318  1.00  0.00    -0.086 SA
HETATM   11  C   UNL     1     -44.094 -54.251  17.005  1.00  0.00     0.077 A 
BRANCH   8  12
HETATM   12  C   UNL     1     -46.939 -52.250  15.247  1.00  0.00     0.035 C 
HETATM   13  C   UNL     1     -47.478 -51.359  16.365  1.00  0.00     0.016 C 
HETATM   14  C   UNL     1     -46.638 -51.430  13.994  1.00  0.00     0.016 C 
ENDBRANCH   8  12
ENDBRANCH   5   6
ENDBRANCH   1   5
BRANCH   3  15
HETATM   15  C   UNL     1     -40.741 -52.122  12.517  1.00  0.00     0.152 C 
BRANCH  15  16
HETATM   16  C   UNL     1     -41.348 -50.736  12.197  1.00  0.00     0.292 C 
BRANCH  16  17
HETATM   17  N   UNL     1     -40.578 -49.968  11.199  1.00  0.00     0.094 N 
HETATM   18  C   UNL     1     -39.173 -49.770  11.629  1.00  0.00     0.298 C 
HETATM   19  C   UNL     1     -38.973 -48.654  12.672  1.00  0.00     0.198 C 
HETATM   20  O   UNL     1     -39.510 -47.409  12.208  1.00  0.00    -0.388 OA
HETATM   21  C   UNL     1     -40.907 -47.550  11.927  1.00  0.00     0.198 C 
HETATM   22  C   UNL     1     -41.154 -48.643  10.875  1.00  0.00     0.298 C 
ENDBRANCH  16  17
ENDBRANCH  15  16
ENDBRANCH   3  15
TORSDOF 6
ENDMDL
