MODEL 1
REMARK VINA RESULT:      -5.9      0.000      0.000
REMARK  4 active torsions:
REMARK  status: ('A' for Active; 'I' for Inactive)
REMARK    1  A    between atoms: C_2  and  N_3 
REMARK    2  A    between atoms: C_5  and  N_6 
REMARK       I    between atoms: N_6  and  C_7 
REMARK       I    between atoms: C_7  and  N_9 
REMARK    3  A    between atoms: N_9  and  C_10 
REMARK    4  A    between atoms: C_10  and  C_12 
ROOT
HETATM    1  N   UNL     1     -41.585 -47.579   9.969  1.00  0.00    -0.306 N 
HETATM    2  C   UNL     1     -41.124 -48.529  10.854  1.00  0.00     0.321 C 
HETATM    3  O   UNL     1     -41.756 -49.498  11.262  1.00  0.00    -0.247 OA
HETATM    4  N   UNL     1     -39.845 -48.262  11.295  1.00  0.00    -0.336 N 
HETATM    5  H   UNL     1     -40.987 -46.796   9.755  1.00  0.00     0.171 HD
HETATM    6  H   UNL     1     -39.239 -47.709  10.705  1.00  0.00     0.164 HD
ENDROOT
BRANCH   1   7
HETATM    7  C   UNL     1     -42.844 -47.593   9.392  1.00  0.00     0.070 A 
HETATM    8  C   UNL     1     -44.059 -47.364   9.994  1.00  0.00     0.141 A 
HETATM    9  N   UNL     1     -45.010 -47.503   9.026  1.00  0.00    -0.302 N 
HETATM   10  N   UNL     1     -44.498 -47.795   7.815  1.00  0.00    -0.308 N 
HETATM   11  C   UNL     1     -43.181 -47.847   8.042  1.00  0.00     0.138 A 
ATOM     12  HN  UNL     1     -44.996 -47.941   6.937  1.00  0.00     0.186 HD
BRANCH   9  13
HETATM   13  C   UNL     1     -46.442 -47.379   9.214  1.00  0.00     0.143 C 
HETATM   14  C   UNL     1     -47.156 -48.700   8.999  1.00  0.00     0.028 C 
ENDBRANCH   9  13
ENDBRANCH   1   7
BRANCH   4  15
HETATM   15  C   UNL     1     -39.173 -49.208  12.190  1.00  0.00     0.111 C 
HETATM   16  C   UNL     1     -37.876 -49.701  11.542  1.00  0.00     0.035 C 
BRANCH  15  17
HETATM   17  C   UNL     1     -38.898 -48.609  13.579  1.00  0.00     0.143 C 
HETATM   18  C   UNL     1     -39.445 -47.201  13.800  1.00  0.00     0.036 C 
HETATM   19  C   UNL     1     -38.367 -46.497  14.604  1.00  0.00     0.029 C 
HETATM   20  C   UNL     1     -37.381 -47.591  14.946  1.00  0.00     0.168 C 
HETATM   21  O   UNL     1     -37.489 -48.529  13.868  1.00  0.00    -0.384 OA
ENDBRANCH  15  17
ENDBRANCH   4  15
TORSDOF 4
ENDMDL
MODEL 2
REMARK VINA RESULT:      -5.8      2.545      7.221
REMARK  4 active torsions:
REMARK  status: ('A' for Active; 'I' for Inactive)
REMARK    1  A    between atoms: C_2  and  N_3 
REMARK    2  A    between atoms: C_5  and  N_6 
REMARK       I    between atoms: N_6  and  C_7 
REMARK       I    between atoms: C_7  and  N_9 
REMARK    3  A    between atoms: N_9  and  C_10 
REMARK    4  A    between atoms: C_10  and  C_12 
ROOT
HETATM    1  N   UNL     1     -40.858 -49.405  10.466  1.00  0.00    -0.306 N 
HETATM    2  C   UNL     1     -41.921 -48.572  10.743  1.00  0.00     0.321 C 
HETATM    3  O   UNL     1     -42.430 -48.399  11.844  1.00  0.00    -0.247 OA
HETATM    4  N   UNL     1     -42.411 -47.951   9.613  1.00  0.00    -0.336 N 
HETATM    5  H   UNL     1     -40.566 -49.504   9.506  1.00  0.00     0.171 HD
HETATM    6  H   UNL     1     -41.789 -47.819   8.828  1.00  0.00     0.164 HD
ENDROOT
BRANCH   1   7
HETATM    7  C   UNL     1     -40.193 -50.165  11.413  1.00  0.00     0.070 A 
HETATM    8  C   UNL     1     -40.628 -51.306  12.047  1.00  0.00     0.141 A 
HETATM    9  N   UNL     1     -39.635 -51.682  12.903  1.00  0.00    -0.302 N 
HETATM   10  N   UNL     1     -38.563 -50.869  12.865  1.00  0.00    -0.308 N 
HETATM   11  C   UNL     1     -38.905 -49.949  11.957  1.00  0.00     0.138 A 
ATOM     12  HN  UNL     1     -37.697 -50.939  13.400  1.00  0.00     0.186 HD
BRANCH   9  13
HETATM   13  C   UNL     1     -39.671 -52.818  13.803  1.00  0.00     0.143 C 
HETATM   14  C   UNL     1     -40.638 -53.886  13.327  1.00  0.00     0.028 C 
ENDBRANCH   9  13
ENDBRANCH   1   7
BRANCH   4  15
HETATM   15  C   UNL     1     -43.499 -46.977   9.734  1.00  0.00     0.111 C 
HETATM   16  C   UNL     1     -42.941 -45.558   9.604  1.00  0.00     0.035 C 
BRANCH  15  17
HETATM   17  C   UNL     1     -44.622 -47.221   8.711  1.00  0.00     0.143 C 
HETATM   18  C   UNL     1     -45.972 -47.609   9.308  1.00  0.00     0.036 C 
HETATM   19  C   UNL     1     -46.516 -48.664   8.362  1.00  0.00     0.029 C 
HETATM   20  C   UNL     1     -45.542 -48.665   7.204  1.00  0.00     0.168 C 
HETATM   21  O   UNL     1     -44.292 -48.269   7.780  1.00  0.00    -0.384 OA
ENDBRANCH  15  17
ENDBRANCH   4  15
TORSDOF 4
ENDMDL
MODEL 3
REMARK VINA RESULT:      -5.6      4.812      6.446
REMARK  4 active torsions:
REMARK  status: ('A' for Active; 'I' for Inactive)
REMARK    1  A    between atoms: C_2  and  N_3 
REMARK    2  A    between atoms: C_5  and  N_6 
REMARK       I    between atoms: N_6  and  C_7 
REMARK       I    between atoms: C_7  and  N_9 
REMARK    3  A    between atoms: N_9  and  C_10 
REMARK    4  A    between atoms: C_10  and  C_12 
ROOT
HETATM    1  N   UNL     1     -42.357 -52.057  11.952  1.00  0.00    -0.306 N 
HETATM    2  C   UNL     1     -42.290 -50.736  12.338  1.00  0.00     0.321 C 
HETATM    3  O   UNL     1     -42.756 -50.264  13.369  1.00  0.00    -0.247 OA
HETATM    4  N   UNL     1     -41.658 -49.944  11.402  1.00  0.00    -0.336 N 
HETATM    5  H   UNL     1     -41.982 -52.310  11.051  1.00  0.00     0.171 HD
HETATM    6  H   UNL     1     -40.992 -50.377  10.778  1.00  0.00     0.164 HD
ENDROOT
BRANCH   1   7
HETATM    7  C   UNL     1     -42.958 -53.059  12.694  1.00  0.00     0.070 A 
HETATM    8  C   UNL     1     -44.248 -53.528  12.605  1.00  0.00     0.141 A 
HETATM    9  N   UNL     1     -44.377 -54.504  13.549  1.00  0.00    -0.302 N 
HETATM   10  N   UNL     1     -43.248 -54.721  14.249  1.00  0.00    -0.308 N 
HETATM   11  C   UNL     1     -42.387 -53.842  13.725  1.00  0.00     0.138 A 
ATOM     12  HN  UNL     1     -43.088 -55.395  14.998  1.00  0.00     0.186 HD
BRANCH   9  13
HETATM   13  C   UNL     1     -45.582 -55.258  13.835  1.00  0.00     0.143 C 
HETATM   14  C   UNL     1     -46.511 -54.506  14.769  1.00  0.00     0.028 C 
ENDBRANCH   9  13
ENDBRANCH   1   7
BRANCH   4  15
HETATM   15  C   UNL     1     -41.438 -48.523  11.682  1.00  0.00     0.111 C 
HETATM   16  C   UNL     1     -39.944 -48.203  11.593  1.00  0.00     0.035 C 
BRANCH  15  17
HETATM   17  C   UNL     1     -42.251 -47.608  10.751  1.00  0.00     0.143 C 
HETATM   18  C   UNL     1     -43.706 -47.393  11.159  1.00  0.00     0.036 C 
HETATM   19  C   UNL     1     -44.473 -47.402   9.850  1.00  0.00     0.029 C 
HETATM   20  C   UNL     1     -43.397 -47.428   8.787  1.00  0.00     0.168 C 
HETATM   21  O   UNL     1     -42.295 -48.107   9.400  1.00  0.00    -0.384 OA
ENDBRANCH  15  17
ENDBRANCH   4  15
TORSDOF 4
ENDMDL
MODEL 4
REMARK VINA RESULT:      -5.6      3.249      7.170
REMARK  4 active torsions:
REMARK  status: ('A' for Active; 'I' for Inactive)
REMARK    1  A    between atoms: C_2  and  N_3 
REMARK    2  A    between atoms: C_5  and  N_6 
REMARK       I    between atoms: N_6  and  C_7 
REMARK       I    between atoms: C_7  and  N_9 
REMARK    3  A    between atoms: N_9  and  C_10 
REMARK    4  A    between atoms: C_10  and  C_12 
ROOT
HETATM    1  N   UNL     1     -40.571 -50.414  11.262  1.00  0.00    -0.306 N 
HETATM    2  C   UNL     1     -41.476 -49.390  11.439  1.00  0.00     0.321 C 
HETATM    3  O   UNL     1     -42.294 -49.303  12.348  1.00  0.00    -0.247 OA
HETATM    4  N   UNL     1     -41.407 -48.447  10.435  1.00  0.00    -0.336 N 
HETATM    5  H   UNL     1     -39.987 -50.399  10.441  1.00  0.00     0.171 HD
HETATM    6  H   UNL     1     -40.536 -48.341   9.934  1.00  0.00     0.164 HD
ENDROOT
BRANCH   1   7
HETATM    7  C   UNL     1     -40.444 -51.501  12.111  1.00  0.00     0.070 A 
HETATM    8  C   UNL     1     -39.611 -51.641  13.196  1.00  0.00     0.141 A 
HETATM    9  N   UNL     1     -39.832 -52.887  13.703  1.00  0.00    -0.302 N 
HETATM   10  N   UNL     1     -40.771 -53.578  13.030  1.00  0.00    -0.308 N 
HETATM   11  C   UNL     1     -41.142 -52.731  12.063  1.00  0.00     0.138 A 
ATOM     12  HN  UNL     1     -41.117 -54.520  13.213  1.00  0.00     0.186 HD
BRANCH   9  13
HETATM   13  C   UNL     1     -39.150 -53.480  14.837  1.00  0.00     0.143 C 
HETATM   14  C   UNL     1     -39.088 -54.992  14.733  1.00  0.00     0.028 C 
ENDBRANCH   9  13
ENDBRANCH   1   7
BRANCH   4  15
HETATM   15  C   UNL     1     -42.253 -47.253  10.501  1.00  0.00     0.111 C 
HETATM   16  C   UNL     1     -41.409 -46.005  10.232  1.00  0.00     0.035 C 
BRANCH  15  17
HETATM   17  C   UNL     1     -43.449 -47.326   9.537  1.00  0.00     0.143 C 
HETATM   18  C   UNL     1     -43.839 -46.003   8.883  1.00  0.00     0.036 C 
HETATM   19  C   UNL     1     -45.356 -46.022   8.864  1.00  0.00     0.029 C 
HETATM   20  C   UNL     1     -45.718 -47.416   9.324  1.00  0.00     0.168 C 
HETATM   21  O   UNL     1     -44.642 -47.807  10.184  1.00  0.00    -0.384 OA
ENDBRANCH  15  17
ENDBRANCH   4  15
TORSDOF 4
ENDMDL
MODEL 5
REMARK VINA RESULT:      -5.5      2.924      6.777
REMARK  4 active torsions:
REMARK  status: ('A' for Active; 'I' for Inactive)
REMARK    1  A    between atoms: C_2  and  N_3 
REMARK    2  A    between atoms: C_5  and  N_6 
REMARK       I    between atoms: N_6  and  C_7 
REMARK       I    between atoms: C_7  and  N_9 
REMARK    3  A    between atoms: N_9  and  C_10 
REMARK    4  A    between atoms: C_10  and  C_12 
ROOT
HETATM    1  N   UNL     1     -39.482 -49.185  11.222  1.00  0.00    -0.306 N 
HETATM    2  C   UNL     1     -40.094 -48.035  11.670  1.00  0.00     0.321 C 
HETATM    3  O   UNL     1     -40.319 -47.750  12.841  1.00  0.00    -0.247 OA
HETATM    4  N   UNL     1     -40.489 -47.211  10.637  1.00  0.00    -0.336 N 
HETATM    5  H   UNL     1     -39.405 -49.329  10.227  1.00  0.00     0.171 HD
HETATM    6  H   UNL     1     -39.996 -47.274   9.757  1.00  0.00     0.164 HD
ENDROOT
BRANCH   1   7
HETATM    7  C   UNL     1     -39.010 -50.193  12.046  1.00  0.00     0.070 A 
HETATM    8  C   UNL     1     -39.708 -51.247  12.587  1.00  0.00     0.141 A 
HETATM    9  N   UNL     1     -38.822 -51.959  13.341  1.00  0.00    -0.302 N 
HETATM   10  N   UNL     1     -37.576 -51.451  13.321  1.00  0.00    -0.308 N 
HETATM   11  C   UNL     1     -37.694 -50.377  12.531  1.00  0.00     0.138 A 
ATOM     12  HN  UNL     1     -36.742 -51.800  13.794  1.00  0.00     0.186 HD
BRANCH   9  13
HETATM   13  C   UNL     1     -39.126 -53.142  14.122  1.00  0.00     0.143 C 
HETATM   14  C   UNL     1     -40.407 -53.811  13.660  1.00  0.00     0.028 C 
ENDBRANCH   9  13
ENDBRANCH   1   7
BRANCH   4  15
HETATM   15  C   UNL     1     -41.096 -45.912  10.935  1.00  0.00     0.111 C 
HETATM   16  C   UNL     1     -40.276 -44.795  10.285  1.00  0.00     0.035 C 
BRANCH  15  17
HETATM   17  C   UNL     1     -42.568 -45.837  10.497  1.00  0.00     0.143 C 
HETATM   18  C   UNL     1     -43.394 -47.091  10.773  1.00  0.00     0.036 C 
HETATM   19  C   UNL     1     -44.284 -47.235   9.552  1.00  0.00     0.029 C 
HETATM   20  C   UNL     1     -44.047 -45.967   8.764  1.00  0.00     0.168 C 
HETATM   21  O   UNL     1     -42.704 -45.584   9.086  1.00  0.00    -0.384 OA
ENDBRANCH  15  17
ENDBRANCH   4  15
TORSDOF 4
ENDMDL
MODEL 6
REMARK VINA RESULT:      -5.4      4.040      6.517
REMARK  4 active torsions:
REMARK  status: ('A' for Active; 'I' for Inactive)
REMARK    1  A    between atoms: C_2  and  N_3 
REMARK    2  A    between atoms: C_5  and  N_6 
REMARK       I    between atoms: N_6  and  C_7 
REMARK       I    between atoms: C_7  and  N_9 
REMARK    3  A    between atoms: N_9  and  C_10 
REMARK    4  A    between atoms: C_10  and  C_12 
ROOT
HETATM    1  N   UNL     1     -41.605 -50.888  11.413  1.00  0.00    -0.306 N 
HETATM    2  C   UNL     1     -41.793 -49.606  11.881  1.00  0.00     0.321 C 
HETATM    3  O   UNL     1     -42.141 -49.299  13.016  1.00  0.00    -0.247 OA
HETATM    4  N   UNL     1     -41.587 -48.653  10.905  1.00  0.00    -0.336 N 
HETATM    5  H   UNL     1     -41.373 -51.012  10.440  1.00  0.00     0.171 HD
HETATM    6  H   UNL     1     -40.977 -48.880  10.132  1.00  0.00     0.164 HD
ENDROOT
BRANCH   1   7
HETATM    7  C   UNL     1     -41.769 -52.031  12.177  1.00  0.00     0.070 A 
HETATM    8  C   UNL     1     -42.938 -52.577  12.652  1.00  0.00     0.141 A 
HETATM    9  N   UNL     1     -42.592 -53.688  13.363  1.00  0.00    -0.302 N 
HETATM   10  N   UNL     1     -41.266 -53.921  13.376  1.00  0.00    -0.308 N 
HETATM   11  C   UNL     1     -40.769 -52.912  12.652  1.00  0.00     0.138 A 
ATOM     12  HN  UNL     1     -40.763 -54.684  13.829  1.00  0.00     0.186 HD
BRANCH   9  13
HETATM   13  C   UNL     1     -43.504 -54.565  14.072  1.00  0.00     0.143 C 
HETATM   14  C   UNL     1     -42.851 -55.196  15.287  1.00  0.00     0.028 C 
ENDBRANCH   9  13
ENDBRANCH   1   7
BRANCH   4  15
HETATM   15  C   UNL     1     -41.679 -47.231  11.247  1.00  0.00     0.111 C 
HETATM   16  C   UNL     1     -40.420 -46.502  10.770  1.00  0.00     0.035 C 
BRANCH  15  17
HETATM   17  C   UNL     1     -42.944 -46.570  10.677  1.00  0.00     0.143 C 
HETATM   18  C   UNL     1     -44.079 -47.529  10.329  1.00  0.00     0.036 C 
HETATM   19  C   UNL     1     -44.660 -46.978   9.040  1.00  0.00     0.029 C 
HETATM   20  C   UNL     1     -43.954 -45.655   8.847  1.00  0.00     0.168 C 
HETATM   21  O   UNL     1     -42.676 -45.830   9.471  1.00  0.00    -0.384 OA
ENDBRANCH  15  17
ENDBRANCH   4  15
TORSDOF 4
ENDMDL
MODEL 7
REMARK VINA RESULT:      -5.4      4.449      6.284
REMARK  4 active torsions:
REMARK  status: ('A' for Active; 'I' for Inactive)
REMARK    1  A    between atoms: C_2  and  N_3 
REMARK    2  A    between atoms: C_5  and  N_6 
REMARK       I    between atoms: N_6  and  C_7 
REMARK       I    between atoms: C_7  and  N_9 
REMARK    3  A    between atoms: N_9  and  C_10 
REMARK    4  A    between atoms: C_10  and  C_12 
ROOT
HETATM    1  N   UNL     1     -40.572 -50.904  11.097  1.00  0.00    -0.306 N 
HETATM    2  C   UNL     1     -40.876 -51.741  12.148  1.00  0.00     0.321 C 
HETATM    3  O   UNL     1     -41.086 -51.394  13.305  1.00  0.00    -0.247 OA
HETATM    4  N   UNL     1     -40.884 -53.070  11.778  1.00  0.00    -0.336 N 
HETATM    5  H   UNL     1     -40.365 -51.318  10.201  1.00  0.00     0.171 HD
HETATM    6  H   UNL     1     -41.069 -53.299  10.812  1.00  0.00     0.164 HD
ENDROOT
BRANCH   1   7
HETATM    7  C   UNL     1     -40.476 -49.526  11.196  1.00  0.00     0.070 A 
HETATM    8  C   UNL     1     -41.349 -48.575  10.722  1.00  0.00     0.141 A 
HETATM    9  N   UNL     1     -40.822 -47.360  11.047  1.00  0.00    -0.302 N 
HETATM   10  N   UNL     1     -39.659 -47.447  11.721  1.00  0.00    -0.308 N 
HETATM   11  C   UNL     1     -39.453 -48.766  11.811  1.00  0.00     0.138 A 
ATOM     12  HN  UNL     1     -39.076 -46.690  12.077  1.00  0.00     0.186 HD
BRANCH   9  13
HETATM   13  C   UNL     1     -41.391 -46.068  10.718  1.00  0.00     0.143 C 
HETATM   14  C   UNL     1     -40.323 -45.000  10.575  1.00  0.00     0.028 C 
ENDBRANCH   9  13
ENDBRANCH   1   7
BRANCH   4  15
HETATM   15  C   UNL     1     -41.254 -54.094  12.758  1.00  0.00     0.111 C 
HETATM   16  C   UNL     1     -40.148 -54.232  13.807  1.00  0.00     0.035 C 
BRANCH  15  17
HETATM   17  C   UNL     1     -42.610 -53.808  13.424  1.00  0.00     0.143 C 
HETATM   18  C   UNL     1     -42.986 -54.747  14.566  1.00  0.00     0.036 C 
HETATM   19  C   UNL     1     -44.474 -54.983  14.391  1.00  0.00     0.029 C 
HETATM   20  C   UNL     1     -44.878 -54.023  13.293  1.00  0.00     0.168 C 
HETATM   21  O   UNL     1     -43.702 -53.877  12.487  1.00  0.00    -0.384 OA
ENDBRANCH  15  17
ENDBRANCH   4  15
TORSDOF 4
ENDMDL
MODEL 8
REMARK VINA RESULT:      -5.4      4.128      5.696
REMARK  4 active torsions:
REMARK  status: ('A' for Active; 'I' for Inactive)
REMARK    1  A    between atoms: C_2  and  N_3 
REMARK    2  A    between atoms: C_5  and  N_6 
REMARK       I    between atoms: N_6  and  C_7 
REMARK       I    between atoms: C_7  and  N_9 
REMARK    3  A    between atoms: N_9  and  C_10 
REMARK    4  A    between atoms: C_10  and  C_12 
ROOT
HETATM    1  N   UNL     1     -41.378 -50.242  11.067  1.00  0.00    -0.306 N 
HETATM    2  C   UNL     1     -41.776 -50.940  12.187  1.00  0.00     0.321 C 
HETATM    3  O   UNL     1     -41.812 -50.501  13.332  1.00  0.00    -0.247 OA
HETATM    4  N   UNL     1     -42.105 -52.249  11.903  1.00  0.00    -0.336 N 
HETATM    5  H   UNL     1     -41.338 -50.733  10.188  1.00  0.00     0.171 HD
HETATM    6  H   UNL     1     -42.412 -52.475  10.967  1.00  0.00     0.164 HD
ENDROOT
BRANCH   1   7
HETATM    7  C   UNL     1     -40.973 -48.918  11.074  1.00  0.00     0.070 A 
HETATM    8  C   UNL     1     -41.667 -47.814  10.637  1.00  0.00     0.141 A 
HETATM    9  N   UNL     1     -40.853 -46.737  10.831  1.00  0.00    -0.302 N 
HETATM   10  N   UNL     1     -39.668 -47.057  11.384  1.00  0.00    -0.308 N 
HETATM   11  C   UNL     1     -39.746 -48.384  11.531  1.00  0.00     0.138 A 
ATOM     12  HN  UNL     1     -38.897 -46.436  11.631  1.00  0.00     0.186 HD
BRANCH   9  13
HETATM   13  C   UNL     1     -41.161 -45.363  10.486  1.00  0.00     0.143 C 
HETATM   14  C   UNL     1     -40.018 -44.424  10.827  1.00  0.00     0.028 C 
ENDBRANCH   9  13
ENDBRANCH   1   7
BRANCH   4  15
HETATM   15  C   UNL     1     -42.614 -53.117  12.967  1.00  0.00     0.111 C 
HETATM   16  C   UNL     1     -43.916 -53.782  12.515  1.00  0.00     0.035 C 
BRANCH  15  17
HETATM   17  C   UNL     1     -41.585 -54.171  13.409  1.00  0.00     0.143 C 
HETATM   18  C   UNL     1     -41.555 -54.463  14.907  1.00  0.00     0.036 C 
HETATM   19  C   UNL     1     -40.082 -54.629  15.232  1.00  0.00     0.029 C 
HETATM   20  C   UNL     1     -39.397 -54.611  13.883  1.00  0.00     0.168 C 
HETATM   21  O   UNL     1     -40.239 -53.797  13.058  1.00  0.00    -0.384 OA
ENDBRANCH  15  17
ENDBRANCH   4  15
TORSDOF 4
ENDMDL
MODEL 9
REMARK VINA RESULT:      -5.4      4.955      7.829
REMARK  4 active torsions:
REMARK  status: ('A' for Active; 'I' for Inactive)
REMARK    1  A    between atoms: C_2  and  N_3 
REMARK    2  A    between atoms: C_5  and  N_6 
REMARK       I    between atoms: N_6  and  C_7 
REMARK       I    between atoms: C_7  and  N_9 
REMARK    3  A    between atoms: N_9  and  C_10 
REMARK    4  A    between atoms: C_10  and  C_12 
ROOT
HETATM    1  N   UNL     1     -42.496 -51.989  12.243  1.00  0.00    -0.306 N 
HETATM    2  C   UNL     1     -43.628 -51.425  12.790  1.00  0.00     0.321 C 
HETATM    3  O   UNL     1     -43.659 -50.439  13.519  1.00  0.00    -0.247 OA
HETATM    4  N   UNL     1     -44.773 -52.122  12.467  1.00  0.00    -0.336 N 
HETATM    5  H   UNL     1     -42.597 -52.835  11.705  1.00  0.00     0.171 HD
HETATM    6  H   UNL     1     -44.778 -52.671  11.619  1.00  0.00     0.164 HD
ENDROOT
BRANCH   1   7
HETATM    7  C   UNL     1     -41.212 -51.503  12.427  1.00  0.00     0.070 A 
HETATM    8  C   UNL     1     -40.606 -50.440  11.800  1.00  0.00     0.141 A 
HETATM    9  N   UNL     1     -39.340 -50.359  12.300  1.00  0.00    -0.302 N 
HETATM   10  N   UNL     1     -39.074 -51.294  13.231  1.00  0.00    -0.308 N 
HETATM   11  C   UNL     1     -40.215 -51.987  13.307  1.00  0.00     0.138 A 
ATOM     12  HN  UNL     1     -38.209 -51.438  13.753  1.00  0.00     0.186 HD
BRANCH   9  13
HETATM   13  C   UNL     1     -38.327 -49.401  11.902  1.00  0.00     0.143 C 
HETATM   14  C   UNL     1     -37.268 -50.033  11.017  1.00  0.00     0.028 C 
ENDBRANCH   9  13
ENDBRANCH   1   7
BRANCH   4  15
HETATM   15  C   UNL     1     -46.077 -51.622  12.910  1.00  0.00     0.111 C 
HETATM   16  C   UNL     1     -47.079 -51.694  11.755  1.00  0.00     0.035 C 
BRANCH  15  17
HETATM   17  C   UNL     1     -46.607 -52.374  14.143  1.00  0.00     0.143 C 
HETATM   18  C   UNL     1     -46.990 -51.491  15.328  1.00  0.00     0.036 C 
HETATM   19  C   UNL     1     -46.520 -52.266  16.545  1.00  0.00     0.029 C 
HETATM   20  C   UNL     1     -46.082 -53.603  15.992  1.00  0.00     0.168 C 
HETATM   21  O   UNL     1     -45.650 -53.320  14.656  1.00  0.00    -0.384 OA
ENDBRANCH  15  17
ENDBRANCH   4  15
TORSDOF 4
ENDMDL
