MODEL 1
REMARK VINA RESULT:      -6.9      0.000      0.000
REMARK  4 active torsions:
REMARK  status: ('A' for Active; 'I' for Inactive)
REMARK    1  A    between atoms: C_2  and  C_3 
REMARK       I    between atoms: C_2  and  N_21 
REMARK    2  A    between atoms: C_3  and  N_4 
REMARK       I    between atoms: N_4  and  C_5 
REMARK       I    between atoms: C_5  and  N_7 
REMARK    3  A    between atoms: N_7  and  C_8 
REMARK    4  A    between atoms: C_11  and  N_15 
ROOT
HETATM    1  N   UNL     1     -42.374 -52.616  12.014  1.00  0.00    -0.334 N 
HETATM    2  C   UNL     1     -41.824 -51.405  12.367  1.00  0.00     0.321 C 
HETATM    3  O   UNL     1     -41.740 -51.071  13.546  1.00  0.00    -0.247 OA
HETATM    4  N   UNL     1     -41.376 -50.678  11.291  1.00  0.00    -0.308 N 
HETATM    5  H   UNL     1     -42.846 -52.700  11.122  1.00  0.00     0.164 HD
HETATM    6  H   UNL     1     -41.248 -51.187  10.429  1.00  0.00     0.170 HD
ENDROOT
BRANCH   4   7
HETATM    7  C   UNL     1     -40.885 -49.351  11.351  1.00  0.00     0.051 A 
HETATM    8  C   UNL     1     -39.680 -49.001  11.941  1.00  0.00     0.035 A 
HETATM    9  C   UNL     1     -39.291 -47.660  12.018  1.00  0.00     0.051 A 
HETATM   10  C   UNL     1     -40.109 -46.650  11.523  1.00  0.00     0.103 A 
HETATM   11  N   UNL     1     -41.271 -46.986  10.917  1.00  0.00    -0.350 N 
HETATM   12  C   UNL     1     -41.629 -48.298  10.840  1.00  0.00     0.119 A 
ATOM     13  HN  UNL     1     -41.874 -46.264  10.522  1.00  0.00     0.166 HD
BRANCH  10  14
HETATM   14  N   UNL     1     -39.813 -45.318  11.696  1.00  0.00    -0.363 N 
HETATM   15  C   UNL     1     -39.074 -44.742  12.824  1.00  0.00     0.150 C 
HETATM   16  C   UNL     1     -39.788 -43.463  13.305  1.00  0.00     0.187 C 
HETATM   17  O   UNL     1     -39.986 -42.525  12.235  1.00  0.00    -0.388 OA
HETATM   18  C   UNL     1     -40.758 -43.127  11.179  1.00  0.00     0.187 C 
HETATM   19  C   UNL     1     -40.054 -44.367  10.603  1.00  0.00     0.150 C 
ENDBRANCH  10  14
ENDBRANCH   4   7
BRANCH   1  20
HETATM   20  C   UNL     1     -42.894 -53.433  13.099  1.00  0.00     0.227 C 
BRANCH  20  21
HETATM   21  C   UNL     1     -44.414 -53.578  13.120  1.00  0.00     0.237 C 
HETATM   22  O   UNL     1     -44.979 -54.487  12.508  1.00  0.00    -0.272 OA
HETATM   23  N   UNL     1     -45.110 -52.592  13.797  1.00  0.00    -0.351 N 
HETATM   24  C   UNL     1     -46.560 -52.517  13.751  1.00  0.00     0.126 C 
HETATM   25  C   UNL     1     -44.569 -51.608  14.721  1.00  0.00     0.126 C 
HETATM   26  C   UNL     1     -46.949 -51.487  14.808  1.00  0.00     0.021 C 
HETATM   27  C   UNL     1     -45.715 -51.378  15.694  1.00  0.00     0.021 C 
ENDBRANCH  20  21
ENDBRANCH   1  20
TORSDOF 4
ENDMDL
MODEL 2
REMARK VINA RESULT:      -6.5      2.593      3.172
REMARK  4 active torsions:
REMARK  status: ('A' for Active; 'I' for Inactive)
REMARK    1  A    between atoms: C_2  and  C_3 
REMARK       I    between atoms: C_2  and  N_21 
REMARK    2  A    between atoms: C_3  and  N_4 
REMARK       I    between atoms: N_4  and  C_5 
REMARK       I    between atoms: C_5  and  N_7 
REMARK    3  A    between atoms: N_7  and  C_8 
REMARK    4  A    between atoms: C_11  and  N_15 
ROOT
HETATM    1  N   UNL     1     -41.126 -52.516  11.571  1.00  0.00    -0.334 N 
HETATM    2  C   UNL     1     -41.158 -51.179  11.894  1.00  0.00     0.321 C 
HETATM    3  O   UNL     1     -41.567 -50.804  12.990  1.00  0.00    -0.247 OA
HETATM    4  N   UNL     1     -40.669 -50.369  10.898  1.00  0.00    -0.308 N 
HETATM    5  H   UNL     1     -41.237 -52.792  10.603  1.00  0.00     0.164 HD
HETATM    6  H   UNL     1     -40.113 -50.820  10.187  1.00  0.00     0.170 HD
ENDROOT
BRANCH   4   7
HETATM    7  C   UNL     1     -40.701 -48.954  10.909  1.00  0.00     0.051 A 
HETATM    8  C   UNL     1     -39.789 -48.167  11.597  1.00  0.00     0.035 A 
HETATM    9  C   UNL     1     -39.921 -46.775  11.613  1.00  0.00     0.051 A 
HETATM   10  C   UNL     1     -40.978 -46.152  10.957  1.00  0.00     0.103 A 
HETATM   11  N   UNL     1     -41.854 -46.909  10.258  1.00  0.00    -0.350 N 
HETATM   12  C   UNL     1     -41.702 -48.263  10.243  1.00  0.00     0.119 A 
ATOM     13  HN  UNL     1     -42.620 -46.471   9.747  1.00  0.00     0.166 HD
BRANCH  10  14
HETATM   14  N   UNL     1     -41.207 -44.799  11.060  1.00  0.00    -0.363 N 
HETATM   15  C   UNL     1     -40.200 -43.744  10.909  1.00  0.00     0.150 C 
HETATM   16  C   UNL     1     -40.386 -42.695  12.022  1.00  0.00     0.187 C 
HETATM   17  O   UNL     1     -41.728 -42.180  12.056  1.00  0.00    -0.388 OA
HETATM   18  C   UNL     1     -42.668 -43.252  12.256  1.00  0.00     0.187 C 
HETATM   19  C   UNL     1     -42.584 -44.294  11.127  1.00  0.00     0.150 C 
ENDBRANCH  10  14
ENDBRANCH   4   7
BRANCH   1  20
HETATM   20  C   UNL     1     -41.652 -53.436  12.568  1.00  0.00     0.227 C 
BRANCH  20  21
HETATM   21  C   UNL     1     -40.633 -53.909  13.604  1.00  0.00     0.237 C 
HETATM   22  O   UNL     1     -39.422 -53.814  13.399  1.00  0.00    -0.272 OA
HETATM   23  N   UNL     1     -41.152 -54.512  14.736  1.00  0.00    -0.351 N 
HETATM   24  C   UNL     1     -40.293 -55.154  15.715  1.00  0.00     0.126 C 
HETATM   25  C   UNL     1     -42.533 -54.492  15.190  1.00  0.00     0.126 C 
HETATM   26  C   UNL     1     -41.193 -55.455  16.911  1.00  0.00     0.021 C 
HETATM   27  C   UNL     1     -42.402 -54.553  16.704  1.00  0.00     0.021 C 
ENDBRANCH  20  21
ENDBRANCH   1  20
TORSDOF 4
ENDMDL
MODEL 3
REMARK VINA RESULT:      -6.5      1.742      2.159
REMARK  4 active torsions:
REMARK  status: ('A' for Active; 'I' for Inactive)
REMARK    1  A    between atoms: C_2  and  C_3 
REMARK       I    between atoms: C_2  and  N_21 
REMARK    2  A    between atoms: C_3  and  N_4 
REMARK       I    between atoms: N_4  and  C_5 
REMARK       I    between atoms: C_5  and  N_7 
REMARK    3  A    between atoms: N_7  and  C_8 
REMARK    4  A    between atoms: C_11  and  N_15 
ROOT
HETATM    1  N   UNL     1     -42.242 -51.134  11.908  1.00  0.00    -0.334 N 
HETATM    2  C   UNL     1     -42.040 -49.796  12.155  1.00  0.00     0.321 C 
HETATM    3  O   UNL     1     -41.878 -49.384  13.301  1.00  0.00    -0.247 OA
HETATM    4  N   UNL     1     -42.012 -49.031  11.014  1.00  0.00    -0.308 N 
HETATM    5  H   UNL     1     -42.801 -51.407  11.108  1.00  0.00     0.164 HD
HETATM    6  H   UNL     1     -41.872 -49.526  10.146  1.00  0.00     0.170 HD
ENDROOT
BRANCH   4   7
HETATM    7  C   UNL     1     -41.948 -47.617  10.982  1.00  0.00     0.051 A 
HETATM    8  C   UNL     1     -40.761 -46.899  10.974  1.00  0.00     0.035 A 
HETATM    9  C   UNL     1     -40.777 -45.501  11.005  1.00  0.00     0.051 A 
HETATM   10  C   UNL     1     -41.979 -44.802  11.064  1.00  0.00     0.103 A 
HETATM   11  N   UNL     1     -43.141 -45.494  11.041  1.00  0.00    -0.350 N 
HETATM   12  C   UNL     1     -43.107 -46.855  10.997  1.00  0.00     0.119 A 
ATOM     13  HN  UNL     1     -44.034 -45.001  11.056  1.00  0.00     0.166 HD
BRANCH  10  14
HETATM   14  N   UNL     1     -42.024 -43.437  11.223  1.00  0.00    -0.363 N 
HETATM   15  C   UNL     1     -40.876 -42.565  11.496  1.00  0.00     0.150 C 
HETATM   16  C   UNL     1     -41.252 -41.552  12.594  1.00  0.00     0.187 C 
HETATM   17  O   UNL     1     -42.441 -40.816  12.262  1.00  0.00    -0.388 OA
HETATM   18  C   UNL     1     -43.544 -41.717  12.054  1.00  0.00     0.187 C 
HETATM   19  C   UNL     1     -43.258 -42.704  10.910  1.00  0.00     0.150 C 
ENDBRANCH  10  14
ENDBRANCH   4   7
BRANCH   1  20
HETATM   20  C   UNL     1     -42.309 -52.005  13.070  1.00  0.00     0.227 C 
BRANCH  20  21
HETATM   21  C   UNL     1     -43.561 -52.877  13.147  1.00  0.00     0.237 C 
HETATM   22  O   UNL     1     -43.572 -54.022  12.692  1.00  0.00    -0.272 OA
HETATM   23  N   UNL     1     -44.688 -52.278  13.682  1.00  0.00    -0.351 N 
HETATM   24  C   UNL     1     -45.982 -52.936  13.657  1.00  0.00     0.126 C 
HETATM   25  C   UNL     1     -44.751 -51.035  14.435  1.00  0.00     0.126 C 
HETATM   26  C   UNL     1     -46.885 -52.093  14.555  1.00  0.00     0.021 C 
HETATM   27  C   UNL     1     -45.914 -51.265  15.387  1.00  0.00     0.021 C 
ENDBRANCH  20  21
ENDBRANCH   1  20
TORSDOF 4
ENDMDL
MODEL 4
REMARK VINA RESULT:      -6.3      2.861      4.028
REMARK  4 active torsions:
REMARK  status: ('A' for Active; 'I' for Inactive)
REMARK    1  A    between atoms: C_2  and  C_3 
REMARK       I    between atoms: C_2  and  N_21 
REMARK    2  A    between atoms: C_3  and  N_4 
REMARK       I    between atoms: N_4  and  C_5 
REMARK       I    between atoms: C_5  and  N_7 
REMARK    3  A    between atoms: N_7  and  C_8 
REMARK    4  A    between atoms: C_11  and  N_15 
ROOT
HETATM    1  N   UNL     1     -40.528 -50.183  11.013  1.00  0.00    -0.334 N 
HETATM    2  C   UNL     1     -40.500 -48.866  11.408  1.00  0.00     0.321 C 
HETATM    3  O   UNL     1     -40.046 -48.545  12.503  1.00  0.00    -0.247 OA
HETATM    4  N   UNL     1     -40.988 -48.004  10.455  1.00  0.00    -0.308 N 
HETATM    5  H   UNL     1     -41.261 -50.494  10.385  1.00  0.00     0.164 HD
HETATM    6  H   UNL     1     -41.055 -48.366   9.516  1.00  0.00     0.170 HD
ENDROOT
BRANCH   4   7
HETATM    7  C   UNL     1     -41.193 -46.615  10.641  1.00  0.00     0.051 A 
HETATM    8  C   UNL     1     -40.170 -45.678  10.644  1.00  0.00     0.035 A 
HETATM    9  C   UNL     1     -40.444 -44.330  10.897  1.00  0.00     0.051 A 
HETATM   10  C   UNL     1     -41.739 -43.904  11.169  1.00  0.00     0.103 A 
HETATM   11  N   UNL     1     -42.747 -44.806  11.137  1.00  0.00    -0.350 N 
HETATM   12  C   UNL     1     -42.464 -46.113  10.876  1.00  0.00     0.119 A 
ATOM     13  HN  UNL     1     -43.708 -44.511  11.306  1.00  0.00     0.166 HD
BRANCH  10  14
HETATM   14  N   UNL     1     -42.020 -42.611  11.545  1.00  0.00    -0.363 N 
HETATM   15  C   UNL     1     -41.032 -41.570  11.848  1.00  0.00     0.150 C 
HETATM   16  C   UNL     1     -41.458 -40.814  13.121  1.00  0.00     0.187 C 
HETATM   17  O   UNL     1     -42.794 -40.297  13.017  1.00  0.00    -0.388 OA
HETATM   18  C   UNL     1     -43.726 -41.366  12.771  1.00  0.00     0.187 C 
HETATM   19  C   UNL     1     -43.398 -42.109  11.464  1.00  0.00     0.150 C 
ENDBRANCH  10  14
ENDBRANCH   4   7
BRANCH   1  20
HETATM   20  C   UNL     1     -40.050 -51.160  11.980  1.00  0.00     0.227 C 
BRANCH  20  21
HETATM   21  C   UNL     1     -41.117 -52.121  12.500  1.00  0.00     0.237 C 
HETATM   22  O   UNL     1     -42.257 -52.126  12.032  1.00  0.00    -0.272 OA
HETATM   23  N   UNL     1     -40.747 -52.920  13.568  1.00  0.00    -0.351 N 
HETATM   24  C   UNL     1     -41.712 -53.752  14.264  1.00  0.00     0.126 C 
HETATM   25  C   UNL     1     -39.401 -53.161  14.063  1.00  0.00     0.126 C 
HETATM   26  C   UNL     1     -40.887 -54.654  15.179  1.00  0.00     0.021 C 
HETATM   27  C   UNL     1     -39.479 -54.579  14.605  1.00  0.00     0.021 C 
ENDBRANCH  20  21
ENDBRANCH   1  20
TORSDOF 4
ENDMDL
MODEL 5
REMARK VINA RESULT:      -6.3      3.193      8.481
REMARK  4 active torsions:
REMARK  status: ('A' for Active; 'I' for Inactive)
REMARK    1  A    between atoms: C_2  and  C_3 
REMARK       I    between atoms: C_2  and  N_21 
REMARK    2  A    between atoms: C_3  and  N_4 
REMARK       I    between atoms: N_4  and  C_5 
REMARK       I    between atoms: C_5  and  N_7 
REMARK    3  A    between atoms: N_7  and  C_8 
REMARK    4  A    between atoms: C_11  and  N_15 
ROOT
HETATM    1  N   UNL     1     -41.336 -47.560  10.076  1.00  0.00    -0.334 N 
HETATM    2  C   UNL     1     -41.470 -48.475  11.094  1.00  0.00     0.321 C 
HETATM    3  O   UNL     1     -42.167 -48.229  12.075  1.00  0.00    -0.247 OA
HETATM    4  N   UNL     1     -40.787 -49.645  10.866  1.00  0.00    -0.308 N 
HETATM    5  H   UNL     1     -40.475 -47.542   9.541  1.00  0.00     0.164 HD
HETATM    6  H   UNL     1     -40.502 -49.819   9.914  1.00  0.00     0.170 HD
ENDROOT
BRANCH   4   7
HETATM    7  C   UNL     1     -40.647 -50.702  11.798  1.00  0.00     0.051 A 
HETATM    8  C   UNL     1     -39.573 -50.826  12.667  1.00  0.00     0.035 A 
HETATM    9  C   UNL     1     -39.471 -51.932  13.516  1.00  0.00     0.051 A 
HETATM   10  C   UNL     1     -40.431 -52.939  13.495  1.00  0.00     0.103 A 
HETATM   11  N   UNL     1     -41.497 -52.811  12.672  1.00  0.00    -0.350 N 
HETATM   12  C   UNL     1     -41.587 -51.720  11.860  1.00  0.00     0.119 A 
ATOM     13  HN  UNL     1     -42.227 -53.523  12.659  1.00  0.00     0.166 HD
BRANCH  10  14
HETATM   14  N   UNL     1     -40.293 -54.097  14.224  1.00  0.00    -0.363 N 
HETATM   15  C   UNL     1     -41.348 -54.753  15.003  1.00  0.00     0.150 C 
HETATM   16  C   UNL     1     -40.783 -55.185  16.370  1.00  0.00     0.187 C 
HETATM   17  O   UNL     1     -39.608 -56.001  16.231  1.00  0.00    -0.388 OA
HETATM   18  C   UNL     1     -38.590 -55.290  15.504  1.00  0.00     0.187 C 
HETATM   19  C   UNL     1     -39.070 -54.901  14.095  1.00  0.00     0.150 C 
ENDBRANCH  10  14
ENDBRANCH   4   7
BRANCH   1  20
HETATM   20  C   UNL     1     -42.011 -46.285  10.257  1.00  0.00     0.227 C 
BRANCH  20  21
HETATM   21  C   UNL     1     -41.092 -45.119  10.620  1.00  0.00     0.237 C 
HETATM   22  O   UNL     1     -40.185 -44.762   9.867  1.00  0.00    -0.272 OA
HETATM   23  N   UNL     1     -41.293 -44.552  11.866  1.00  0.00    -0.351 N 
HETATM   24  C   UNL     1     -40.385 -43.553  12.401  1.00  0.00     0.126 C 
HETATM   25  C   UNL     1     -42.441 -44.732  12.741  1.00  0.00     0.126 C 
HETATM   26  C   UNL     1     -41.077 -42.997  13.643  1.00  0.00     0.021 C 
HETATM   27  C   UNL     1     -42.535 -43.401  13.469  1.00  0.00     0.021 C 
ENDBRANCH  20  21
ENDBRANCH   1  20
TORSDOF 4
ENDMDL
MODEL 6
REMARK VINA RESULT:      -6.2      3.786      4.461
REMARK  4 active torsions:
REMARK  status: ('A' for Active; 'I' for Inactive)
REMARK    1  A    between atoms: C_2  and  C_3 
REMARK       I    between atoms: C_2  and  N_21 
REMARK    2  A    between atoms: C_3  and  N_4 
REMARK       I    between atoms: N_4  and  C_5 
REMARK       I    between atoms: C_5  and  N_7 
REMARK    3  A    between atoms: N_7  and  C_8 
REMARK    4  A    between atoms: C_11  and  N_15 
ROOT
HETATM    1  N   UNL     1     -42.929 -52.561  12.048  1.00  0.00    -0.334 N 
HETATM    2  C   UNL     1     -41.881 -52.284  12.895  1.00  0.00     0.321 C 
HETATM    3  O   UNL     1     -41.809 -52.809  14.003  1.00  0.00    -0.247 OA
HETATM    4  N   UNL     1     -40.961 -51.417  12.355  1.00  0.00    -0.308 N 
HETATM    5  H   UNL     1     -43.235 -51.849  11.394  1.00  0.00     0.164 HD
HETATM    6  H   UNL     1     -40.995 -51.295  11.354  1.00  0.00     0.170 HD
ENDROOT
BRANCH   4   7
HETATM    7  C   UNL     1     -39.857 -50.864  13.048  1.00  0.00     0.051 A 
HETATM    8  C   UNL     1     -38.572 -51.383  12.991  1.00  0.00     0.035 A 
HETATM    9  C   UNL     1     -37.545 -50.819  13.754  1.00  0.00     0.051 A 
HETATM   10  C   UNL     1     -37.792 -49.741  14.598  1.00  0.00     0.103 A 
HETATM   11  N   UNL     1     -39.035 -49.209  14.635  1.00  0.00    -0.350 N 
HETATM   12  C   UNL     1     -40.021 -49.764  13.876  1.00  0.00     0.119 A 
ATOM     13  HN  UNL     1     -39.233 -48.401  15.226  1.00  0.00     0.166 HD
BRANCH  10  14
HETATM   14  N   UNL     1     -36.834 -49.247  15.453  1.00  0.00    -0.363 N 
HETATM   15  C   UNL     1     -35.751 -50.020  16.069  1.00  0.00     0.150 C 
HETATM   16  C   UNL     1     -35.631 -49.639  17.557  1.00  0.00     0.187 C 
HETATM   17  O   UNL     1     -35.472 -48.222  17.737  1.00  0.00    -0.388 OA
HETATM   18  C   UNL     1     -36.587 -47.517  17.158  1.00  0.00     0.187 C 
HETATM   19  C   UNL     1     -36.709 -47.797  15.651  1.00  0.00     0.150 C 
ENDBRANCH  10  14
ENDBRANCH   4   7
BRANCH   1  20
HETATM   20  C   UNL     1     -43.957 -53.453  12.560  1.00  0.00     0.227 C 
BRANCH  20  21
HETATM   21  C   UNL     1     -45.335 -52.813  12.726  1.00  0.00     0.237 C 
HETATM   22  O   UNL     1     -46.106 -52.699  11.772  1.00  0.00    -0.272 OA
HETATM   23  N   UNL     1     -45.624 -52.309  13.982  1.00  0.00    -0.351 N 
HETATM   24  C   UNL     1     -46.824 -51.530  14.230  1.00  0.00     0.126 C 
HETATM   25  C   UNL     1     -44.906 -52.566  15.221  1.00  0.00     0.126 C 
HETATM   26  C   UNL     1     -46.912 -51.390  15.748  1.00  0.00     0.021 C 
HETATM   27  C   UNL     1     -45.997 -52.486  16.277  1.00  0.00     0.021 C 
ENDBRANCH  20  21
ENDBRANCH   1  20
TORSDOF 4
ENDMDL
MODEL 7
REMARK VINA RESULT:      -6.1      3.517      8.383
REMARK  4 active torsions:
REMARK  status: ('A' for Active; 'I' for Inactive)
REMARK    1  A    between atoms: C_2  and  C_3 
REMARK       I    between atoms: C_2  and  N_21 
REMARK    2  A    between atoms: C_3  and  N_4 
REMARK       I    between atoms: N_4  and  C_5 
REMARK       I    between atoms: C_5  and  N_7 
REMARK    3  A    between atoms: N_7  and  C_8 
REMARK    4  A    between atoms: C_11  and  N_15 
ROOT
HETATM    1  N   UNL     1     -41.844 -48.829  10.510  1.00  0.00    -0.334 N 
HETATM    2  C   UNL     1     -41.661 -49.646  11.602  1.00  0.00     0.321 C 
HETATM    3  O   UNL     1     -42.253 -49.431  12.656  1.00  0.00    -0.247 OA
HETATM    4  N   UNL     1     -40.804 -50.692  11.359  1.00  0.00    -0.308 N 
HETATM    5  H   UNL     1     -41.084 -48.711   9.851  1.00  0.00     0.164 HD
HETATM    6  H   UNL     1     -40.622 -50.907  10.390  1.00  0.00     0.170 HD
ENDROOT
BRANCH   4   7
HETATM    7  C   UNL     1     -40.339 -51.608  12.334  1.00  0.00     0.051 A 
HETATM    8  C   UNL     1     -40.920 -52.845  12.568  1.00  0.00     0.035 A 
HETATM    9  C   UNL     1     -40.443 -53.670  13.592  1.00  0.00     0.051 A 
HETATM   10  C   UNL     1     -39.392 -53.262  14.407  1.00  0.00     0.103 A 
HETATM   11  N   UNL     1     -38.800 -52.070  14.164  1.00  0.00    -0.350 N 
HETATM   12  C   UNL     1     -39.269 -51.284  13.155  1.00  0.00     0.119 A 
ATOM     13  HN  UNL     1     -38.010 -51.762  14.732  1.00  0.00     0.166 HD
BRANCH  10  14
HETATM   14  N   UNL     1     -38.986 -53.993  15.498  1.00  0.00    -0.363 N 
HETATM   15  C   UNL     1     -38.645 -55.419  15.499  1.00  0.00     0.150 C 
HETATM   16  C   UNL     1     -39.284 -56.099  16.724  1.00  0.00     0.187 C 
HETATM   17  O   UNL     1     -38.924 -55.443  17.951  1.00  0.00    -0.388 OA
HETATM   18  C   UNL     1     -39.326 -54.062  17.915  1.00  0.00     0.187 C 
HETATM   19  C   UNL     1     -38.653 -53.309  16.755  1.00  0.00     0.150 C 
ENDBRANCH  10  14
ENDBRANCH   4   7
BRANCH   1  20
HETATM   20  C   UNL     1     -42.720 -47.683  10.698  1.00  0.00     0.227 C 
BRANCH  20  21
HETATM   21  C   UNL     1     -42.124 -46.344  10.270  1.00  0.00     0.237 C 
HETATM   22  O   UNL     1     -42.432 -45.820   9.198  1.00  0.00    -0.272 OA
HETATM   23  N   UNL     1     -41.172 -45.804  11.116  1.00  0.00    -0.351 N 
HETATM   24  C   UNL     1     -40.407 -44.626  10.746  1.00  0.00     0.126 C 
HETATM   25  C   UNL     1     -40.882 -46.202  12.485  1.00  0.00     0.126 C 
HETATM   26  C   UNL     1     -39.675 -44.200  12.017  1.00  0.00     0.021 C 
HETATM   27  C   UNL     1     -40.430 -44.905  13.136  1.00  0.00     0.021 C 
ENDBRANCH  20  21
ENDBRANCH   1  20
TORSDOF 4
ENDMDL
MODEL 8
REMARK VINA RESULT:      -6.1      2.911      8.857
REMARK  4 active torsions:
REMARK  status: ('A' for Active; 'I' for Inactive)
REMARK    1  A    between atoms: C_2  and  C_3 
REMARK       I    between atoms: C_2  and  N_21 
REMARK    2  A    between atoms: C_3  and  N_4 
REMARK       I    between atoms: N_4  and  C_5 
REMARK       I    between atoms: C_5  and  N_7 
REMARK    3  A    between atoms: N_7  and  C_8 
REMARK    4  A    between atoms: C_11  and  N_15 
ROOT
HETATM    1  N   UNL     1     -40.387 -45.565  10.305  1.00  0.00    -0.334 N 
HETATM    2  C   UNL     1     -40.464 -46.630  11.172  1.00  0.00     0.321 C 
HETATM    3  O   UNL     1     -40.238 -46.486  12.370  1.00  0.00    -0.247 OA
HETATM    4  N   UNL     1     -40.838 -47.803  10.560  1.00  0.00    -0.308 N 
HETATM    5  H   UNL     1     -40.123 -45.733   9.341  1.00  0.00     0.164 HD
HETATM    6  H   UNL     1     -41.263 -47.716   9.648  1.00  0.00     0.170 HD
ENDROOT
BRANCH   4   7
HETATM    7  C   UNL     1     -40.873 -49.073  11.183  1.00  0.00     0.051 A 
HETATM    8  C   UNL     1     -41.989 -49.585  11.828  1.00  0.00     0.035 A 
HETATM    9  C   UNL     1     -41.928 -50.823  12.476  1.00  0.00     0.051 A 
HETATM   10  C   UNL     1     -40.746 -51.556  12.505  1.00  0.00     0.103 A 
HETATM   11  N   UNL     1     -39.662 -51.078  11.852  1.00  0.00    -0.350 N 
HETATM   12  C   UNL     1     -39.743 -49.876  11.215  1.00  0.00     0.119 A 
ATOM     13  HN  UNL     1     -38.793 -51.612  11.837  1.00  0.00     0.166 HD
BRANCH  10  14
HETATM   14  N   UNL     1     -40.621 -52.712  13.240  1.00  0.00    -0.363 N 
HETATM   15  C   UNL     1     -41.508 -53.877  13.167  1.00  0.00     0.150 C 
HETATM   16  C   UNL     1     -41.826 -54.369  14.592  1.00  0.00     0.187 C 
HETATM   17  O   UNL     1     -40.632 -54.628  15.349  1.00  0.00    -0.388 OA
HETATM   18  C   UNL     1     -39.825 -53.439  15.430  1.00  0.00     0.187 C 
HETATM   19  C   UNL     1     -39.408 -52.945  14.034  1.00  0.00     0.150 C 
ENDBRANCH  10  14
ENDBRANCH   4   7
BRANCH   1  20
HETATM   20  C   UNL     1     -39.973 -44.293  10.876  1.00  0.00     0.227 C 
BRANCH  20  21
HETATM   21  C   UNL     1     -41.102 -43.286  11.084  1.00  0.00     0.237 C 
HETATM   22  O   UNL     1     -42.171 -43.390  10.480  1.00  0.00    -0.272 OA
HETATM   23  N   UNL     1     -40.822 -42.222  11.923  1.00  0.00    -0.351 N 
HETATM   24  C   UNL     1     -41.743 -41.110  12.074  1.00  0.00     0.126 C 
HETATM   25  C   UNL     1     -39.704 -42.099  12.845  1.00  0.00     0.126 C 
HETATM   26  C   UNL     1     -41.212 -40.298  13.253  1.00  0.00     0.021 C 
HETATM   27  C   UNL     1     -40.276 -41.258  13.975  1.00  0.00     0.021 C 
ENDBRANCH  20  21
ENDBRANCH   1  20
TORSDOF 4
ENDMDL
MODEL 9
REMARK VINA RESULT:      -6.0      2.166      2.633
REMARK  4 active torsions:
REMARK  status: ('A' for Active; 'I' for Inactive)
REMARK    1  A    between atoms: C_2  and  C_3 
REMARK       I    between atoms: C_2  and  N_21 
REMARK    2  A    between atoms: C_3  and  N_4 
REMARK       I    between atoms: N_4  and  C_5 
REMARK       I    between atoms: C_5  and  N_7 
REMARK    3  A    between atoms: N_7  and  C_8 
REMARK    4  A    between atoms: C_11  and  N_15 
ROOT
HETATM    1  N   UNL     1     -39.894 -52.518  13.545  1.00  0.00    -0.334 N 
HETATM    2  C   UNL     1     -40.415 -51.347  13.046  1.00  0.00     0.321 C 
HETATM    3  O   UNL     1     -41.427 -51.352  12.351  1.00  0.00    -0.247 OA
HETATM    4  N   UNL     1     -39.712 -50.231  13.434  1.00  0.00    -0.308 N 
HETATM    5  H   UNL     1     -38.895 -52.585  13.702  1.00  0.00     0.164 HD
HETATM    6  H   UNL     1     -39.091 -50.345  14.221  1.00  0.00     0.170 HD
ENDROOT
BRANCH   4   7
HETATM    7  C   UNL     1     -39.948 -48.916  12.967  1.00  0.00     0.051 A 
HETATM    8  C   UNL     1     -40.539 -47.921  13.732  1.00  0.00     0.035 A 
HETATM    9  C   UNL     1     -40.797 -46.662  13.181  1.00  0.00     0.051 A 
HETATM   10  C   UNL     1     -40.485 -46.386  11.853  1.00  0.00     0.103 A 
HETATM   11  N   UNL     1     -39.880 -47.341  11.111  1.00  0.00    -0.350 N 
HETATM   12  C   UNL     1     -39.625 -48.558  11.667  1.00  0.00     0.119 A 
ATOM     13  HN  UNL     1     -39.617 -47.152  10.143  1.00  0.00     0.166 HD
BRANCH  10  14
HETATM   14  N   UNL     1     -40.841 -45.203  11.249  1.00  0.00    -0.363 N 
HETATM   15  C   UNL     1     -39.931 -44.106  10.904  1.00  0.00     0.150 C 
HETATM   16  C   UNL     1     -40.572 -42.763  11.303  1.00  0.00     0.187 C 
HETATM   17  O   UNL     1     -41.879 -42.600  10.728  1.00  0.00    -0.388 OA
HETATM   18  C   UNL     1     -42.743 -43.676  11.140  1.00  0.00     0.187 C 
HETATM   19  C   UNL     1     -42.193 -45.042  10.696  1.00  0.00     0.150 C 
ENDBRANCH  10  14
ENDBRANCH   4   7
BRANCH   1  20
HETATM   20  C   UNL     1     -40.571 -53.745  13.157  1.00  0.00     0.227 C 
BRANCH  20  21
HETATM   21  C   UNL     1     -41.516 -54.317  14.212  1.00  0.00     0.237 C 
HETATM   22  O   UNL     1     -41.095 -54.709  15.303  1.00  0.00    -0.272 OA
HETATM   23  N   UNL     1     -42.843 -54.438  13.840  1.00  0.00    -0.351 N 
HETATM   24  C   UNL     1     -43.809 -55.120  14.683  1.00  0.00     0.126 C 
HETATM   25  C   UNL     1     -43.494 -53.829  12.691  1.00  0.00     0.126 C 
HETATM   26  C   UNL     1     -45.173 -54.815  14.067  1.00  0.00     0.021 C 
HETATM   27  C   UNL     1     -44.918 -53.607  13.176  1.00  0.00     0.021 C 
ENDBRANCH  20  21
ENDBRANCH   1  20
TORSDOF 4
ENDMDL
