MODEL 1
REMARK VINA RESULT:      -6.8      0.000      0.000
REMARK  3 active torsions:
REMARK  status: ('A' for Active; 'I' for Inactive)
REMARK       I    between atoms: C_2  and  N_4 
REMARK    1  A    between atoms: C_7  and  N_10 
REMARK       I    between atoms: N_10  and  C_11 
REMARK       I    between atoms: C_11  and  N_13 
REMARK    2  A    between atoms: N_13  and  C_14 
REMARK    3  A    between atoms: C_17  and  N_21 
ROOT
HETATM    1  N   UNL     1     -42.113 -51.425  12.307  1.00  0.00    -0.338 N 
HETATM    2  C   UNL     1     -42.102 -50.061  12.506  1.00  0.00     0.321 C 
HETATM    3  O   UNL     1     -41.987 -49.592  13.630  1.00  0.00    -0.247 OA
HETATM    4  N   UNL     1     -42.208 -49.344  11.332  1.00  0.00    -0.308 N 
HETATM    5  H   UNL     1     -42.496 -51.780  11.445  1.00  0.00     0.164 HD
HETATM    6  H   UNL     1     -42.557 -49.821  10.518  1.00  0.00     0.170 HD
ENDROOT
BRANCH   4   7
HETATM    7  C   UNL     1     -42.087 -47.932  11.262  1.00  0.00     0.051 A 
HETATM    8  C   UNL     1     -40.856 -47.301  11.226  1.00  0.00     0.035 A 
HETATM    9  C   UNL     1     -40.795 -45.916  11.252  1.00  0.00     0.051 A 
HETATM   10  C   UNL     1     -41.957 -45.152  11.305  1.00  0.00     0.103 A 
HETATM   11  N   UNL     1     -43.171 -45.741  11.237  1.00  0.00    -0.350 N 
HETATM   12  C   UNL     1     -43.207 -47.106  11.218  1.00  0.00     0.119 A 
ATOM     13  HN  UNL     1     -44.028 -45.187  11.201  1.00  0.00     0.166 HD
BRANCH  10  14
HETATM   14  N   UNL     1     -41.812 -43.776  11.390  1.00  0.00    -0.367 N 
HETATM   15  C   UNL     1     -40.521 -43.157  11.128  1.00  0.00     0.124 C 
HETATM   16  C   UNL     1     -40.464 -41.877  11.979  1.00  0.00     0.020 C 
HETATM   17  C   UNL     1     -41.679 -40.966  11.748  1.00  0.00     0.003 C 
HETATM   18  C   UNL     1     -42.997 -41.733  11.855  1.00  0.00     0.020 C 
HETATM   19  C   UNL     1     -42.966 -42.975  10.970  1.00  0.00     0.124 C 
ENDBRANCH  10  14
ENDBRANCH   4   7
BRANCH   1  20
HETATM   20  C   UNL     1     -41.990 -52.316  13.462  1.00  0.00     0.089 C 
HETATM   21  C   UNL     1     -42.203 -53.780  13.077  1.00  0.00     0.045 C 
HETATM   22  C   UNL     1     -43.671 -54.097  12.819  1.00  0.00     0.127 C 
HETATM   23  N   UNL     1     -44.494 -53.678  13.948  1.00  0.00    -0.352 N 
HETATM   24  C   UNL     1     -45.476 -54.540  14.416  1.00  0.00     0.215 C 
HETATM   25  C   UNL     1     -44.370 -52.272  14.336  1.00  0.00     0.127 C 
HETATM   26  C   UNL     1     -46.203 -54.137  15.673  1.00  0.00     0.117 C 
HETATM   27  O   UNL     1     -45.726 -55.618  13.878  1.00  0.00    -0.274 OA
HETATM   28  C   UNL     1     -42.919 -51.905  14.612  1.00  0.00     0.045 C 
ENDBRANCH   1  20
TORSDOF 3
ENDMDL
MODEL 2
REMARK VINA RESULT:      -6.5      7.679     11.380
REMARK  3 active torsions:
REMARK  status: ('A' for Active; 'I' for Inactive)
REMARK       I    between atoms: C_2  and  N_4 
REMARK    1  A    between atoms: C_7  and  N_10 
REMARK       I    between atoms: N_10  and  C_11 
REMARK       I    between atoms: C_11  and  N_13 
REMARK    2  A    between atoms: N_13  and  C_14 
REMARK    3  A    between atoms: C_17  and  N_21 
ROOT
HETATM    1  N   UNL     1     -35.964 -55.962  17.250  1.00  0.00    -0.338 N 
HETATM    2  C   UNL     1     -37.279 -55.559  17.165  1.00  0.00     0.321 C 
HETATM    3  O   UNL     1     -37.849 -55.070  18.131  1.00  0.00    -0.247 OA
HETATM    4  N   UNL     1     -37.822 -55.750  15.911  1.00  0.00    -0.308 N 
HETATM    5  H   UNL     1     -35.617 -56.612  16.562  1.00  0.00     0.164 HD
HETATM    6  H   UNL     1     -37.356 -56.388  15.288  1.00  0.00     0.170 HD
ENDROOT
BRANCH   4   7
HETATM    7  C   UNL     1     -39.112 -55.294  15.537  1.00  0.00     0.051 A 
HETATM    8  C   UNL     1     -40.240 -55.586  16.284  1.00  0.00     0.035 A 
HETATM    9  C   UNL     1     -41.487 -55.194  15.822  1.00  0.00     0.051 A 
HETATM   10  C   UNL     1     -41.619 -54.506  14.620  1.00  0.00     0.103 A 
HETATM   11  N   UNL     1     -40.526 -54.120  13.925  1.00  0.00    -0.350 N 
HETATM   12  C   UNL     1     -39.309 -54.521  14.395  1.00  0.00     0.119 A 
ATOM     13  HN  UNL     1     -40.608 -53.552  13.081  1.00  0.00     0.166 HD
BRANCH  10  14
HETATM   14  N   UNL     1     -42.903 -54.203  14.195  1.00  0.00    -0.367 N 
HETATM   15  C   UNL     1     -44.049 -54.540  15.027  1.00  0.00     0.124 C 
HETATM   16  C   UNL     1     -45.228 -54.796  14.073  1.00  0.00     0.020 C 
HETATM   17  C   UNL     1     -45.455 -53.632  13.097  1.00  0.00     0.003 C 
HETATM   18  C   UNL     1     -44.162 -53.211  12.399  1.00  0.00     0.020 C 
HETATM   19  C   UNL     1     -43.057 -52.967  13.422  1.00  0.00     0.124 C 
ENDBRANCH  10  14
ENDBRANCH   4   7
BRANCH   1  20
HETATM   20  C   UNL     1     -35.249 -55.803  18.517  1.00  0.00     0.089 C 
HETATM   21  C   UNL     1     -34.485 -54.481  18.578  1.00  0.00     0.045 C 
HETATM   22  C   UNL     1     -33.227 -54.505  17.718  1.00  0.00     0.127 C 
HETATM   23  N   UNL     1     -32.398 -55.659  18.050  1.00  0.00    -0.352 N 
HETATM   24  C   UNL     1     -31.030 -55.481  18.193  1.00  0.00     0.215 C 
HETATM   25  C   UNL     1     -33.062 -56.961  17.965  1.00  0.00     0.127 C 
HETATM   26  C   UNL     1     -30.229 -56.660  18.681  1.00  0.00     0.117 C 
HETATM   27  O   UNL     1     -30.475 -54.401  17.988  1.00  0.00    -0.274 OA
HETATM   28  C   UNL     1     -34.325 -56.991  18.815  1.00  0.00     0.045 C 
ENDBRANCH   1  20
TORSDOF 3
ENDMDL
MODEL 3
REMARK VINA RESULT:      -6.5      3.061     10.163
REMARK  3 active torsions:
REMARK  status: ('A' for Active; 'I' for Inactive)
REMARK       I    between atoms: C_2  and  N_4 
REMARK    1  A    between atoms: C_7  and  N_10 
REMARK       I    between atoms: N_10  and  C_11 
REMARK       I    between atoms: C_11  and  N_13 
REMARK    2  A    between atoms: N_13  and  C_14 
REMARK    3  A    between atoms: C_17  and  N_21 
ROOT
HETATM    1  N   UNL     1     -42.885 -43.991  12.437  1.00  0.00    -0.338 N 
HETATM    2  C   UNL     1     -42.330 -45.242  12.604  1.00  0.00     0.321 C 
HETATM    3  O   UNL     1     -41.260 -45.381  13.181  1.00  0.00    -0.247 OA
HETATM    4  N   UNL     1     -43.110 -46.253  12.083  1.00  0.00    -0.308 N 
HETATM    5  H   UNL     1     -43.588 -43.871  11.726  1.00  0.00     0.164 HD
HETATM    6  H   UNL     1     -43.819 -46.003  11.414  1.00  0.00     0.170 HD
ENDROOT
BRANCH   4   7
HETATM    7  C   UNL     1     -42.821 -47.631  12.247  1.00  0.00     0.051 A 
HETATM    8  C   UNL     1     -43.074 -48.301  13.431  1.00  0.00     0.035 A 
HETATM    9  C   UNL     1     -42.685 -49.624  13.567  1.00  0.00     0.051 A 
HETATM   10  C   UNL     1     -42.050 -50.291  12.524  1.00  0.00     0.103 A 
HETATM   11  N   UNL     1     -41.884 -49.693  11.324  1.00  0.00    -0.350 N 
HETATM   12  C   UNL     1     -42.269 -48.387  11.215  1.00  0.00     0.119 A 
ATOM     13  HN  UNL     1     -41.486 -50.197  10.530  1.00  0.00     0.166 HD
BRANCH  10  14
HETATM   14  N   UNL     1     -41.637 -51.594  12.757  1.00  0.00    -0.367 N 
HETATM   15  C   UNL     1     -42.467 -52.713  12.335  1.00  0.00     0.124 C 
HETATM   16  C   UNL     1     -42.192 -53.863  13.319  1.00  0.00     0.020 C 
HETATM   17  C   UNL     1     -40.695 -54.179  13.445  1.00  0.00     0.003 C 
HETATM   18  C   UNL     1     -39.865 -52.921  13.703  1.00  0.00     0.020 C 
HETATM   19  C   UNL     1     -40.195 -51.844  12.674  1.00  0.00     0.124 C 
ENDBRANCH  10  14
ENDBRANCH   4   7
BRANCH   1  20
HETATM   20  C   UNL     1     -42.176 -42.821  12.957  1.00  0.00     0.089 C 
HETATM   21  C   UNL     1     -43.136 -41.796  13.562  1.00  0.00     0.045 C 
HETATM   22  C   UNL     1     -43.901 -41.025  12.493  1.00  0.00     0.127 C 
HETATM   23  N   UNL     1     -42.981 -40.443  11.521  1.00  0.00    -0.352 N 
HETATM   24  C   UNL     1     -43.178 -39.130  11.118  1.00  0.00     0.215 C 
HETATM   25  C   UNL     1     -42.066 -41.383  10.872  1.00  0.00     0.127 C 
HETATM   26  C   UNL     1     -42.125 -38.517  10.231  1.00  0.00     0.117 C 
HETATM   27  O   UNL     1     -44.136 -38.455  11.496  1.00  0.00    -0.274 OA
HETATM   28  C   UNL     1     -41.271 -42.175  11.900  1.00  0.00     0.045 C 
ENDBRANCH   1  20
TORSDOF 3
ENDMDL
MODEL 4
REMARK VINA RESULT:      -6.4      2.691      3.163
REMARK  3 active torsions:
REMARK  status: ('A' for Active; 'I' for Inactive)
REMARK       I    between atoms: C_2  and  N_4 
REMARK    1  A    between atoms: C_7  and  N_10 
REMARK       I    between atoms: N_10  and  C_11 
REMARK       I    between atoms: C_11  and  N_13 
REMARK    2  A    between atoms: N_13  and  C_14 
REMARK    3  A    between atoms: C_17  and  N_21 
ROOT
HETATM    1  N   UNL     1     -39.819 -52.227  13.854  1.00  0.00    -0.338 N 
HETATM    2  C   UNL     1     -40.221 -51.150  13.094  1.00  0.00     0.321 C 
HETATM    3  O   UNL     1     -40.924 -51.308  12.104  1.00  0.00    -0.247 OA
HETATM    4  N   UNL     1     -39.770 -49.943  13.587  1.00  0.00    -0.308 N 
HETATM    5  H   UNL     1     -39.026 -52.112  14.465  1.00  0.00     0.164 HD
HETATM    6  H   UNL     1     -39.000 -49.957  14.234  1.00  0.00     0.170 HD
ENDROOT
BRANCH   4   7
HETATM    7  C   UNL     1     -40.160 -48.685  13.060  1.00  0.00     0.051 A 
HETATM    8  C   UNL     1     -39.608 -48.170  11.900  1.00  0.00     0.035 A 
HETATM    9  C   UNL     1     -39.957 -46.896  11.482  1.00  0.00     0.051 A 
HETATM   10  C   UNL     1     -40.862 -46.129  12.210  1.00  0.00     0.103 A 
HETATM   11  N   UNL     1     -41.492 -46.647  13.288  1.00  0.00    -0.350 N 
HETATM   12  C   UNL     1     -41.128 -47.902  13.685  1.00  0.00     0.119 A 
ATOM     13  HN  UNL     1     -42.211 -46.121  13.785  1.00  0.00     0.166 HD
BRANCH  10  14
HETATM   14  N   UNL     1     -41.115 -44.842  11.761  1.00  0.00    -0.367 N 
HETATM   15  C   UNL     1     -40.012 -43.944  11.454  1.00  0.00     0.124 C 
HETATM   16  C   UNL     1     -40.515 -42.516  11.728  1.00  0.00     0.020 C 
HETATM   17  C   UNL     1     -41.827 -42.207  10.993  1.00  0.00     0.003 C 
HETATM   18  C   UNL     1     -42.877 -43.296  11.215  1.00  0.00     0.020 C 
HETATM   19  C   UNL     1     -42.293 -44.671  10.907  1.00  0.00     0.124 C 
ENDBRANCH  10  14
ENDBRANCH   4   7
BRANCH   1  20
HETATM   20  C   UNL     1     -40.238 -53.573  13.462  1.00  0.00     0.089 C 
HETATM   21  C   UNL     1     -41.695 -53.847  13.835  1.00  0.00     0.045 C 
HETATM   22  C   UNL     1     -41.869 -54.084  15.330  1.00  0.00     0.127 C 
HETATM   23  N   UNL     1     -40.955 -55.121  15.798  1.00  0.00    -0.352 N 
HETATM   24  C   UNL     1     -41.438 -56.101  16.653  1.00  0.00     0.215 C 
HETATM   25  C   UNL     1     -39.539 -54.892  15.511  1.00  0.00     0.127 C 
HETATM   26  C   UNL     1     -40.507 -57.236  16.993  1.00  0.00     0.117 C 
HETATM   27  O   UNL     1     -42.590 -56.097  17.086  1.00  0.00    -0.274 OA
HETATM   28  C   UNL     1     -39.310 -54.657  14.024  1.00  0.00     0.045 C 
ENDBRANCH   1  20
TORSDOF 3
ENDMDL
MODEL 5
REMARK VINA RESULT:      -6.3      4.607      5.932
REMARK  3 active torsions:
REMARK  status: ('A' for Active; 'I' for Inactive)
REMARK       I    between atoms: C_2  and  N_4 
REMARK    1  A    between atoms: C_7  and  N_10 
REMARK       I    between atoms: N_10  and  C_11 
REMARK       I    between atoms: C_11  and  N_13 
REMARK    2  A    between atoms: N_13  and  C_14 
REMARK    3  A    between atoms: C_17  and  N_21 
ROOT
HETATM    1  N   UNL     1     -40.387 -54.734  15.602  1.00  0.00    -0.338 N 
HETATM    2  C   UNL     1     -40.685 -53.469  15.142  1.00  0.00     0.321 C 
HETATM    3  O   UNL     1     -41.085 -52.601  15.908  1.00  0.00    -0.247 OA
HETATM    4  N   UNL     1     -40.461 -53.319  13.790  1.00  0.00    -0.308 N 
HETATM    5  H   UNL     1     -40.349 -55.488  14.935  1.00  0.00     0.164 HD
HETATM    6  H   UNL     1     -40.390 -54.152  13.229  1.00  0.00     0.170 HD
ENDROOT
BRANCH   4   7
HETATM    7  C   UNL     1     -40.565 -52.079  13.109  1.00  0.00     0.051 A 
HETATM    8  C   UNL     1     -39.527 -51.165  13.084  1.00  0.00     0.035 A 
HETATM    9  C   UNL     1     -39.716 -49.930  12.483  1.00  0.00     0.051 A 
HETATM   10  C   UNL     1     -40.935 -49.600  11.899  1.00  0.00     0.103 A 
HETATM   11  N   UNL     1     -41.929 -50.512  11.820  1.00  0.00    -0.350 N 
HETATM   12  C   UNL     1     -41.723 -51.719  12.423  1.00  0.00     0.119 A 
ATOM     13  HN  UNL     1     -42.800 -50.305  11.329  1.00  0.00     0.166 HD
BRANCH  10  14
HETATM   14  N   UNL     1     -41.066 -48.324  11.373  1.00  0.00    -0.367 N 
HETATM   15  C   UNL     1     -39.936 -47.407  11.383  1.00  0.00     0.124 C 
HETATM   16  C   UNL     1     -40.520 -45.987  11.472  1.00  0.00     0.020 C 
HETATM   17  C   UNL     1     -41.566 -45.714  10.381  1.00  0.00     0.003 C 
HETATM   18  C   UNL     1     -42.617 -46.822  10.308  1.00  0.00     0.020 C 
HETATM   19  C   UNL     1     -41.947 -48.189  10.209  1.00  0.00     0.124 C 
ENDBRANCH  10  14
ENDBRANCH   4   7
BRANCH   1  20
HETATM   20  C   UNL     1     -40.558 -55.035  17.024  1.00  0.00     0.089 C 
HETATM   21  C   UNL     1     -39.239 -54.938  17.789  1.00  0.00     0.045 C 
HETATM   22  C   UNL     1     -38.326 -56.126  17.511  1.00  0.00     0.127 C 
HETATM   23  N   UNL     1     -39.030 -57.383  17.743  1.00  0.00    -0.352 N 
HETATM   24  C   UNL     1     -38.383 -58.392  18.442  1.00  0.00     0.215 C 
HETATM   25  C   UNL     1     -40.279 -57.555  17.000  1.00  0.00     0.127 C 
HETATM   26  C   UNL     1     -39.192 -59.614  18.791  1.00  0.00     0.117 C 
HETATM   27  O   UNL     1     -37.215 -58.296  18.819  1.00  0.00    -0.274 OA
HETATM   28  C   UNL     1     -41.232 -56.395  17.251  1.00  0.00     0.045 C 
ENDBRANCH   1  20
TORSDOF 3
ENDMDL
MODEL 6
REMARK VINA RESULT:      -6.2      7.460     10.371
REMARK  3 active torsions:
REMARK  status: ('A' for Active; 'I' for Inactive)
REMARK       I    between atoms: C_2  and  N_4 
REMARK    1  A    between atoms: C_7  and  N_10 
REMARK       I    between atoms: N_10  and  C_11 
REMARK       I    between atoms: C_11  and  N_13 
REMARK    2  A    between atoms: N_13  and  C_14 
REMARK    3  A    between atoms: C_17  and  N_21 
ROOT
HETATM    1  N   UNL     1     -36.535 -56.036  16.980  1.00  0.00    -0.338 N 
HETATM    2  C   UNL     1     -37.742 -55.381  16.855  1.00  0.00     0.321 C 
HETATM    3  O   UNL     1     -38.213 -54.749  17.792  1.00  0.00    -0.247 OA
HETATM    4  N   UNL     1     -38.298 -55.509  15.599  1.00  0.00    -0.308 N 
HETATM    5  H   UNL     1     -36.319 -56.769  16.324  1.00  0.00     0.164 HD
HETATM    6  H   UNL     1     -37.963 -56.252  15.009  1.00  0.00     0.170 HD
ENDROOT
BRANCH   4   7
HETATM    7  C   UNL     1     -39.465 -54.819  15.184  1.00  0.00     0.051 A 
HETATM    8  C   UNL     1     -40.702 -55.055  15.757  1.00  0.00     0.035 A 
HETATM    9  C   UNL     1     -41.825 -54.421  15.249  1.00  0.00     0.051 A 
HETATM   10  C   UNL     1     -41.724 -53.544  14.174  1.00  0.00     0.103 A 
HETATM   11  N   UNL     1     -40.515 -53.218  13.663  1.00  0.00    -0.350 N 
HETATM   12  C   UNL     1     -39.424 -53.859  14.175  1.00  0.00     0.119 A 
ATOM     13  HN  UNL     1     -40.423 -52.521  12.924  1.00  0.00     0.166 HD
BRANCH  10  14
HETATM   14  N   UNL     1     -42.899 -52.996  13.683  1.00  0.00    -0.367 N 
HETATM   15  C   UNL     1     -42.929 -51.614  13.226  1.00  0.00     0.124 C 
HETATM   16  C   UNL     1     -44.357 -51.098  13.470  1.00  0.00     0.020 C 
HETATM   17  C   UNL     1     -45.424 -52.010  12.848  1.00  0.00     0.003 C 
HETATM   18  C   UNL     1     -45.213 -53.477  13.225  1.00  0.00     0.020 C 
HETATM   19  C   UNL     1     -43.776 -53.901  12.936  1.00  0.00     0.124 C 
ENDBRANCH  10  14
ENDBRANCH   4   7
BRANCH   1  20
HETATM   20  C   UNL     1     -35.818 -55.973  18.254  1.00  0.00     0.089 C 
HETATM   21  C   UNL     1     -34.306 -56.093  18.063  1.00  0.00     0.045 C 
HETATM   22  C   UNL     1     -33.880 -57.520  17.740  1.00  0.00     0.127 C 
HETATM   23  N   UNL     1     -34.406 -58.452  18.733  1.00  0.00    -0.352 N 
HETATM   24  C   UNL     1     -33.566 -59.433  19.240  1.00  0.00     0.215 C 
HETATM   25  C   UNL     1     -35.856 -58.417  18.928  1.00  0.00     0.127 C 
HETATM   26  C   UNL     1     -34.098 -60.278  20.368  1.00  0.00     0.117 C 
HETATM   27  O   UNL     1     -32.413 -59.592  18.840  1.00  0.00    -0.274 OA
HETATM   28  C   UNL     1     -36.333 -57.011  19.261  1.00  0.00     0.045 C 
ENDBRANCH   1  20
TORSDOF 3
ENDMDL
MODEL 7
REMARK VINA RESULT:      -6.1      2.653     10.035
REMARK  3 active torsions:
REMARK  status: ('A' for Active; 'I' for Inactive)
REMARK       I    between atoms: C_2  and  N_4 
REMARK    1  A    between atoms: C_7  and  N_10 
REMARK       I    between atoms: N_10  and  C_11 
REMARK       I    between atoms: C_11  and  N_13 
REMARK    2  A    between atoms: N_13  and  C_14 
REMARK    3  A    between atoms: C_17  and  N_21 
ROOT
HETATM    1  N   UNL     1     -41.151 -45.771  12.717  1.00  0.00    -0.338 N 
HETATM    2  C   UNL     1     -42.105 -46.765  12.653  1.00  0.00     0.321 C 
HETATM    3  O   UNL     1     -43.058 -46.670  11.892  1.00  0.00    -0.247 OA
HETATM    4  N   UNL     1     -41.838 -47.824  13.496  1.00  0.00    -0.308 N 
HETATM    5  H   UNL     1     -40.560 -45.727  13.532  1.00  0.00     0.164 HD
HETATM    6  H   UNL     1     -41.187 -47.674  14.249  1.00  0.00     0.170 HD
ENDROOT
BRANCH   4   7
HETATM    7  C   UNL     1     -42.596 -49.022  13.514  1.00  0.00     0.051 A 
HETATM    8  C   UNL     1     -43.478 -49.320  14.538  1.00  0.00     0.035 A 
HETATM    9  C   UNL     1     -44.122 -50.547  14.553  1.00  0.00     0.051 A 
HETATM   10  C   UNL     1     -43.900 -51.481  13.546  1.00  0.00     0.103 A 
HETATM   11  N   UNL     1     -43.124 -51.175  12.483  1.00  0.00    -0.350 N 
HETATM   12  C   UNL     1     -42.495 -49.964  12.492  1.00  0.00     0.119 A 
ATOM     13  HN  UNL     1     -43.013 -51.825  11.703  1.00  0.00     0.166 HD
BRANCH  10  14
HETATM   14  N   UNL     1     -44.534 -52.708  13.663  1.00  0.00    -0.367 N 
HETATM   15  C   UNL     1     -45.978 -52.805  13.509  1.00  0.00     0.124 C 
HETATM   16  C   UNL     1     -46.438 -53.985  14.382  1.00  0.00     0.020 C 
HETATM   17  C   UNL     1     -45.666 -55.276  14.074  1.00  0.00     0.003 C 
HETATM   18  C   UNL     1     -44.154 -55.050  14.069  1.00  0.00     0.020 C 
HETATM   19  C   UNL     1     -43.793 -53.872  13.170  1.00  0.00     0.124 C 
ENDBRANCH  10  14
ENDBRANCH   4   7
BRANCH   1  20
HETATM   20  C   UNL     1     -41.292 -44.591  11.864  1.00  0.00     0.089 C 
HETATM   21  C   UNL     1     -39.938 -43.963  11.531  1.00  0.00     0.045 C 
HETATM   22  C   UNL     1     -39.352 -43.203  12.715  1.00  0.00     0.127 C 
HETATM   23  N   UNL     1     -40.316 -42.239  13.236  1.00  0.00    -0.352 N 
HETATM   24  C   UNL     1     -39.880 -40.958  13.544  1.00  0.00     0.215 C 
HETATM   25  C   UNL     1     -41.618 -42.788  13.617  1.00  0.00     0.127 C 
HETATM   26  C   UNL     1     -40.929 -39.951  13.936  1.00  0.00     0.117 C 
HETATM   27  O   UNL     1     -38.700 -40.619  13.458  1.00  0.00    -0.274 OA
HETATM   28  C   UNL     1     -42.250 -43.553  12.463  1.00  0.00     0.045 C 
ENDBRANCH   1  20
TORSDOF 3
ENDMDL
MODEL 8
REMARK VINA RESULT:      -6.1     15.146     15.859
REMARK  3 active torsions:
REMARK  status: ('A' for Active; 'I' for Inactive)
REMARK       I    between atoms: C_2  and  N_4 
REMARK    1  A    between atoms: C_7  and  N_10 
REMARK       I    between atoms: N_10  and  C_11 
REMARK       I    between atoms: C_11  and  N_13 
REMARK    2  A    between atoms: N_13  and  C_14 
REMARK    3  A    between atoms: C_17  and  N_21 
ROOT
HETATM    1  N   UNL     1     -49.403 -51.069  -1.595  1.00  0.00    -0.338 N 
HETATM    2  C   UNL     1     -48.174 -50.455  -1.484  1.00  0.00     0.321 C 
HETATM    3  O   UNL     1     -47.315 -50.901  -0.736  1.00  0.00    -0.247 OA
HETATM    4  N   UNL     1     -48.048 -49.350  -2.301  1.00  0.00    -0.308 N 
HETATM    5  H   UNL     1     -50.172 -50.538  -1.972  1.00  0.00     0.164 HD
HETATM    6  H   UNL     1     -48.889 -48.933  -2.662  1.00  0.00     0.170 HD
ENDROOT
BRANCH   4   7
HETATM    7  C   UNL     1     -46.837 -48.630  -2.466  1.00  0.00     0.051 A 
HETATM    8  C   UNL     1     -45.946 -48.913  -3.486  1.00  0.00     0.035 A 
HETATM    9  C   UNL     1     -44.735 -48.241  -3.544  1.00  0.00     0.051 A 
HETATM   10  C   UNL     1     -44.406 -47.281  -2.593  1.00  0.00     0.103 A 
HETATM   11  N   UNL     1     -45.300 -46.914  -1.648  1.00  0.00    -0.350 N 
HETATM   12  C   UNL     1     -46.484 -47.593  -1.606  1.00  0.00     0.119 A 
ATOM     13  HN  UNL     1     -45.097 -46.159  -0.991  1.00  0.00     0.166 HD
BRANCH  10  14
HETATM   14  N   UNL     1     -43.152 -46.696  -2.683  1.00  0.00    -0.367 N 
HETATM   15  C   UNL     1     -42.983 -45.427  -3.374  1.00  0.00     0.124 C 
HETATM   16  C   UNL     1     -41.557 -45.424  -3.951  1.00  0.00     0.020 C 
HETATM   17  C   UNL     1     -40.494 -45.728  -2.885  1.00  0.00     0.003 C 
HETATM   18  C   UNL     1     -40.840 -46.976  -2.072  1.00  0.00     0.020 C 
HETATM   19  C   UNL     1     -42.264 -46.883  -1.532  1.00  0.00     0.124 C 
ENDBRANCH  10  14
ENDBRANCH   4   7
BRANCH   1  20
HETATM   20  C   UNL     1     -49.676 -52.268  -0.800  1.00  0.00     0.089 C 
HETATM   21  C   UNL     1     -48.968 -53.499  -1.365  1.00  0.00     0.045 C 
HETATM   22  C   UNL     1     -49.644 -54.020  -2.628  1.00  0.00     0.127 C 
HETATM   23  N   UNL     1     -51.069 -54.235  -2.398  1.00  0.00    -0.352 N 
HETATM   24  C   UNL     1     -51.652 -55.404  -2.866  1.00  0.00     0.215 C 
HETATM   25  C   UNL     1     -51.812 -53.077  -1.900  1.00  0.00     0.127 C 
HETATM   26  C   UNL     1     -53.086 -55.659  -2.481  1.00  0.00     0.117 C 
HETATM   27  O   UNL     1     -51.033 -56.239  -3.525  1.00  0.00    -0.274 OA
HETATM   28  C   UNL     1     -51.179 -52.522  -0.632  1.00  0.00     0.045 C 
ENDBRANCH   1  20
TORSDOF 3
ENDMDL
MODEL 9
REMARK VINA RESULT:      -6.1     13.807     14.814
REMARK  3 active torsions:
REMARK  status: ('A' for Active; 'I' for Inactive)
REMARK       I    between atoms: C_2  and  N_4 
REMARK    1  A    between atoms: C_7  and  N_10 
REMARK       I    between atoms: N_10  and  C_11 
REMARK       I    between atoms: C_11  and  N_13 
REMARK    2  A    between atoms: N_13  and  C_14 
REMARK    3  A    between atoms: C_17  and  N_21 
ROOT
HETATM    1  N   UNL     1     -50.553 -50.807  -0.537  1.00  0.00    -0.338 N 
HETATM    2  C   UNL     1     -50.477 -49.916   0.512  1.00  0.00     0.321 C 
HETATM    3  O   UNL     1     -50.024 -50.259   1.595  1.00  0.00    -0.247 OA
HETATM    4  N   UNL     1     -50.932 -48.656   0.183  1.00  0.00    -0.308 N 
HETATM    5  H   UNL     1     -51.180 -50.599  -1.298  1.00  0.00     0.164 HD
HETATM    6  H   UNL     1     -51.514 -48.563  -0.633  1.00  0.00     0.170 HD
ENDROOT
BRANCH   4   7
HETATM    7  C   UNL     1     -50.833 -47.536   1.047  1.00  0.00     0.051 A 
HETATM    8  C   UNL     1     -51.948 -46.943   1.615  1.00  0.00     0.035 A 
HETATM    9  C   UNL     1     -51.800 -45.794   2.376  1.00  0.00     0.051 A 
HETATM   10  C   UNL     1     -50.545 -45.233   2.583  1.00  0.00     0.103 A 
HETATM   11  N   UNL     1     -49.431 -45.848   2.127  1.00  0.00    -0.350 N 
HETATM   12  C   UNL     1     -49.601 -46.975   1.374  1.00  0.00     0.119 A 
ATOM     13  HN  UNL     1     -48.501 -45.484   2.336  1.00  0.00     0.166 HD
BRANCH  10  14
HETATM   14  N   UNL     1     -50.486 -44.050   3.305  1.00  0.00    -0.367 N 
HETATM   15  C   UNL     1     -49.202 -43.417   3.571  1.00  0.00     0.124 C 
HETATM   16  C   UNL     1     -49.348 -42.667   4.906  1.00  0.00     0.020 C 
HETATM   17  C   UNL     1     -50.554 -41.716   4.915  1.00  0.00     0.003 C 
HETATM   18  C   UNL     1     -51.831 -42.410   4.442  1.00  0.00     0.020 C 
HETATM   19  C   UNL     1     -51.595 -43.113   3.109  1.00  0.00     0.124 C 
ENDBRANCH  10  14
ENDBRANCH   4   7
BRANCH   1  20
HETATM   20  C   UNL     1     -50.087 -52.181  -0.341  1.00  0.00     0.089 C 
HETATM   21  C   UNL     1     -48.726 -52.419  -0.995  1.00  0.00     0.045 C 
HETATM   22  C   UNL     1     -48.829 -52.528  -2.511  1.00  0.00     0.127 C 
HETATM   23  N   UNL     1     -49.826 -53.524  -2.889  1.00  0.00    -0.352 N 
HETATM   24  C   UNL     1     -49.520 -54.428  -3.897  1.00  0.00     0.215 C 
HETATM   25  C   UNL     1     -51.164 -53.323  -2.332  1.00  0.00     0.127 C 
HETATM   26  C   UNL     1     -50.512 -55.532  -4.156  1.00  0.00     0.117 C 
HETATM   27  O   UNL     1     -48.466 -54.385  -4.530  1.00  0.00    -0.274 OA
HETATM   28  C   UNL     1     -51.117 -53.215  -0.814  1.00  0.00     0.045 C 
ENDBRANCH   1  20
TORSDOF 3
ENDMDL
