MODEL 1
REMARK VINA RESULT:      -6.2      0.000      0.000
REMARK  4 active torsions:
REMARK  status: ('A' for Active; 'I' for Inactive)
REMARK    1  A    between atoms: N_6  and  C_7 
REMARK    2  A    between atoms: C_7  and  C_8 
REMARK       I    between atoms: C_8  and  N_10 
REMARK    3  A    between atoms: N_10  and  C_11 
REMARK    4  A    between atoms: C_11  and  C_15 
ROOT
HETATM    1  C   UNL     1     -44.532 -47.245   8.997  1.00  0.00     0.122 C 
HETATM    2  C   UNL     1     -44.378 -45.716   8.975  1.00  0.00     0.055 C 
HETATM    3  C   UNL     1     -43.755 -47.873   7.891  1.00  0.00     0.091 C 
HETATM    4  N   UNL     1     -43.180 -48.391   7.023  1.00  0.00    -0.195 NA
ENDROOT
BRANCH   1   5
HETATM    5  N   UNL     1     -44.148 -47.805  10.300  1.00  0.00    -0.338 N 
HETATM    6  C   UNL     1     -42.869 -47.648  10.805  1.00  0.00     0.237 C 
HETATM    7  O   UNL     1     -42.005 -46.996  10.224  1.00  0.00    -0.272 OA
HETATM    8  H   UNL     1     -44.814 -48.375  10.801  1.00  0.00     0.164 HD
BRANCH   6   9
HETATM    9  C   UNL     1     -42.586 -48.313  12.134  1.00  0.00     0.232 C 
BRANCH   9  10
HETATM   10  N   UNL     1     -42.032 -49.656  12.038  1.00  0.00    -0.336 N 
HETATM   11  C   UNL     1     -40.931 -50.044  11.332  1.00  0.00     0.183 A 
HETATM   12  N   UNL     1     -40.676 -51.322  11.489  1.00  0.00    -0.354 N 
HETATM   13  C   UNL     1     -41.675 -51.800  12.298  1.00  0.00     0.028 A 
ATOM     14  HN  UNL     1     -39.899 -51.849  11.093  1.00  0.00     0.166 HD
HETATM   15  C   UNL     1     -41.731 -53.235  12.660  1.00  0.00     0.070 C 
HETATM   16  C   UNL     1     -42.539 -50.780  12.663  1.00  0.00     0.031 A 
HETATM   17  C   UNL     1     -43.753 -50.820  13.513  1.00  0.00     0.070 C 
ENDBRANCH   9  10
ENDBRANCH   6   9
ENDBRANCH   1   5
BRANCH   1  18
HETATM   18  C   UNL     1     -45.973 -47.584   8.605  1.00  0.00     0.028 A 
HETATM   19  C   UNL     1     -46.797 -48.558   9.421  1.00  0.00     0.009 A 
HETATM   20  C   UNL     1     -46.467 -48.881   7.991  1.00  0.00     0.009 A 
ENDBRANCH   1  18
TORSDOF 4
ENDMDL
MODEL 2
REMARK VINA RESULT:      -5.9      2.082      3.113
REMARK  4 active torsions:
REMARK  status: ('A' for Active; 'I' for Inactive)
REMARK    1  A    between atoms: N_6  and  C_7 
REMARK    2  A    between atoms: C_7  and  C_8 
REMARK       I    between atoms: C_8  and  N_10 
REMARK    3  A    between atoms: N_10  and  C_11 
REMARK    4  A    between atoms: C_11  and  C_15 
ROOT
HETATM    1  C   UNL     1     -42.663 -47.275   9.990  1.00  0.00     0.122 C 
HETATM    2  C   UNL     1     -43.761 -47.498  11.042  1.00  0.00     0.055 C 
HETATM    3  C   UNL     1     -41.985 -45.965  10.198  1.00  0.00     0.091 C 
HETATM    4  N   UNL     1     -41.453 -44.938  10.318  1.00  0.00    -0.195 NA
ENDROOT
BRANCH   1   5
HETATM    5  N   UNL     1     -41.694 -48.380   9.982  1.00  0.00    -0.338 N 
HETATM    6  C   UNL     1     -41.027 -48.762  11.133  1.00  0.00     0.237 C 
HETATM    7  O   UNL     1     -41.240 -48.242  12.224  1.00  0.00    -0.272 OA
HETATM    8  H   UNL     1     -41.462 -48.819   9.103  1.00  0.00     0.164 HD
BRANCH   6   9
HETATM    9  C   UNL     1     -40.019 -49.881  10.984  1.00  0.00     0.232 C 
BRANCH   9  10
HETATM   10  N   UNL     1     -40.164 -50.964  11.946  1.00  0.00    -0.336 N 
HETATM   11  C   UNL     1     -41.181 -51.871  12.017  1.00  0.00     0.183 A 
HETATM   12  N   UNL     1     -40.988 -52.744  12.979  1.00  0.00    -0.354 N 
HETATM   13  C   UNL     1     -39.819 -52.368  13.590  1.00  0.00     0.028 A 
ATOM     14  HN  UNL     1     -41.583 -53.535  13.222  1.00  0.00     0.166 HD
HETATM   15  C   UNL     1     -39.306 -53.115  14.761  1.00  0.00     0.070 C 
HETATM   16  C   UNL     1     -39.275 -51.258  12.963  1.00  0.00     0.031 A 
HETATM   17  C   UNL     1     -38.038 -50.503  13.273  1.00  0.00     0.070 C 
ENDBRANCH   9  10
ENDBRANCH   6   9
ENDBRANCH   1   5
BRANCH   1  18
HETATM   18  C   UNL     1     -43.341 -47.070   8.632  1.00  0.00     0.028 A 
HETATM   19  C   UNL     1     -44.665 -47.731   8.310  1.00  0.00     0.009 A 
HETATM   20  C   UNL     1     -43.445 -48.083   7.506  1.00  0.00     0.009 A 
ENDBRANCH   1  18
TORSDOF 4
ENDMDL
MODEL 3
REMARK VINA RESULT:      -5.9      4.521      6.818
REMARK  4 active torsions:
REMARK  status: ('A' for Active; 'I' for Inactive)
REMARK    1  A    between atoms: N_6  and  C_7 
REMARK    2  A    between atoms: C_7  and  C_8 
REMARK       I    between atoms: C_8  and  N_10 
REMARK    3  A    between atoms: N_10  and  C_11 
REMARK    4  A    between atoms: C_11  and  C_15 
ROOT
HETATM    1  C   UNL     1     -45.358 -53.697  14.670  1.00  0.00     0.122 C 
HETATM    2  C   UNL     1     -45.390 -54.874  13.682  1.00  0.00     0.055 C 
HETATM    3  C   UNL     1     -45.659 -54.159  16.055  1.00  0.00     0.091 C 
HETATM    4  N   UNL     1     -45.915 -54.483  17.142  1.00  0.00    -0.195 NA
ENDROOT
BRANCH   1   5
HETATM    5  N   UNL     1     -44.075 -52.983  14.616  1.00  0.00    -0.338 N 
HETATM    6  C   UNL     1     -42.877 -53.633  14.855  1.00  0.00     0.237 C 
HETATM    7  O   UNL     1     -42.812 -54.840  15.073  1.00  0.00    -0.272 OA
HETATM    8  H   UNL     1     -44.079 -51.984  14.470  1.00  0.00     0.164 HD
BRANCH   6   9
HETATM    9  C   UNL     1     -41.629 -52.778  14.816  1.00  0.00     0.232 C 
BRANCH   9  10
HETATM   10  N   UNL     1     -41.343 -52.178  13.520  1.00  0.00    -0.336 N 
HETATM   11  C   UNL     1     -41.278 -52.814  12.315  1.00  0.00     0.183 A 
HETATM   12  N   UNL     1     -41.039 -51.975  11.334  1.00  0.00    -0.354 N 
HETATM   13  C   UNL     1     -40.900 -50.745  11.926  1.00  0.00     0.028 A 
ATOM     14  HN  UNL     1     -40.971 -52.191  10.340  1.00  0.00     0.166 HD
HETATM   15  C   UNL     1     -40.579 -49.550  11.113  1.00  0.00     0.070 C 
HETATM   16  C   UNL     1     -41.088 -50.838  13.295  1.00  0.00     0.031 A 
HETATM   17  C   UNL     1     -41.030 -49.784  14.337  1.00  0.00     0.070 C 
ENDBRANCH   9  10
ENDBRANCH   6   9
ENDBRANCH   1   5
BRANCH   1  18
HETATM   18  C   UNL     1     -46.556 -52.791  14.370  1.00  0.00     0.028 A 
HETATM   19  C   UNL     1     -46.467 -51.698  13.326  1.00  0.00     0.009 A 
HETATM   20  C   UNL     1     -46.713 -51.334  14.763  1.00  0.00     0.009 A 
ENDBRANCH   1  18
TORSDOF 4
ENDMDL
MODEL 4
REMARK VINA RESULT:      -5.8      4.258      6.143
REMARK  4 active torsions:
REMARK  status: ('A' for Active; 'I' for Inactive)
REMARK    1  A    between atoms: N_6  and  C_7 
REMARK    2  A    between atoms: C_7  and  C_8 
REMARK       I    between atoms: C_8  and  N_10 
REMARK    3  A    between atoms: N_10  and  C_11 
REMARK    4  A    between atoms: C_11  and  C_15 
ROOT
HETATM    1  C   UNL     1     -44.500 -53.078  13.804  1.00  0.00     0.122 C 
HETATM    2  C   UNL     1     -44.194 -53.931  12.562  1.00  0.00     0.055 C 
HETATM    3  C   UNL     1     -44.420 -53.899  15.045  1.00  0.00     0.091 C 
HETATM    4  N   UNL     1     -44.391 -54.518  16.029  1.00  0.00    -0.195 NA
ENDROOT
BRANCH   1   5
HETATM    5  N   UNL     1     -43.616 -51.907  13.884  1.00  0.00    -0.338 N 
HETATM    6  C   UNL     1     -42.242 -52.045  13.979  1.00  0.00     0.237 C 
HETATM    7  O   UNL     1     -41.685 -53.139  13.950  1.00  0.00    -0.272 OA
HETATM    8  H   UNL     1     -44.029 -50.988  13.941  1.00  0.00     0.164 HD
BRANCH   6   9
HETATM    9  C   UNL     1     -41.446 -50.765  14.103  1.00  0.00     0.232 C 
BRANCH   9  10
HETATM   10  N   UNL     1     -40.557 -50.490  12.983  1.00  0.00    -0.336 N 
HETATM   11  C   UNL     1     -40.914 -50.241  11.690  1.00  0.00     0.183 A 
HETATM   12  N   UNL     1     -39.869 -49.990  10.936  1.00  0.00    -0.354 N 
HETATM   13  C   UNL     1     -38.780 -50.120  11.759  1.00  0.00     0.028 A 
ATOM     14  HN  UNL     1     -39.868 -49.749   9.945  1.00  0.00     0.166 HD
HETATM   15  C   UNL     1     -37.409 -49.944  11.229  1.00  0.00     0.070 C 
HETATM   16  C   UNL     1     -39.177 -50.429  13.050  1.00  0.00     0.031 A 
HETATM   17  C   UNL     1     -38.361 -50.668  14.265  1.00  0.00     0.070 C 
ENDBRANCH   9  10
ENDBRANCH   6   9
ENDBRANCH   1   5
BRANCH   1  18
HETATM   18  C   UNL     1     -45.984 -52.701  13.767  1.00  0.00     0.028 A 
HETATM   19  C   UNL     1     -46.500 -51.647  12.810  1.00  0.00     0.009 A 
HETATM   20  C   UNL     1     -46.610 -51.422  14.292  1.00  0.00     0.009 A 
ENDBRANCH   1  18
TORSDOF 4
ENDMDL
MODEL 5
REMARK VINA RESULT:      -5.8      3.566      6.129
REMARK  4 active torsions:
REMARK  status: ('A' for Active; 'I' for Inactive)
REMARK    1  A    between atoms: N_6  and  C_7 
REMARK    2  A    between atoms: C_7  and  C_8 
REMARK       I    between atoms: C_8  and  N_10 
REMARK    3  A    between atoms: N_10  and  C_11 
REMARK    4  A    between atoms: C_11  and  C_15 
ROOT
HETATM    1  C   UNL     1     -45.690 -52.839  14.014  1.00  0.00     0.122 C 
HETATM    2  C   UNL     1     -46.436 -52.257  12.803  1.00  0.00     0.055 C 
HETATM    3  C   UNL     1     -45.600 -54.323  13.919  1.00  0.00     0.091 C 
HETATM    4  N   UNL     1     -45.535 -55.484  13.887  1.00  0.00    -0.195 NA
ENDROOT
BRANCH   1   5
HETATM    5  N   UNL     1     -44.360 -52.235  14.168  1.00  0.00    -0.338 N 
HETATM    6  C   UNL     1     -43.371 -52.414  13.216  1.00  0.00     0.237 C 
HETATM    7  O   UNL     1     -43.562 -53.038  12.176  1.00  0.00    -0.272 OA
HETATM    8  H   UNL     1     -44.146 -51.738  15.021  1.00  0.00     0.164 HD
BRANCH   6   9
HETATM    9  C   UNL     1     -42.030 -51.781  13.514  1.00  0.00     0.232 C 
BRANCH   9  10
HETATM   10  N   UNL     1     -41.565 -50.839  12.506  1.00  0.00    -0.336 N 
HETATM   11  C   UNL     1     -40.588 -51.044  11.576  1.00  0.00     0.183 A 
HETATM   12  N   UNL     1     -40.440 -50.005  10.787  1.00  0.00    -0.354 N 
HETATM   13  C   UNL     1     -41.327 -49.064  11.246  1.00  0.00     0.028 A 
ATOM     14  HN  UNL     1     -39.799 -49.915   9.999  1.00  0.00     0.166 HD
HETATM   15  C   UNL     1     -41.407 -47.730  10.609  1.00  0.00     0.070 C 
HETATM   16  C   UNL     1     -42.050 -49.557  12.320  1.00  0.00     0.031 A 
HETATM   17  C   UNL     1     -43.104 -48.908  13.135  1.00  0.00     0.070 C 
ENDBRANCH   9  10
ENDBRANCH   6   9
ENDBRANCH   1   5
BRANCH   1  18
HETATM   18  C   UNL     1     -46.574 -52.653  15.251  1.00  0.00     0.028 A 
HETATM   19  C   UNL     1     -47.235 -51.324  15.548  1.00  0.00     0.009 A 
HETATM   20  C   UNL     1     -46.224 -51.881  16.510  1.00  0.00     0.009 A 
ENDBRANCH   1  18
TORSDOF 4
ENDMDL
MODEL 6
REMARK VINA RESULT:      -5.7      4.834      6.597
REMARK  4 active torsions:
REMARK  status: ('A' for Active; 'I' for Inactive)
REMARK    1  A    between atoms: N_6  and  C_7 
REMARK    2  A    between atoms: C_7  and  C_8 
REMARK       I    between atoms: C_8  and  N_10 
REMARK    3  A    between atoms: N_10  and  C_11 
REMARK    4  A    between atoms: C_11  and  C_15 
ROOT
HETATM    1  C   UNL     1     -45.419 -52.778  14.545  1.00  0.00     0.122 C 
HETATM    2  C   UNL     1     -45.960 -51.830  13.463  1.00  0.00     0.055 C 
HETATM    3  C   UNL     1     -46.195 -54.050  14.573  1.00  0.00     0.091 C 
HETATM    4  N   UNL     1     -46.797 -55.043  14.637  1.00  0.00    -0.195 NA
ENDROOT
BRANCH   1   5
HETATM    5  N   UNL     1     -43.983 -53.035  14.367  1.00  0.00    -0.338 N 
HETATM    6  C   UNL     1     -43.511 -53.775  13.296  1.00  0.00     0.237 C 
HETATM    7  O   UNL     1     -44.250 -54.211  12.417  1.00  0.00    -0.272 OA
HETATM    8  H   UNL     1     -43.340 -52.724  15.079  1.00  0.00     0.164 HD
BRANCH   6   9
HETATM    9  C   UNL     1     -42.017 -54.010  13.251  1.00  0.00     0.232 C 
BRANCH   9  10
HETATM   10  N   UNL     1     -41.239 -52.887  12.747  1.00  0.00    -0.336 N 
HETATM   11  C   UNL     1     -41.528 -52.104  11.668  1.00  0.00     0.183 A 
HETATM   12  N   UNL     1     -40.641 -51.149  11.508  1.00  0.00    -0.354 N 
HETATM   13  C   UNL     1     -39.711 -51.339  12.498  1.00  0.00     0.028 A 
ATOM     14  HN  UNL     1     -40.644 -50.418  10.797  1.00  0.00     0.166 HD
HETATM   15  C   UNL     1     -38.527 -50.457  12.600  1.00  0.00     0.070 C 
HETATM   16  C   UNL     1     -40.059 -52.419  13.294  1.00  0.00     0.031 A 
HETATM   17  C   UNL     1     -39.362 -52.999  14.467  1.00  0.00     0.070 C 
ENDBRANCH   9  10
ENDBRANCH   6   9
ENDBRANCH   1   5
BRANCH   1  18
HETATM   18  C   UNL     1     -45.749 -52.175  15.914  1.00  0.00     0.028 A 
HETATM   19  C   UNL     1     -46.948 -51.270  16.102  1.00  0.00     0.009 A 
HETATM   20  C   UNL     1     -45.566 -50.729  16.337  1.00  0.00     0.009 A 
ENDBRANCH   1  18
TORSDOF 4
ENDMDL
MODEL 7
REMARK VINA RESULT:      -5.4      4.100      5.727
REMARK  4 active torsions:
REMARK  status: ('A' for Active; 'I' for Inactive)
REMARK    1  A    between atoms: N_6  and  C_7 
REMARK    2  A    between atoms: C_7  and  C_8 
REMARK       I    between atoms: C_8  and  N_10 
REMARK    3  A    between atoms: N_10  and  C_11 
REMARK    4  A    between atoms: C_11  and  C_15 
ROOT
HETATM    1  C   UNL     1     -45.256 -52.466  12.924  1.00  0.00     0.122 C 
HETATM    2  C   UNL     1     -45.225 -51.354  13.985  1.00  0.00     0.055 C 
HETATM    3  C   UNL     1     -46.363 -52.242  11.952  1.00  0.00     0.091 C 
HETATM    4  N   UNL     1     -47.233 -52.108  11.192  1.00  0.00    -0.195 NA
ENDROOT
BRANCH   1   5
HETATM    5  N   UNL     1     -43.963 -52.591  12.237  1.00  0.00    -0.338 N 
HETATM    6  C   UNL     1     -42.772 -52.310  12.885  1.00  0.00     0.237 C 
HETATM    7  O   UNL     1     -42.724 -51.993  14.070  1.00  0.00    -0.272 OA
HETATM    8  H   UNL     1     -43.953 -52.819  11.254  1.00  0.00     0.164 HD
BRANCH   6   9
HETATM    9  C   UNL     1     -41.513 -52.430  12.055  1.00  0.00     0.232 C 
BRANCH   9  10
HETATM   10  N   UNL     1     -40.625 -51.278  12.125  1.00  0.00    -0.336 N 
HETATM   11  C   UNL     1     -40.715 -50.125  11.403  1.00  0.00     0.183 A 
HETATM   12  N   UNL     1     -39.779 -49.266  11.737  1.00  0.00    -0.354 N 
HETATM   13  C   UNL     1     -39.020 -49.900  12.687  1.00  0.00     0.028 A 
ATOM     14  HN  UNL     1     -39.645 -48.326  11.367  1.00  0.00     0.166 HD
HETATM   15  C   UNL     1     -37.833 -49.234  13.270  1.00  0.00     0.070 C 
HETATM   16  C   UNL     1     -39.526 -51.161  12.956  1.00  0.00     0.031 A 
HETATM   17  C   UNL     1     -39.040 -52.200  13.895  1.00  0.00     0.070 C 
ENDBRANCH   9  10
ENDBRANCH   6   9
ENDBRANCH   1   5
BRANCH   1  18
HETATM   18  C   UNL     1     -45.693 -53.765  13.609  1.00  0.00     0.028 A 
HETATM   19  C   UNL     1     -45.417 -54.005  15.078  1.00  0.00     0.009 A 
HETATM   20  C   UNL     1     -44.795 -54.906  14.049  1.00  0.00     0.009 A 
ENDBRANCH   1  18
TORSDOF 4
ENDMDL
MODEL 8
REMARK VINA RESULT:      -5.3      5.849      7.379
REMARK  4 active torsions:
REMARK  status: ('A' for Active; 'I' for Inactive)
REMARK    1  A    between atoms: N_6  and  C_7 
REMARK    2  A    between atoms: C_7  and  C_8 
REMARK       I    between atoms: C_8  and  N_10 
REMARK    3  A    between atoms: N_10  and  C_11 
REMARK    4  A    between atoms: C_11  and  C_15 
ROOT
HETATM    1  C   UNL     1     -44.977 -53.360  13.911  1.00  0.00     0.122 C 
HETATM    2  C   UNL     1     -44.616 -52.874  12.498  1.00  0.00     0.055 C 
HETATM    3  C   UNL     1     -45.377 -54.795  13.893  1.00  0.00     0.091 C 
HETATM    4  N   UNL     1     -45.719 -55.906  13.908  1.00  0.00    -0.195 NA
ENDROOT
BRANCH   1   5
HETATM    5  N   UNL     1     -43.877 -53.127  14.857  1.00  0.00    -0.338 N 
HETATM    6  C   UNL     1     -42.636 -53.713  14.680  1.00  0.00     0.237 C 
HETATM    7  O   UNL     1     -42.369 -54.413  13.706  1.00  0.00    -0.272 OA
HETATM    8  H   UNL     1     -44.057 -52.584  15.689  1.00  0.00     0.164 HD
BRANCH   6   9
HETATM    9  C   UNL     1     -41.603 -53.434  15.749  1.00  0.00     0.232 C 
BRANCH   9  10
HETATM   10  N   UNL     1     -40.713 -54.548  16.042  1.00  0.00    -0.336 N 
HETATM   11  C   UNL     1     -39.416 -54.693  15.644  1.00  0.00     0.183 A 
HETATM   12  N   UNL     1     -38.883 -55.797  16.114  1.00  0.00    -0.354 N 
HETATM   13  C   UNL     1     -39.884 -56.422  16.814  1.00  0.00     0.028 A 
ATOM     14  HN  UNL     1     -37.925 -56.122  15.986  1.00  0.00     0.166 HD
HETATM   15  C   UNL     1     -39.648 -57.734  17.457  1.00  0.00     0.070 C 
HETATM   16  C   UNL     1     -41.043 -55.663  16.791  1.00  0.00     0.031 A 
HETATM   17  C   UNL     1     -42.368 -55.933  17.397  1.00  0.00     0.070 C 
ENDBRANCH   9  10
ENDBRANCH   6   9
ENDBRANCH   1   5
BRANCH   1  18
HETATM   18  C   UNL     1     -46.279 -52.672  14.332  1.00  0.00     0.028 A 
HETATM   19  C   UNL     1     -46.752 -51.406  13.649  1.00  0.00     0.009 A 
HETATM   20  C   UNL     1     -46.411 -51.377  15.112  1.00  0.00     0.009 A 
ENDBRANCH   1  18
TORSDOF 4
ENDMDL
MODEL 9
REMARK VINA RESULT:      -5.2      4.420      6.352
REMARK  4 active torsions:
REMARK  status: ('A' for Active; 'I' for Inactive)
REMARK    1  A    between atoms: N_6  and  C_7 
REMARK    2  A    between atoms: C_7  and  C_8 
REMARK       I    between atoms: C_8  and  N_10 
REMARK    3  A    between atoms: N_10  and  C_11 
REMARK    4  A    between atoms: C_11  and  C_15 
ROOT
HETATM    1  C   UNL     1     -38.856 -49.797  12.435  1.00  0.00     0.122 C 
HETATM    2  C   UNL     1     -37.551 -49.711  11.627  1.00  0.00     0.055 C 
HETATM    3  C   UNL     1     -39.907 -48.923  11.842  1.00  0.00     0.091 C 
HETATM    4  N   UNL     1     -40.739 -48.231  11.418  1.00  0.00    -0.195 NA
ENDROOT
BRANCH   1   5
HETATM    5  N   UNL     1     -39.324 -51.185  12.554  1.00  0.00    -0.338 N 
HETATM    6  C   UNL     1     -40.319 -51.535  13.450  1.00  0.00     0.237 C 
HETATM    7  O   UNL     1     -40.898 -50.709  14.151  1.00  0.00    -0.272 OA
HETATM    8  H   UNL     1     -38.858 -51.904  12.021  1.00  0.00     0.164 HD
BRANCH   6   9
HETATM    9  C   UNL     1     -40.679 -53.003  13.512  1.00  0.00     0.232 C 
BRANCH   9  10
HETATM   10  N   UNL     1     -42.071 -53.303  13.208  1.00  0.00    -0.336 N 
HETATM   11  C   UNL     1     -42.812 -52.810  12.174  1.00  0.00     0.183 A 
HETATM   12  N   UNL     1     -44.025 -53.313  12.160  1.00  0.00    -0.354 N 
HETATM   13  C   UNL     1     -44.094 -54.138  13.254  1.00  0.00     0.028 A 
ATOM     14  HN  UNL     1     -44.761 -53.130  11.479  1.00  0.00     0.166 HD
HETATM   15  C   UNL     1     -45.349 -54.854  13.580  1.00  0.00     0.070 C 
HETATM   16  C   UNL     1     -42.885 -54.156  13.930  1.00  0.00     0.031 A 
HETATM   17  C   UNL     1     -42.493 -54.889  15.157  1.00  0.00     0.070 C 
ENDBRANCH   9  10
ENDBRANCH   6   9
ENDBRANCH   1   5
BRANCH   1  18
HETATM   18  C   UNL     1     -38.618 -49.131  13.793  1.00  0.00     0.028 A 
HETATM   19  C   UNL     1     -37.486 -48.146  13.994  1.00  0.00     0.009 A 
HETATM   20  C   UNL     1     -37.496 -49.434  14.769  1.00  0.00     0.009 A 
ENDBRANCH   1  18
TORSDOF 4
ENDMDL
