MODEL 1
REMARK VINA RESULT:      -7.1      0.000      0.000
REMARK  4 active torsions:
REMARK  status: ('A' for Active; 'I' for Inactive)
REMARK    1  A    between atoms: C_5  and  C_11 
REMARK    2  A    between atoms: N_6  and  C_13 
REMARK    3  A    between atoms: C_13  and  C_14 
REMARK    4  A    between atoms: C_14  and  O_20 
ROOT
HETATM    1  C   UNL     1     -42.957 -47.318  10.284  1.00  0.00     0.143 A 
HETATM    2  C   UNL     1     -42.818 -45.956  10.129  1.00  0.00     0.146 A 
HETATM    3  N   UNL     1     -44.015 -48.099   9.954  1.00  0.00    -0.322 N 
ATOM      4  HN  UNL     1     -44.040 -49.106  10.110  1.00  0.00     0.169 HD
HETATM    5  C   UNL     1     -45.003 -47.427   9.414  1.00  0.00     0.195 A 
HETATM    6  N   UNL     1     -41.787 -47.737  10.858  1.00  0.00    -0.324 N 
HETATM    7  N   UNL     1     -41.627 -45.516  10.645  1.00  0.00    -0.345 N 
ATOM      8  HN  UNL     1     -41.276 -44.559  10.678  1.00  0.00     0.167 HD
HETATM    9  N   UNL     1     -44.960 -46.048   9.167  1.00  0.00    -0.303 N 
HETATM   10  C   UNL     1     -43.893 -45.223   9.495  1.00  0.00     0.277 A 
HETATM   11  C   UNL     1     -41.037 -46.608  11.089  1.00  0.00     0.185 A 
HETATM   12  O   UNL     1     -43.912 -44.023   9.255  1.00  0.00    -0.266 OA
HETATM   13  H   UNL     1     -45.748 -45.584   8.733  1.00  0.00     0.170 HD
ENDROOT
BRANCH   6  14
HETATM   14  C   UNL     1     -41.304 -49.099  10.989  1.00  0.00     0.171 C 
BRANCH  14  15
HETATM   15  C   UNL     1     -41.764 -49.921  12.223  1.00  0.00     0.096 C 
HETATM   16  C   UNL     1     -41.428 -49.222  13.548  1.00  0.00     0.207 C 
HETATM   17  O   UNL     1     -40.015 -49.052  13.683  1.00  0.00    -0.388 OA
HETATM   18  C   UNL     1     -39.332 -50.304  13.789  1.00  0.00     0.167 C 
HETATM   19  C   UNL     1     -39.554 -51.164  12.549  1.00  0.00     0.029 C 
HETATM   20  C   UNL     1     -41.040 -51.286  12.223  1.00  0.00     0.044 C 
BRANCH  15  21
HETATM   21  O   UNL     1     -43.159 -50.237  12.176  1.00  0.00    -0.386 OA
HETATM   22  H   UNL     1     -43.283 -51.155  12.493  1.00  0.00     0.210 HD
ENDBRANCH  15  21
ENDBRANCH  14  15
ENDBRANCH   6  14
BRANCH   5  23
HETATM   23  C   UNL     1     -46.323 -48.103   9.026  1.00  0.00     0.449 C 
HETATM   24  F   UNL     1     -46.283 -48.572   7.746  1.00  0.00    -0.163 F 
HETATM   25  F   UNL     1     -46.625 -49.163   9.818  1.00  0.00    -0.163 F 
HETATM   26  F   UNL     1     -47.374 -47.243   9.088  1.00  0.00    -0.163 F 
ENDBRANCH   5  23
TORSDOF 4
ENDMDL
MODEL 2
REMARK VINA RESULT:      -7.1      1.137      1.404
REMARK  4 active torsions:
REMARK  status: ('A' for Active; 'I' for Inactive)
REMARK    1  A    between atoms: C_5  and  C_11 
REMARK    2  A    between atoms: N_6  and  C_13 
REMARK    3  A    between atoms: C_13  and  C_14 
REMARK    4  A    between atoms: C_14  and  O_20 
ROOT
HETATM    1  C   UNL     1     -43.336 -47.457  10.774  1.00  0.00     0.143 A 
HETATM    2  C   UNL     1     -43.026 -46.160  10.425  1.00  0.00     0.146 A 
HETATM    3  N   UNL     1     -44.392 -48.206  10.374  1.00  0.00    -0.322 N 
ATOM      4  HN  UNL     1     -44.553 -49.163  10.688  1.00  0.00     0.169 HD
HETATM    5  C   UNL     1     -45.187 -47.575   9.542  1.00  0.00     0.195 A 
HETATM    6  N   UNL     1     -42.343 -47.846  11.633  1.00  0.00    -0.324 N 
HETATM    7  N   UNL     1     -41.910 -45.721  11.088  1.00  0.00    -0.345 N 
ATOM      8  HN  UNL     1     -41.471 -44.802  11.031  1.00  0.00     0.167 HD
HETATM    9  N   UNL     1     -44.951 -46.272   9.082  1.00  0.00    -0.303 N 
HETATM   10  C   UNL     1     -43.881 -45.481   9.474  1.00  0.00     0.277 A 
HETATM   11  C   UNL     1     -41.532 -46.752  11.817  1.00  0.00     0.185 A 
HETATM   12  O   UNL     1     -43.726 -44.348   9.039  1.00  0.00    -0.266 OA
HETATM   13  H   UNL     1     -45.591 -45.841   8.427  1.00  0.00     0.170 HD
ENDROOT
BRANCH   6  14
HETATM   14  C   UNL     1     -42.041 -49.192  12.083  1.00  0.00     0.171 C 
BRANCH  14  15
HETATM   15  C   UNL     1     -40.780 -49.890  11.504  1.00  0.00     0.096 C 
HETATM   16  C   UNL     1     -40.728 -51.383  11.854  1.00  0.00     0.207 C 
HETATM   17  O   UNL     1     -40.674 -51.568  13.270  1.00  0.00    -0.388 OA
HETATM   18  C   UNL     1     -39.461 -51.055  13.831  1.00  0.00     0.167 C 
HETATM   19  C   UNL     1     -39.322 -49.558  13.577  1.00  0.00     0.029 C 
HETATM   20  C   UNL     1     -39.516 -49.230  12.099  1.00  0.00     0.044 C 
BRANCH  15  21
HETATM   21  O   UNL     1     -40.664 -49.712  10.089  1.00  0.00    -0.386 OA
HETATM   22  H   UNL     1     -39.749 -49.431   9.882  1.00  0.00     0.210 HD
ENDBRANCH  15  21
ENDBRANCH  14  15
ENDBRANCH   6  14
BRANCH   5  23
HETATM   23  C   UNL     1     -46.477 -48.214   9.016  1.00  0.00     0.449 C 
HETATM   24  F   UNL     1     -46.341 -48.611   7.719  1.00  0.00    -0.163 F 
HETATM   25  F   UNL     1     -46.846 -49.313   9.721  1.00  0.00    -0.163 F 
HETATM   26  F   UNL     1     -47.524 -47.347   9.046  1.00  0.00    -0.163 F 
ENDBRANCH   5  23
TORSDOF 4
ENDMDL
MODEL 3
REMARK VINA RESULT:      -6.9      1.892      2.406
REMARK  4 active torsions:
REMARK  status: ('A' for Active; 'I' for Inactive)
REMARK    1  A    between atoms: C_5  and  C_11 
REMARK    2  A    between atoms: N_6  and  C_13 
REMARK    3  A    between atoms: C_13  and  C_14 
REMARK    4  A    between atoms: C_14  and  O_20 
ROOT
HETATM    1  C   UNL     1     -41.384 -48.162  10.902  1.00  0.00     0.143 A 
HETATM    2  C   UNL     1     -40.686 -46.978  11.002  1.00  0.00     0.146 A 
HETATM    3  N   UNL     1     -42.532 -48.406  10.222  1.00  0.00    -0.322 N 
ATOM      4  HN  UNL     1     -42.991 -49.317  10.206  1.00  0.00     0.169 HD
HETATM    5  C   UNL     1     -42.991 -47.354   9.589  1.00  0.00     0.195 A 
HETATM    6  N   UNL     1     -40.676 -49.063  11.649  1.00  0.00    -0.324 N 
HETATM    7  N   UNL     1     -39.606 -47.108  11.835  1.00  0.00    -0.345 N 
ATOM      8  HN  UNL     1     -38.930 -46.391  12.098  1.00  0.00     0.167 HD
HETATM    9  N   UNL     1     -42.345 -46.110   9.582  1.00  0.00    -0.303 N 
HETATM   10  C   UNL     1     -41.171 -45.829  10.267  1.00  0.00     0.277 A 
HETATM   11  C   UNL     1     -39.636 -48.369  12.219  1.00  0.00     0.185 A 
HETATM   12  O   UNL     1     -40.652 -44.722  10.225  1.00  0.00    -0.266 OA
HETATM   13  H   UNL     1     -42.738 -45.336   9.061  1.00  0.00     0.170 HD
ENDROOT
BRANCH   6  14
HETATM   14  C   UNL     1     -40.821 -50.507  11.665  1.00  0.00     0.171 C 
BRANCH  14  15
HETATM   15  C   UNL     1     -41.891 -51.122  12.608  1.00  0.00     0.096 C 
HETATM   16  C   UNL     1     -41.481 -51.042  14.085  1.00  0.00     0.207 C 
HETATM   17  O   UNL     1     -40.275 -51.775  14.314  1.00  0.00    -0.388 OA
HETATM   18  C   UNL     1     -40.451 -53.178  14.097  1.00  0.00     0.167 C 
HETATM   19  C   UNL     1     -40.876 -53.467  12.662  1.00  0.00     0.029 C 
HETATM   20  C   UNL     1     -42.077 -52.616  12.260  1.00  0.00     0.044 C 
BRANCH  15  21
HETATM   21  O   UNL     1     -43.181 -50.531  12.424  1.00  0.00    -0.386 OA
HETATM   22  H   UNL     1     -43.742 -50.756  13.194  1.00  0.00     0.210 HD
ENDBRANCH  15  21
ENDBRANCH  14  15
ENDBRANCH   6  14
BRANCH   5  23
HETATM   23  C   UNL     1     -44.312 -47.391   8.811  1.00  0.00     0.449 C 
HETATM   24  F   UNL     1     -44.731 -46.135   8.486  1.00  0.00    -0.163 F 
HETATM   25  F   UNL     1     -44.219 -48.082   7.648  1.00  0.00    -0.163 F 
HETATM   26  F   UNL     1     -45.314 -47.955   9.536  1.00  0.00    -0.163 F 
ENDBRANCH   5  23
TORSDOF 4
ENDMDL
MODEL 4
REMARK VINA RESULT:      -6.4      3.513      5.356
REMARK  4 active torsions:
REMARK  status: ('A' for Active; 'I' for Inactive)
REMARK    1  A    between atoms: C_5  and  C_11 
REMARK    2  A    between atoms: N_6  and  C_13 
REMARK    3  A    between atoms: C_13  and  C_14 
REMARK    4  A    between atoms: C_14  and  O_20 
ROOT
HETATM    1  C   UNL     1     -41.202 -50.740  12.078  1.00  0.00     0.143 A 
HETATM    2  C   UNL     1     -39.854 -50.624  12.342  1.00  0.00     0.146 A 
HETATM    3  N   UNL     1     -42.010 -49.863  11.434  1.00  0.00    -0.322 N 
ATOM      4  HN  UNL     1     -43.006 -50.023  11.285  1.00  0.00     0.169 HD
HETATM    5  C   UNL     1     -41.382 -48.788  11.021  1.00  0.00     0.195 A 
HETATM    6  N   UNL     1     -41.572 -51.943  12.615  1.00  0.00    -0.324 N 
HETATM    7  N   UNL     1     -39.399 -51.688  13.077  1.00  0.00    -0.345 N 
ATOM      8  HN  UNL     1     -38.453 -51.849  13.422  1.00  0.00     0.167 HD
HETATM    9  N   UNL     1     -40.007 -48.580  11.193  1.00  0.00    -0.303 N 
HETATM   10  C   UNL     1     -39.154 -49.457  11.849  1.00  0.00     0.277 A 
HETATM   11  C   UNL     1     -40.459 -52.455  13.236  1.00  0.00     0.185 A 
HETATM   12  O   UNL     1     -37.959 -49.221  11.970  1.00  0.00    -0.266 OA
HETATM   13  H   UNL     1     -39.571 -47.737  10.839  1.00  0.00     0.170 HD
ENDROOT
BRANCH   6  14
HETATM   14  C   UNL     1     -42.808 -52.669  12.388  1.00  0.00     0.171 C 
BRANCH  14  15
HETATM   15  C   UNL     1     -44.072 -52.223  13.172  1.00  0.00     0.096 C 
HETATM   16  C   UNL     1     -43.834 -52.185  14.688  1.00  0.00     0.207 C 
HETATM   17  O   UNL     1     -43.495 -53.485  15.178  1.00  0.00    -0.388 OA
HETATM   18  C   UNL     1     -44.578 -54.409  15.038  1.00  0.00     0.167 C 
HETATM   19  C   UNL     1     -44.975 -54.579  13.576  1.00  0.00     0.029 C 
HETATM   20  C   UNL     1     -45.215 -53.228  12.908  1.00  0.00     0.044 C 
BRANCH  15  21
HETATM   21  O   UNL     1     -44.572 -50.960  12.722  1.00  0.00    -0.386 OA
HETATM   22  H   UNL     1     -43.903 -50.548  12.138  1.00  0.00     0.210 HD
ENDBRANCH  15  21
ENDBRANCH  14  15
ENDBRANCH   6  14
BRANCH   5  23
HETATM   23  C   UNL     1     -42.119 -47.637  10.326  1.00  0.00     0.449 C 
HETATM   24  F   UNL     1     -43.220 -47.255  11.034  1.00  0.00    -0.163 F 
HETATM   25  F   UNL     1     -41.348 -46.530  10.180  1.00  0.00    -0.163 F 
HETATM   26  F   UNL     1     -42.559 -47.987   9.089  1.00  0.00    -0.163 F 
ENDBRANCH   5  23
TORSDOF 4
ENDMDL
MODEL 5
REMARK VINA RESULT:      -6.4      2.987      5.646
REMARK  4 active torsions:
REMARK  status: ('A' for Active; 'I' for Inactive)
REMARK    1  A    between atoms: C_5  and  C_11 
REMARK    2  A    between atoms: N_6  and  C_13 
REMARK    3  A    between atoms: C_13  and  C_14 
REMARK    4  A    between atoms: C_14  and  O_20 
ROOT
HETATM    1  C   UNL     1     -42.349 -45.999  11.282  1.00  0.00     0.143 A 
HETATM    2  C   UNL     1     -41.371 -46.965  11.382  1.00  0.00     0.146 A 
HETATM    3  N   UNL     1     -43.520 -46.055  10.602  1.00  0.00    -0.322 N 
ATOM      4  HN  UNL     1     -44.190 -45.286  10.573  1.00  0.00     0.169 HD
HETATM    5  C   UNL     1     -43.704 -47.197   9.984  1.00  0.00     0.195 A 
HETATM    6  N   UNL     1     -41.887 -44.942  12.019  1.00  0.00    -0.324 N 
HETATM    7  N   UNL     1     -40.299 -46.513  12.105  1.00  0.00    -0.345 N 
ATOM      8  HN  UNL     1     -39.435 -47.012  12.320  1.00  0.00     0.167 HD
HETATM    9  N   UNL     1     -42.802 -48.268  10.049  1.00  0.00    -0.303 N 
HETATM   10  C   UNL     1     -41.596 -48.241  10.735  1.00  0.00     0.277 A 
HETATM   11  C   UNL     1     -40.634 -45.289  12.461  1.00  0.00     0.185 A 
HETATM   12  O   UNL     1     -40.846 -49.207  10.755  1.00  0.00    -0.266 OA
HETATM   13  H   UNL     1     -43.004 -49.134   9.564  1.00  0.00     0.170 HD
ENDROOT
BRANCH   6  14
HETATM   14  C   UNL     1     -42.636 -43.781  12.463  1.00  0.00     0.171 C 
BRANCH  14  15
HETATM   15  C   UNL     1     -42.897 -42.644  11.437  1.00  0.00     0.096 C 
HETATM   16  C   UNL     1     -41.598 -41.992  10.945  1.00  0.00     0.207 C 
HETATM   17  O   UNL     1     -40.890 -41.395  12.033  1.00  0.00    -0.388 OA
HETATM   18  C   UNL     1     -41.612 -40.300  12.605  1.00  0.00     0.167 C 
HETATM   19  C   UNL     1     -42.961 -40.751  13.152  1.00  0.00     0.029 C 
HETATM   20  C   UNL     1     -43.745 -41.539  12.107  1.00  0.00     0.044 C 
BRANCH  15  21
HETATM   21  O   UNL     1     -43.676 -43.089  10.322  1.00  0.00    -0.386 OA
HETATM   22  H   UNL     1     -43.184 -42.894   9.498  1.00  0.00     0.210 HD
ENDBRANCH  15  21
ENDBRANCH  14  15
ENDBRANCH   6  14
BRANCH   5  23
HETATM   23  C   UNL     1     -44.933 -47.451   9.102  1.00  0.00     0.449 C 
HETATM   24  F   UNL     1     -44.593 -48.103   7.954  1.00  0.00    -0.163 F 
HETATM   25  F   UNL     1     -45.874 -48.211   9.716  1.00  0.00    -0.163 F 
HETATM   26  F   UNL     1     -45.535 -46.293   8.724  1.00  0.00    -0.163 F 
ENDBRANCH   5  23
TORSDOF 4
ENDMDL
MODEL 6
REMARK VINA RESULT:      -6.1      3.625      6.078
REMARK  4 active torsions:
REMARK  status: ('A' for Active; 'I' for Inactive)
REMARK    1  A    between atoms: C_5  and  C_11 
REMARK    2  A    between atoms: N_6  and  C_13 
REMARK    3  A    between atoms: C_13  and  C_14 
REMARK    4  A    between atoms: C_14  and  O_20 
ROOT
HETATM    1  C   UNL     1     -42.620 -51.639  13.017  1.00  0.00     0.143 A 
HETATM    2  C   UNL     1     -42.060 -52.800  13.504  1.00  0.00     0.146 A 
HETATM    3  N   UNL     1     -43.932 -51.346  12.846  1.00  0.00    -0.322 N 
ATOM      4  HN  UNL     1     -44.265 -50.459  12.469  1.00  0.00     0.169 HD
HETATM    5  C   UNL     1     -44.731 -52.319  13.215  1.00  0.00     0.195 A 
HETATM    6  N   UNL     1     -41.561 -50.823  12.725  1.00  0.00    -0.324 N 
HETATM    7  N   UNL     1     -40.691 -52.746  13.464  1.00  0.00    -0.345 N 
ATOM      8  HN  UNL     1     -40.028 -53.468  13.747  1.00  0.00     0.167 HD
HETATM    9  N   UNL     1     -44.279 -53.527  13.764  1.00  0.00    -0.303 N 
HETATM   10  C   UNL     1     -42.944 -53.857  13.950  1.00  0.00     0.277 A 
HETATM   11  C   UNL     1     -40.423 -51.550  12.977  1.00  0.00     0.185 A 
HETATM   12  O   UNL     1     -42.608 -54.928  14.434  1.00  0.00    -0.266 OA
HETATM   13  H   UNL     1     -44.943 -54.238  14.046  1.00  0.00     0.170 HD
ENDROOT
BRANCH   6  14
HETATM   14  C   UNL     1     -41.594 -49.401  12.439  1.00  0.00     0.171 C 
BRANCH  14  15
HETATM   15  C   UNL     1     -40.899 -48.900  11.143  1.00  0.00     0.096 C 
HETATM   16  C   UNL     1     -39.700 -47.988  11.440  1.00  0.00     0.207 C 
HETATM   17  O   UNL     1     -40.120 -46.819  12.148  1.00  0.00    -0.388 OA
HETATM   18  C   UNL     1     -40.975 -45.991  11.354  1.00  0.00     0.167 C 
HETATM   19  C   UNL     1     -42.241 -46.734  10.944  1.00  0.00     0.029 C 
HETATM   20  C   UNL     1     -41.908 -48.081  10.308  1.00  0.00     0.044 C 
BRANCH  15  21
HETATM   21  O   UNL     1     -40.497 -49.978  10.292  1.00  0.00    -0.386 OA
HETATM   22  H   UNL     1     -39.533 -49.909  10.133  1.00  0.00     0.210 HD
ENDBRANCH  15  21
ENDBRANCH  14  15
ENDBRANCH   6  14
BRANCH   5  23
HETATM   23  C   UNL     1     -46.252 -52.225  13.047  1.00  0.00     0.449 C 
HETATM   24  F   UNL     1     -46.736 -51.056  13.555  1.00  0.00    -0.163 F 
HETATM   25  F   UNL     1     -46.642 -52.273  11.748  1.00  0.00    -0.163 F 
HETATM   26  F   UNL     1     -46.900 -53.226  13.698  1.00  0.00    -0.163 F 
ENDBRANCH   5  23
TORSDOF 4
ENDMDL
MODEL 7
REMARK VINA RESULT:      -6.1      2.258      2.794
REMARK  4 active torsions:
REMARK  status: ('A' for Active; 'I' for Inactive)
REMARK    1  A    between atoms: C_5  and  C_11 
REMARK    2  A    between atoms: N_6  and  C_13 
REMARK    3  A    between atoms: C_13  and  C_14 
REMARK    4  A    between atoms: C_14  and  O_20 
ROOT
HETATM    1  C   UNL     1     -40.884 -46.766  11.623  1.00  0.00     0.143 A 
HETATM    2  C   UNL     1     -41.230 -45.645  12.346  1.00  0.00     0.146 A 
HETATM    3  N   UNL     1     -41.479 -47.267  10.513  1.00  0.00    -0.322 N 
ATOM      4  HN  UNL     1     -41.162 -48.113  10.039  1.00  0.00     0.169 HD
HETATM    5  C   UNL     1     -42.503 -46.554  10.110  1.00  0.00     0.195 A 
HETATM    6  N   UNL     1     -39.797 -47.291  12.269  1.00  0.00    -0.324 N 
HETATM    7  N   UNL     1     -40.428 -45.499  13.448  1.00  0.00    -0.345 N 
ATOM      8  HN  UNL     1     -40.473 -44.770  14.161  1.00  0.00     0.167 HD
HETATM    9  N   UNL     1     -42.921 -45.373  10.738  1.00  0.00    -0.303 N 
HETATM   10  C   UNL     1     -42.334 -44.836  11.875  1.00  0.00     0.277 A 
HETATM   11  C   UNL     1     -39.587 -46.512  13.381  1.00  0.00     0.185 A 
HETATM   12  O   UNL     1     -42.743 -43.800  12.381  1.00  0.00    -0.266 OA
HETATM   13  H   UNL     1     -43.710 -44.854  10.373  1.00  0.00     0.170 HD
ENDROOT
BRANCH   6  14
HETATM   14  C   UNL     1     -38.885 -48.308  11.781  1.00  0.00     0.171 C 
BRANCH  14  15
HETATM   15  C   UNL     1     -39.395 -49.773  11.713  1.00  0.00     0.096 C 
HETATM   16  C   UNL     1     -40.286 -50.137  12.908  1.00  0.00     0.207 C 
HETATM   17  O   UNL     1     -39.559 -50.021  14.133  1.00  0.00    -0.388 OA
HETATM   18  C   UNL     1     -38.494 -50.973  14.216  1.00  0.00     0.167 C 
HETATM   19  C   UNL     1     -37.488 -50.779  13.087  1.00  0.00     0.029 C 
HETATM   20  C   UNL     1     -38.184 -50.734  11.729  1.00  0.00     0.044 C 
BRANCH  15  21
HETATM   21  O   UNL     1     -40.078 -50.054  10.487  1.00  0.00    -0.386 OA
HETATM   22  H   UNL     1     -39.884 -49.337   9.849  1.00  0.00     0.210 HD
ENDBRANCH  15  21
ENDBRANCH  14  15
ENDBRANCH   6  14
BRANCH   5  23
HETATM   23  C   UNL     1     -43.361 -46.977   8.912  1.00  0.00     0.449 C 
HETATM   24  F   UNL     1     -43.365 -46.019   7.941  1.00  0.00    -0.163 F 
HETATM   25  F   UNL     1     -42.921 -48.120   8.326  1.00  0.00    -0.163 F 
HETATM   26  F   UNL     1     -44.659 -47.178   9.260  1.00  0.00    -0.163 F 
ENDBRANCH   5  23
TORSDOF 4
ENDMDL
MODEL 8
REMARK VINA RESULT:      -6.1      4.657      6.208
REMARK  4 active torsions:
REMARK  status: ('A' for Active; 'I' for Inactive)
REMARK    1  A    between atoms: C_5  and  C_11 
REMARK    2  A    between atoms: N_6  and  C_13 
REMARK    3  A    between atoms: C_13  and  C_14 
REMARK    4  A    between atoms: C_14  and  O_20 
ROOT
HETATM    1  C   UNL     1     -41.358 -50.212  12.379  1.00  0.00     0.143 A 
HETATM    2  C   UNL     1     -41.861 -49.043  11.850  1.00  0.00     0.146 A 
HETATM    3  N   UNL     1     -40.074 -50.645  12.393  1.00  0.00    -0.322 N 
ATOM      4  HN  UNL     1     -39.785 -51.533  12.802  1.00  0.00     0.169 HD
HETATM    5  C   UNL     1     -39.240 -49.804  11.829  1.00  0.00     0.195 A 
HETATM    6  N   UNL     1     -42.442 -50.870  12.893  1.00  0.00    -0.324 N 
HETATM    7  N   UNL     1     -43.225 -48.990  11.969  1.00  0.00    -0.345 N 
ATOM      8  HN  UNL     1     -43.851 -48.251  11.651  1.00  0.00     0.167 HD
HETATM    9  N   UNL     1     -39.627 -48.567  11.296  1.00  0.00    -0.303 N 
HETATM   10  C   UNL     1     -40.933 -48.098  11.265  1.00  0.00     0.277 A 
HETATM   11  C   UNL     1     -43.545 -50.110  12.587  1.00  0.00     0.185 A 
HETATM   12  O   UNL     1     -41.213 -47.008  10.785  1.00  0.00    -0.266 OA
HETATM   13  H   UNL     1     -38.936 -47.951  10.885  1.00  0.00     0.170 HD
ENDROOT
BRANCH   6  14
HETATM   14  C   UNL     1     -42.440 -52.011  13.791  1.00  0.00     0.171 C 
BRANCH  14  15
HETATM   15  C   UNL     1     -42.469 -53.432  13.165  1.00  0.00     0.096 C 
HETATM   16  C   UNL     1     -43.791 -53.724  12.443  1.00  0.00     0.207 C 
HETATM   17  O   UNL     1     -44.889 -53.666  13.357  1.00  0.00    -0.388 OA
HETATM   18  C   UNL     1     -44.818 -54.698  14.345  1.00  0.00     0.167 C 
HETATM   19  C   UNL     1     -43.546 -54.583  15.177  1.00  0.00     0.029 C 
HETATM   20  C   UNL     1     -42.311 -54.484  14.286  1.00  0.00     0.044 C 
BRANCH  15  21
HETATM   21  O   UNL     1     -41.366 -53.658  12.282  1.00  0.00    -0.386 OA
HETATM   22  H   UNL     1     -40.689 -54.185  12.753  1.00  0.00     0.210 HD
ENDBRANCH  15  21
ENDBRANCH  14  15
ENDBRANCH   6  14
BRANCH   5  23
HETATM   23  C   UNL     1     -37.748 -50.125  11.677  1.00  0.00     0.449 C 
HETATM   24  F   UNL     1     -36.976 -49.218  12.342  1.00  0.00    -0.163 F 
HETATM   25  F   UNL     1     -37.420 -51.347  12.168  1.00  0.00    -0.163 F 
HETATM   26  F   UNL     1     -37.349 -50.092  10.379  1.00  0.00    -0.163 F 
ENDBRANCH   5  23
TORSDOF 4
ENDMDL
MODEL 9
REMARK VINA RESULT:      -5.9      4.283      6.569
REMARK  4 active torsions:
REMARK  status: ('A' for Active; 'I' for Inactive)
REMARK    1  A    between atoms: C_5  and  C_11 
REMARK    2  A    between atoms: N_6  and  C_13 
REMARK    3  A    between atoms: C_13  and  C_14 
REMARK    4  A    between atoms: C_14  and  O_20 
ROOT
HETATM    1  C   UNL     1     -42.565 -52.561  13.870  1.00  0.00     0.143 A 
HETATM    2  C   UNL     1     -42.432 -53.870  14.279  1.00  0.00     0.146 A 
HETATM    3  N   UNL     1     -43.700 -51.832  13.740  1.00  0.00    -0.322 N 
ATOM      4  HN  UNL     1     -43.712 -50.864  13.421  1.00  0.00     0.169 HD
HETATM    5  C   UNL     1     -44.782 -52.499  14.066  1.00  0.00     0.195 A 
HETATM    6  N   UNL     1     -41.291 -52.134  13.607  1.00  0.00    -0.324 N 
HETATM    7  N   UNL     1     -41.125 -54.279  14.218  1.00  0.00    -0.345 N 
ATOM      8  HN  UNL     1     -40.747 -55.198  14.448  1.00  0.00     0.167 HD
HETATM    9  N   UNL     1     -44.766 -53.819  14.536  1.00  0.00    -0.303 N 
HETATM   10  C   UNL     1     -43.622 -54.591  14.679  1.00  0.00     0.277 A 
HETATM   11  C   UNL     1     -40.467 -53.217  13.797  1.00  0.00     0.185 A 
HETATM   12  O   UNL     1     -43.670 -55.740  15.095  1.00  0.00    -0.266 OA
HETATM   13  H   UNL     1     -45.633 -54.279  14.788  1.00  0.00     0.170 HD
ENDROOT
BRANCH   6  14
HETATM   14  C   UNL     1     -40.840 -50.770  13.405  1.00  0.00     0.171 C 
BRANCH  14  15
HETATM   15  C   UNL     1     -40.678 -50.264  11.945  1.00  0.00     0.096 C 
HETATM   16  C   UNL     1     -39.302 -49.632  11.697  1.00  0.00     0.207 C 
HETATM   17  O   UNL     1     -39.110 -48.493  12.540  1.00  0.00    -0.388 OA
HETATM   18  C   UNL     1     -40.020 -47.435  12.226  1.00  0.00     0.167 C 
HETATM   19  C   UNL     1     -41.468 -47.877  12.406  1.00  0.00     0.029 C 
HETATM   20  C   UNL     1     -41.743 -49.180  11.662  1.00  0.00     0.044 C 
BRANCH  15  21
HETATM   21  O   UNL     1     -40.927 -51.293  10.983  1.00  0.00    -0.386 OA
HETATM   22  H   UNL     1     -40.159 -51.901  10.969  1.00  0.00     0.210 HD
ENDBRANCH  15  21
ENDBRANCH  14  15
ENDBRANCH   6  14
BRANCH   5  23
HETATM   23  C   UNL     1     -46.181 -51.886  13.930  1.00  0.00     0.449 C 
HETATM   24  F   UNL     1     -46.317 -51.218  12.749  1.00  0.00    -0.163 F 
HETATM   25  F   UNL     1     -47.168 -52.816  13.965  1.00  0.00    -0.163 F 
HETATM   26  F   UNL     1     -46.440 -50.986  14.914  1.00  0.00    -0.163 F 
ENDBRANCH   5  23
TORSDOF 4
ENDMDL
