MODEL 1
REMARK VINA RESULT:      -5.9      0.000      0.000
REMARK  6 active torsions:
REMARK  status: ('A' for Active; 'I' for Inactive)
REMARK    1  A    between atoms: C_5  and  N_18 
REMARK    2  A    between atoms: C_9  and  C_10 
REMARK    3  A    between atoms: C_10  and  C_11 
REMARK    4  A    between atoms: C_11  and  C_12 
REMARK       I    between atoms: C_12  and  N_14 
REMARK    5  A    between atoms: N_14  and  C_15 
REMARK    6  A    between atoms: C_15  and  C_16 
ROOT
HETATM    1  C   UNL     1     -38.674 -50.092  11.682  1.00  0.00     0.069 C 
HETATM    2  C   UNL     1     -40.001 -49.386  11.792  1.00  0.00     0.034 C 
HETATM    3  N   UNL     1     -39.990 -48.098  11.296  1.00  0.00    -0.195 N 
ATOM      4  HN  UNL     1     -39.116 -47.670  10.986  1.00  0.00     0.184 HD
HETATM    5  C   UNL     1     -41.104 -47.439  11.230  1.00  0.00     0.683 C 
HETATM    6  N   UNL     1     -42.261 -47.975  11.711  1.00  0.00    -0.156 N 
HETATM    7  C   UNL     1     -42.313 -49.154  12.381  1.00  0.00     0.267 C 
HETATM    8  O   UNL     1     -43.320 -49.498  12.992  1.00  0.00    -0.267 OA
HETATM    9  C   UNL     1     -41.089 -49.981  12.325  1.00  0.00     0.034 C 
HETATM   10  H   UNL     1     -43.079 -47.398  11.789  1.00  0.00     0.187 HD
ENDROOT
BRANCH   9  11
HETATM   11  C   UNL     1     -41.176 -51.371  12.911  1.00  0.00     0.055 C 
BRANCH  11  12
HETATM   12  C   UNL     1     -41.848 -52.432  12.026  1.00  0.00     0.107 C 
BRANCH  12  13
HETATM   13  C   UNL     1     -43.113 -53.015  12.622  1.00  0.00     0.218 C 
HETATM   14  O   UNL     1     -43.130 -54.012  13.331  1.00  0.00    -0.274 OA
HETATM   15  N   UNL     1     -44.243 -52.300  12.291  1.00  0.00    -0.358 N 
HETATM   16  H   UNL     1     -44.167 -51.496  11.680  1.00  0.00     0.162 HD
BRANCH  15  17
HETATM   17  C   UNL     1     -45.560 -52.727  12.689  1.00  0.00     0.149 C 
BRANCH  17  18
HETATM   18  C   UNL     1     -46.271 -51.543  13.264  1.00  0.00    -0.018 C 
HETATM   19  C   UNL     1     -46.730 -51.469  14.521  1.00  0.00     0.008 C 
ENDBRANCH  17  18
ENDBRANCH  15  17
ENDBRANCH  12  13
ENDBRANCH  11  12
ENDBRANCH   9  11
BRANCH   5  20
HETATM   20  N   UNL     1     -41.186 -46.175  10.695  1.00  0.00    -0.213 N 
HETATM   21  C   UNL     1     -40.025 -45.356  10.332  1.00  0.00     0.167 C 
HETATM   22  C   UNL     1     -40.137 -43.966  10.970  1.00  0.00     0.188 C 
HETATM   23  O   UNL     1     -41.361 -43.322  10.593  1.00  0.00    -0.388 OA
HETATM   24  C   UNL     1     -42.481 -44.094  11.059  1.00  0.00     0.188 C 
HETATM   25  C   UNL     1     -42.480 -45.510  10.470  1.00  0.00     0.167 C 
ENDBRANCH   5  20
TORSDOF 6
ENDMDL
MODEL 2
REMARK VINA RESULT:      -5.9      1.990      2.835
REMARK  6 active torsions:
REMARK  status: ('A' for Active; 'I' for Inactive)
REMARK    1  A    between atoms: C_5  and  N_18 
REMARK    2  A    between atoms: C_9  and  C_10 
REMARK    3  A    between atoms: C_10  and  C_11 
REMARK    4  A    between atoms: C_11  and  C_12 
REMARK       I    between atoms: C_12  and  N_14 
REMARK    5  A    between atoms: N_14  and  C_15 
REMARK    6  A    between atoms: C_15  and  C_16 
ROOT
HETATM    1  C   UNL     1     -44.398 -50.600  13.778  1.00  0.00     0.069 C 
HETATM    2  C   UNL     1     -43.129 -50.534  12.966  1.00  0.00     0.034 C 
HETATM    3  N   UNL     1     -43.048 -49.424  12.149  1.00  0.00    -0.195 N 
ATOM      4  HN  UNL     1     -43.840 -48.787  12.061  1.00  0.00     0.184 HD
HETATM    5  C   UNL     1     -41.950 -49.203  11.496  1.00  0.00     0.683 C 
HETATM    6  N   UNL     1     -40.915 -50.089  11.551  1.00  0.00    -0.156 N 
HETATM    7  C   UNL     1     -40.995 -51.289  12.179  1.00  0.00     0.267 C 
HETATM    8  O   UNL     1     -40.137 -52.151  12.021  1.00  0.00    -0.267 OA
HETATM    9  C   UNL     1     -42.173 -51.482  13.052  1.00  0.00     0.034 C 
HETATM   10  H   UNL     1     -40.137 -49.980  10.926  1.00  0.00     0.187 HD
ENDROOT
BRANCH   9  11
HETATM   11  C   UNL     1     -42.199 -52.734  13.897  1.00  0.00     0.055 C 
BRANCH  11  12
HETATM   12  C   UNL     1     -42.778 -53.987  13.223  1.00  0.00     0.107 C 
BRANCH  12  13
HETATM   13  C   UNL     1     -44.272 -54.148  13.408  1.00  0.00     0.218 C 
HETATM   14  O   UNL     1     -45.059 -54.283  12.480  1.00  0.00    -0.274 OA
HETATM   15  N   UNL     1     -44.655 -54.137  14.731  1.00  0.00    -0.358 N 
HETATM   16  H   UNL     1     -43.959 -53.998  15.453  1.00  0.00     0.162 HD
BRANCH  15  17
HETATM   17  C   UNL     1     -46.039 -54.198  15.127  1.00  0.00     0.149 C 
BRANCH  17  18
HETATM   18  C   UNL     1     -46.335 -52.985  15.949  1.00  0.00    -0.018 C 
HETATM   19  C   UNL     1     -47.203 -52.024  15.602  1.00  0.00     0.008 C 
ENDBRANCH  17  18
ENDBRANCH  15  17
ENDBRANCH  12  13
ENDBRANCH  11  12
ENDBRANCH   9  11
BRANCH   5  20
HETATM   20  N   UNL     1     -41.769 -48.091  10.709  1.00  0.00    -0.213 N 
HETATM   21  C   UNL     1     -40.721 -47.088  10.926  1.00  0.00     0.167 C 
HETATM   22  C   UNL     1     -41.333 -45.682  10.961  1.00  0.00     0.188 C 
HETATM   23  O   UNL     1     -42.067 -45.410   9.761  1.00  0.00    -0.388 OA
HETATM   24  C   UNL     1     -43.154 -46.341   9.632  1.00  0.00     0.188 C 
HETATM   25  C   UNL     1     -42.656 -47.791   9.573  1.00  0.00     0.167 C 
ENDBRANCH   5  20
TORSDOF 6
ENDMDL
MODEL 3
REMARK VINA RESULT:      -5.7      3.491      5.450
REMARK  6 active torsions:
REMARK  status: ('A' for Active; 'I' for Inactive)
REMARK    1  A    between atoms: C_5  and  N_18 
REMARK    2  A    between atoms: C_9  and  C_10 
REMARK    3  A    between atoms: C_10  and  C_11 
REMARK    4  A    between atoms: C_11  and  C_12 
REMARK       I    between atoms: C_12  and  N_14 
REMARK    5  A    between atoms: N_14  and  C_15 
REMARK    6  A    between atoms: C_15  and  C_16 
ROOT
HETATM    1  C   UNL     1     -42.568 -55.054  15.324  1.00  0.00     0.069 C 
HETATM    2  C   UNL     1     -42.987 -54.023  14.307  1.00  0.00     0.034 C 
HETATM    3  N   UNL     1     -42.079 -52.996  14.147  1.00  0.00    -0.195 N 
ATOM      4  HN  UNL     1     -41.263 -52.928  14.756  1.00  0.00     0.184 HD
HETATM    5  C   UNL     1     -42.279 -52.119  13.215  1.00  0.00     0.683 C 
HETATM    6  N   UNL     1     -43.406 -52.160  12.447  1.00  0.00    -0.156 N 
HETATM    7  C   UNL     1     -44.427 -53.025  12.672  1.00  0.00     0.267 C 
HETATM    8  O   UNL     1     -45.512 -52.890  12.115  1.00  0.00    -0.267 OA
HETATM    9  C   UNL     1     -44.146 -54.122  13.622  1.00  0.00     0.034 C 
HETATM   10  H   UNL     1     -43.616 -51.393  11.837  1.00  0.00     0.187 HD
ENDROOT
BRANCH   9  11
HETATM   11  C   UNL     1     -45.200 -55.196  13.757  1.00  0.00     0.055 C 
BRANCH  11  12
HETATM   12  C   UNL     1     -46.481 -54.789  14.500  1.00  0.00     0.107 C 
BRANCH  12  13
HETATM   13  C   UNL     1     -46.229 -54.047  15.796  1.00  0.00     0.218 C 
HETATM   14  O   UNL     1     -45.700 -54.556  16.776  1.00  0.00    -0.274 OA
HETATM   15  N   UNL     1     -46.648 -52.735  15.755  1.00  0.00    -0.358 N 
HETATM   16  H   UNL     1     -47.100 -52.379  14.923  1.00  0.00     0.162 HD
BRANCH  15  17
HETATM   17  C   UNL     1     -46.573 -51.874  16.908  1.00  0.00     0.149 C 
BRANCH  17  18
HETATM   18  C   UNL     1     -47.861 -51.121  17.002  1.00  0.00    -0.018 C 
HETATM   19  C   UNL     1     -48.142 -50.210  17.944  1.00  0.00     0.008 C 
ENDBRANCH  17  18
ENDBRANCH  15  17
ENDBRANCH  12  13
ENDBRANCH  11  12
ENDBRANCH   9  11
BRANCH   5  20
HETATM   20  N   UNL     1     -41.393 -51.100  12.954  1.00  0.00    -0.213 N 
HETATM   21  C   UNL     1     -41.682 -49.959  12.080  1.00  0.00     0.167 C 
HETATM   22  C   UNL     1     -40.569 -49.794  11.038  1.00  0.00     0.188 C 
HETATM   23  O   UNL     1     -39.290 -49.651  11.668  1.00  0.00    -0.388 OA
HETATM   24  C   UNL     1     -38.986 -50.832  12.430  1.00  0.00     0.188 C 
HETATM   25  C   UNL     1     -40.034 -51.091  13.520  1.00  0.00     0.167 C 
ENDBRANCH   5  20
TORSDOF 6
ENDMDL
MODEL 4
REMARK VINA RESULT:      -5.7      2.086      3.096
REMARK  6 active torsions:
REMARK  status: ('A' for Active; 'I' for Inactive)
REMARK    1  A    between atoms: C_5  and  N_18 
REMARK    2  A    between atoms: C_9  and  C_10 
REMARK    3  A    between atoms: C_10  and  C_11 
REMARK    4  A    between atoms: C_11  and  C_12 
REMARK       I    between atoms: C_12  and  N_14 
REMARK    5  A    between atoms: N_14  and  C_15 
REMARK    6  A    between atoms: C_15  and  C_16 
ROOT
HETATM    1  C   UNL     1     -39.127 -52.782  14.449  1.00  0.00     0.069 C 
HETATM    2  C   UNL     1     -40.208 -52.244  13.546  1.00  0.00     0.034 C 
HETATM    3  N   UNL     1     -39.946 -50.981  13.055  1.00  0.00    -0.195 N 
ATOM      4  HN  UNL     1     -39.131 -50.458  13.379  1.00  0.00     0.184 HD
HETATM    5  C   UNL     1     -40.748 -50.469  12.175  1.00  0.00     0.683 C 
HETATM    6  N   UNL     1     -41.877 -51.130  11.792  1.00  0.00    -0.156 N 
HETATM    7  C   UNL     1     -42.296 -52.284  12.371  1.00  0.00     0.267 C 
HETATM    8  O   UNL     1     -43.420 -52.730  12.164  1.00  0.00    -0.267 OA
HETATM    9  C   UNL     1     -41.318 -52.953  13.255  1.00  0.00     0.034 C 
HETATM   10  H   UNL     1     -42.560 -50.657  11.229  1.00  0.00     0.187 HD
ENDROOT
BRANCH   9  11
HETATM   11  C   UNL     1     -41.691 -54.323  13.771  1.00  0.00     0.055 C 
BRANCH  11  12
HETATM   12  C   UNL     1     -42.415 -54.357  15.126  1.00  0.00     0.107 C 
BRANCH  12  13
HETATM   13  C   UNL     1     -43.925 -54.362  15.013  1.00  0.00     0.218 C 
HETATM   14  O   UNL     1     -44.577 -55.344  14.682  1.00  0.00    -0.274 OA
HETATM   15  N   UNL     1     -44.492 -53.148  15.333  1.00  0.00    -0.358 N 
HETATM   16  H   UNL     1     -43.898 -52.365  15.577  1.00  0.00     0.162 HD
BRANCH  15  17
HETATM   17  C   UNL     1     -45.909 -52.913  15.217  1.00  0.00     0.149 C 
BRANCH  17  18
HETATM   18  C   UNL     1     -46.101 -51.621  14.489  1.00  0.00    -0.018 C 
HETATM   19  C   UNL     1     -46.484 -51.521  13.209  1.00  0.00     0.008 C 
ENDBRANCH  17  18
ENDBRANCH  15  17
ENDBRANCH  12  13
ENDBRANCH  11  12
ENDBRANCH   9  11
BRANCH   5  20
HETATM   20  N   UNL     1     -40.525 -49.243  11.594  1.00  0.00    -0.213 N 
HETATM   21  C   UNL     1     -39.368 -48.390  11.887  1.00  0.00     0.167 C 
HETATM   22  C   UNL     1     -39.832 -46.973  12.246  1.00  0.00     0.188 C 
HETATM   23  O   UNL     1     -40.636 -46.413  11.199  1.00  0.00    -0.388 OA
HETATM   24  C   UNL     1     -41.817 -47.211  11.010  1.00  0.00     0.188 C 
HETATM   25  C   UNL     1     -41.472 -48.656  10.631  1.00  0.00     0.167 C 
ENDBRANCH   5  20
TORSDOF 6
ENDMDL
MODEL 5
REMARK VINA RESULT:      -5.5      2.588      7.349
REMARK  6 active torsions:
REMARK  status: ('A' for Active; 'I' for Inactive)
REMARK    1  A    between atoms: C_5  and  N_18 
REMARK    2  A    between atoms: C_9  and  C_10 
REMARK    3  A    between atoms: C_10  and  C_11 
REMARK    4  A    between atoms: C_11  and  C_12 
REMARK       I    between atoms: C_12  and  N_14 
REMARK    5  A    between atoms: N_14  and  C_15 
REMARK    6  A    between atoms: C_15  and  C_16 
ROOT
HETATM    1  C   UNL     1     -42.764 -48.792  14.198  1.00  0.00     0.069 C 
HETATM    2  C   UNL     1     -42.399 -50.229  13.925  1.00  0.00     0.034 C 
HETATM    3  N   UNL     1     -43.265 -51.141  14.494  1.00  0.00    -0.195 N 
ATOM      4  HN  UNL     1     -44.010 -50.828  15.118  1.00  0.00     0.184 HD
HETATM    5  C   UNL     1     -43.118 -52.401  14.225  1.00  0.00     0.683 C 
HETATM    6  N   UNL     1     -42.080 -52.833  13.454  1.00  0.00    -0.156 N 
HETATM    7  C   UNL     1     -41.086 -52.018  13.019  1.00  0.00     0.267 C 
HETATM    8  O   UNL     1     -40.059 -52.471  12.524  1.00  0.00    -0.267 OA
HETATM    9  C   UNL     1     -41.324 -50.567  13.183  1.00  0.00     0.034 C 
HETATM   10  H   UNL     1     -41.895 -53.816  13.380  1.00  0.00     0.187 HD
ENDROOT
BRANCH   9  11
HETATM   11  C   UNL     1     -40.318 -49.634  12.551  1.00  0.00     0.055 C 
BRANCH  11  12
HETATM   12  C   UNL     1     -40.519 -49.343  11.056  1.00  0.00     0.107 C 
BRANCH  12  13
HETATM   13  C   UNL     1     -41.347 -48.106  10.779  1.00  0.00     0.218 C 
HETATM   14  O   UNL     1     -40.914 -46.965  10.874  1.00  0.00    -0.274 OA
HETATM   15  N   UNL     1     -42.638 -48.398  10.397  1.00  0.00    -0.358 N 
HETATM   16  H   UNL     1     -42.944 -49.362  10.359  1.00  0.00     0.162 HD
BRANCH  15  17
HETATM   17  C   UNL     1     -43.616 -47.366  10.161  1.00  0.00     0.149 C 
BRANCH  17  18
HETATM   18  C   UNL     1     -44.198 -47.589   8.801  1.00  0.00    -0.018 C 
HETATM   19  C   UNL     1     -43.479 -47.835   7.698  1.00  0.00     0.008 C 
ENDBRANCH  17  18
ENDBRANCH  15  17
ENDBRANCH  12  13
ENDBRANCH  11  12
ENDBRANCH   9  11
BRANCH   5  20
HETATM   20  N   UNL     1     -43.972 -53.365  14.705  1.00  0.00    -0.213 N 
HETATM   21  C   UNL     1     -44.060 -54.728  14.172  1.00  0.00     0.167 C 
HETATM   22  C   UNL     1     -45.518 -55.077  13.846  1.00  0.00     0.188 C 
HETATM   23  O   UNL     1     -46.356 -54.917  14.998  1.00  0.00    -0.388 OA
HETATM   24  C   UNL     1     -46.335 -53.546  15.431  1.00  0.00     0.188 C 
HETATM   25  C   UNL     1     -44.918 -53.089  15.800  1.00  0.00     0.167 C 
ENDBRANCH   5  20
TORSDOF 6
ENDMDL
MODEL 6
REMARK VINA RESULT:      -5.5      2.020      2.393
REMARK  6 active torsions:
REMARK  status: ('A' for Active; 'I' for Inactive)
REMARK    1  A    between atoms: C_5  and  N_18 
REMARK    2  A    between atoms: C_9  and  C_10 
REMARK    3  A    between atoms: C_10  and  C_11 
REMARK    4  A    between atoms: C_11  and  C_12 
REMARK       I    between atoms: C_12  and  N_14 
REMARK    5  A    between atoms: N_14  and  C_15 
REMARK    6  A    between atoms: C_15  and  C_16 
ROOT
HETATM    1  C   UNL     1     -37.996 -50.745  12.564  1.00  0.00     0.069 C 
HETATM    2  C   UNL     1     -39.454 -50.489  12.276  1.00  0.00     0.034 C 
HETATM    3  N   UNL     1     -39.700 -49.259  11.701  1.00  0.00    -0.195 N 
ATOM      4  HN  UNL     1     -38.947 -48.578  11.593  1.00  0.00     0.184 HD
HETATM    5  C   UNL     1     -40.901 -48.981  11.301  1.00  0.00     0.683 C 
HETATM    6  N   UNL     1     -41.926 -49.855  11.510  1.00  0.00    -0.156 N 
HETATM    7  C   UNL     1     -41.795 -50.995  12.235  1.00  0.00     0.267 C 
HETATM    8  O   UNL     1     -42.776 -51.639  12.593  1.00  0.00    -0.267 OA
HETATM    9  C   UNL     1     -40.410 -51.398  12.558  1.00  0.00     0.034 C 
HETATM   10  H   UNL     1     -42.869 -49.563  11.332  1.00  0.00     0.187 HD
ENDROOT
BRANCH   9  11
HETATM   11  C   UNL     1     -40.226 -52.749  13.209  1.00  0.00     0.055 C 
BRANCH  11  12
HETATM   12  C   UNL     1     -40.455 -52.800  14.727  1.00  0.00     0.107 C 
BRANCH  12  13
HETATM   13  C   UNL     1     -41.577 -53.726  15.147  1.00  0.00     0.218 C 
HETATM   14  O   UNL     1     -41.397 -54.864  15.560  1.00  0.00    -0.274 OA
HETATM   15  N   UNL     1     -42.823 -53.150  15.027  1.00  0.00    -0.358 N 
HETATM   16  H   UNL     1     -42.908 -52.212  14.657  1.00  0.00     0.162 HD
BRANCH  15  17
HETATM   17  C   UNL     1     -44.032 -53.884  15.300  1.00  0.00     0.149 C 
BRANCH  17  18
HETATM   18  C   UNL     1     -44.661 -54.235  13.990  1.00  0.00    -0.018 C 
HETATM   19  C   UNL     1     -45.480 -55.278  13.794  1.00  0.00     0.008 C 
ENDBRANCH  17  18
ENDBRANCH  15  17
ENDBRANCH  12  13
ENDBRANCH  11  12
ENDBRANCH   9  11
BRANCH   5  20
HETATM   20  N   UNL     1     -41.216 -47.802  10.666  1.00  0.00    -0.213 N 
HETATM   21  C   UNL     1     -40.466 -46.553  10.828  1.00  0.00     0.167 C 
HETATM   22  C   UNL     1     -41.420 -45.405  11.185  1.00  0.00     0.188 C 
HETATM   23  O   UNL     1     -42.450 -45.266  10.199  1.00  0.00    -0.388 OA
HETATM   24  C   UNL     1     -43.236 -46.468  10.140  1.00  0.00     0.188 C 
HETATM   25  C   UNL     1     -42.382 -47.689   9.775  1.00  0.00     0.167 C 
ENDBRANCH   5  20
TORSDOF 6
ENDMDL
MODEL 7
REMARK VINA RESULT:      -5.5      2.793      5.043
REMARK  6 active torsions:
REMARK  status: ('A' for Active; 'I' for Inactive)
REMARK    1  A    between atoms: C_5  and  N_18 
REMARK    2  A    between atoms: C_9  and  C_10 
REMARK    3  A    between atoms: C_10  and  C_11 
REMARK    4  A    between atoms: C_11  and  C_12 
REMARK       I    between atoms: C_12  and  N_14 
REMARK    5  A    between atoms: N_14  and  C_15 
REMARK    6  A    between atoms: C_15  and  C_16 
ROOT
HETATM    1  C   UNL     1     -44.826 -50.872  16.779  1.00  0.00     0.069 C 
HETATM    2  C   UNL     1     -44.833 -50.806  15.273  1.00  0.00     0.034 C 
HETATM    3  N   UNL     1     -43.778 -50.091  14.742  1.00  0.00    -0.195 N 
ATOM      4  HN  UNL     1     -43.136 -49.586  15.354  1.00  0.00     0.184 HD
HETATM    5  C   UNL     1     -43.617 -50.069  13.456  1.00  0.00     0.683 C 
HETATM    6  N   UNL     1     -44.514 -50.679  12.630  1.00  0.00    -0.156 N 
HETATM    7  C   UNL     1     -45.670 -51.236  13.069  1.00  0.00     0.267 C 
HETATM    8  O   UNL     1     -46.554 -51.572  12.288  1.00  0.00    -0.267 OA
HETATM    9  C   UNL     1     -45.789 -51.405  14.533  1.00  0.00     0.034 C 
HETATM   10  H   UNL     1     -44.457 -50.526  11.640  1.00  0.00     0.187 HD
ENDROOT
BRANCH   9  11
HETATM   11  C   UNL     1     -46.984 -52.180  15.037  1.00  0.00     0.055 C 
BRANCH  11  12
HETATM   12  C   UNL     1     -46.903 -53.707  14.894  1.00  0.00     0.107 C 
BRANCH  12  13
HETATM   13  C   UNL     1     -45.657 -54.314  15.506  1.00  0.00     0.218 C 
HETATM   14  O   UNL     1     -45.515 -54.503  16.707  1.00  0.00    -0.274 OA
HETATM   15  N   UNL     1     -44.703 -54.642  14.568  1.00  0.00    -0.358 N 
HETATM   16  H   UNL     1     -44.870 -54.440  13.591  1.00  0.00     0.162 HD
BRANCH  15  17
HETATM   17  C   UNL     1     -43.411 -55.161  14.942  1.00  0.00     0.149 C 
BRANCH  17  18
HETATM   18  C   UNL     1     -42.370 -54.325  14.270  1.00  0.00    -0.018 C 
HETATM   19  C   UNL     1     -42.557 -53.651  13.128  1.00  0.00     0.008 C 
ENDBRANCH  17  18
ENDBRANCH  15  17
ENDBRANCH  12  13
ENDBRANCH  11  12
ENDBRANCH   9  11
BRANCH   5  20
HETATM   20  N   UNL     1     -42.560 -49.429  12.854  1.00  0.00    -0.213 N 
HETATM   21  C   UNL     1     -42.666 -48.153  12.140  1.00  0.00     0.167 C 
HETATM   22  C   UNL     1     -42.041 -48.272  10.745  1.00  0.00     0.188 C 
HETATM   23  O   UNL     1     -40.677 -48.706  10.826  1.00  0.00    -0.388 OA
HETATM   24  C   UNL     1     -40.615 -50.008  11.432  1.00  0.00     0.188 C 
HETATM   25  C   UNL     1     -41.205 -50.006  12.848  1.00  0.00     0.167 C 
ENDBRANCH   5  20
TORSDOF 6
ENDMDL
MODEL 8
REMARK VINA RESULT:      -5.4      1.951      7.002
REMARK  6 active torsions:
REMARK  status: ('A' for Active; 'I' for Inactive)
REMARK    1  A    between atoms: C_5  and  N_18 
REMARK    2  A    between atoms: C_9  and  C_10 
REMARK    3  A    between atoms: C_10  and  C_11 
REMARK    4  A    between atoms: C_11  and  C_12 
REMARK       I    between atoms: C_12  and  N_14 
REMARK    5  A    between atoms: N_14  and  C_15 
REMARK    6  A    between atoms: C_15  and  C_16 
ROOT
HETATM    1  C   UNL     1     -39.233 -49.910  13.624  1.00  0.00     0.069 C 
HETATM    2  C   UNL     1     -40.665 -50.074  13.184  1.00  0.00     0.034 C 
HETATM    3  N   UNL     1     -41.117 -51.377  13.233  1.00  0.00    -0.195 N 
ATOM      4  HN  UNL     1     -40.476 -52.139  13.456  1.00  0.00     0.184 HD
HETATM    5  C   UNL     1     -42.368 -51.619  12.992  1.00  0.00     0.683 C 
HETATM    6  N   UNL     1     -43.213 -50.615  12.621  1.00  0.00    -0.156 N 
HETATM    7  C   UNL     1     -42.799 -49.348  12.369  1.00  0.00     0.267 C 
HETATM    8  O   UNL     1     -43.535 -48.532  11.824  1.00  0.00    -0.267 OA
HETATM    9  C   UNL     1     -41.418 -49.026  12.789  1.00  0.00     0.034 C 
HETATM   10  H   UNL     1     -44.135 -50.841  12.294  1.00  0.00     0.187 HD
ENDROOT
BRANCH   9  11
HETATM   11  C   UNL     1     -40.991 -47.581  12.683  1.00  0.00     0.055 C 
BRANCH  11  12
HETATM   12  C   UNL     1     -40.366 -47.162  11.344  1.00  0.00     0.107 C 
BRANCH  12  13
HETATM   13  C   UNL     1     -41.251 -46.261  10.509  1.00  0.00     0.218 C 
HETATM   14  O   UNL     1     -41.123 -45.045  10.456  1.00  0.00    -0.274 OA
HETATM   15  N   UNL     1     -42.211 -46.954   9.804  1.00  0.00    -0.358 N 
HETATM   16  H   UNL     1     -42.282 -47.958   9.906  1.00  0.00     0.162 HD
BRANCH  15  17
HETATM   17  C   UNL     1     -43.207 -46.282   9.007  1.00  0.00     0.149 C 
BRANCH  17  18
HETATM   18  C   UNL     1     -44.199 -47.305   8.555  1.00  0.00    -0.018 C 
HETATM   19  C   UNL     1     -45.450 -47.409   9.022  1.00  0.00     0.008 C 
ENDBRANCH  17  18
ENDBRANCH  15  17
ENDBRANCH  12  13
ENDBRANCH  11  12
ENDBRANCH   9  11
BRANCH   5  20
HETATM   20  N   UNL     1     -42.908 -52.880  13.078  1.00  0.00    -0.213 N 
HETATM   21  C   UNL     1     -44.196 -53.267  12.493  1.00  0.00     0.167 C 
HETATM   22  C   UNL     1     -45.073 -53.950  13.551  1.00  0.00     0.188 C 
HETATM   23  O   UNL     1     -44.404 -55.081  14.123  1.00  0.00    -0.388 OA
HETATM   24  C   UNL     1     -43.200 -54.655  14.782  1.00  0.00     0.188 C 
HETATM   25  C   UNL     1     -42.234 -53.964  13.811  1.00  0.00     0.167 C 
ENDBRANCH   5  20
TORSDOF 6
ENDMDL
MODEL 9
REMARK VINA RESULT:      -5.3      2.436      3.226
REMARK  6 active torsions:
REMARK  status: ('A' for Active; 'I' for Inactive)
REMARK    1  A    between atoms: C_5  and  N_18 
REMARK    2  A    between atoms: C_9  and  C_10 
REMARK    3  A    between atoms: C_10  and  C_11 
REMARK    4  A    between atoms: C_11  and  C_12 
REMARK       I    between atoms: C_12  and  N_14 
REMARK    5  A    between atoms: N_14  and  C_15 
REMARK    6  A    between atoms: C_15  and  C_16 
ROOT
HETATM    1  C   UNL     1     -38.100 -47.354  14.974  1.00  0.00     0.069 C 
HETATM    2  C   UNL     1     -38.709 -47.674  13.632  1.00  0.00     0.034 C 
HETATM    3  N   UNL     1     -39.380 -46.614  13.058  1.00  0.00    -0.195 N 
ATOM      4  HN  UNL     1     -39.513 -45.744  13.575  1.00  0.00     0.184 HD
HETATM    5  C   UNL     1     -39.840 -46.739  11.852  1.00  0.00     0.683 C 
HETATM    6  N   UNL     1     -39.732 -47.923  11.184  1.00  0.00    -0.156 N 
HETATM    7  C   UNL     1     -39.256 -49.058  11.754  1.00  0.00     0.267 C 
HETATM    8  O   UNL     1     -39.381 -50.149  11.206  1.00  0.00    -0.267 OA
HETATM    9  C   UNL     1     -38.589 -48.892  13.063  1.00  0.00     0.034 C 
HETATM   10  H   UNL     1     -40.222 -48.048  10.318  1.00  0.00     0.187 HD
ENDROOT
BRANCH   9  11
HETATM   11  C   UNL     1     -37.897 -50.106  13.637  1.00  0.00     0.055 C 
BRANCH  11  12
HETATM   12  C   UNL     1     -38.762 -51.017  14.520  1.00  0.00     0.107 C 
BRANCH  12  13
HETATM   13  C   UNL     1     -39.229 -52.280  13.827  1.00  0.00     0.218 C 
HETATM   14  O   UNL     1     -38.570 -53.311  13.780  1.00  0.00    -0.274 OA
HETATM   15  N   UNL     1     -40.479 -52.153  13.261  1.00  0.00    -0.358 N 
HETATM   16  H   UNL     1     -40.964 -51.267  13.313  1.00  0.00     0.162 HD
BRANCH  15  17
HETATM   17  C   UNL     1     -41.078 -53.210  12.487  1.00  0.00     0.149 C 
BRANCH  17  18
HETATM   18  C   UNL     1     -42.067 -53.914  13.360  1.00  0.00    -0.018 C 
HETATM   19  C   UNL     1     -43.389 -53.932  13.148  1.00  0.00     0.008 C 
ENDBRANCH  17  18
ENDBRANCH  15  17
ENDBRANCH  12  13
ENDBRANCH  11  12
ENDBRANCH   9  11
BRANCH   5  20
HETATM   20  N   UNL     1     -40.467 -45.712  11.189  1.00  0.00    -0.213 N 
HETATM   21  C   UNL     1     -39.777 -44.540  10.642  1.00  0.00     0.167 C 
HETATM   22  C   UNL     1     -40.453 -43.252  11.128  1.00  0.00     0.188 C 
HETATM   23  O   UNL     1     -41.845 -43.239  10.784  1.00  0.00    -0.388 OA
HETATM   24  C   UNL     1     -42.516 -44.337  11.424  1.00  0.00     0.188 C 
HETATM   25  C   UNL     1     -41.927 -45.689  10.998  1.00  0.00     0.167 C 
ENDBRANCH   5  20
TORSDOF 6
ENDMDL
