MODEL 1
REMARK VINA RESULT:      -6.8      0.000      0.000
REMARK  5 active torsions:
REMARK  status: ('A' for Active; 'I' for Inactive)
REMARK    1  A    between atoms: N_6  and  C_7 
REMARK    2  A    between atoms: C_7  and  C_8 
REMARK    3  A    between atoms: C_8  and  O_9 
REMARK    4  A    between atoms: C_8  and  C_10 
REMARK    5  A    between atoms: C_10  and  N_11 
ROOT
HETATM    1  C   UNL     1     -39.846 -53.913  13.845  1.00  0.00     0.164 C 
ENDROOT
BRANCH   1   2
HETATM    2  C   UNL     1     -39.076 -52.769  14.528  1.00  0.00     0.166 C 
BRANCH   2   3
HETATM    3  N   UNL     1     -39.154 -51.526  13.751  1.00  0.00    -0.307 N 
HETATM    4  C   UNL     1     -40.107 -50.590  14.046  1.00  0.00     0.186 A 
HETATM    5  N   UNL     1     -40.234 -49.452  13.450  1.00  0.00    -0.355 N 
HETATM    6  C   UNL     1     -39.332 -49.152  12.459  1.00  0.00     0.017 A 
ATOM      7  HN  UNL     1     -40.977 -48.801  13.705  1.00  0.00     0.166 HD
HETATM    8  C   UNL     1     -39.574 -47.830  11.777  1.00  0.00     0.069 C 
HETATM    9  C   UNL     1     -38.307 -49.951  12.111  1.00  0.00     0.028 A 
HETATM   10  C   UNL     1     -38.164 -51.243  12.839  1.00  0.00     0.256 A 
HETATM   11  C   UNL     1     -37.302 -49.624  11.049  1.00  0.00     0.056 C 
HETATM   12  O   UNL     1     -37.212 -51.991  12.625  1.00  0.00    -0.267 OA
ENDBRANCH   2   3
ENDBRANCH   1   2
BRANCH   1  13
HETATM   13  O   UNL     1     -38.892 -54.929  13.493  1.00  0.00    -0.392 OA
HETATM   14  H   UNL     1     -38.792 -55.519  14.263  1.00  0.00     0.210 HD
ENDBRANCH   1  13
BRANCH   1  15
HETATM   15  C   UNL     1     -40.957 -54.495  14.770  1.00  0.00     0.306 C 
BRANCH  15  16
HETATM   16  N   UNL     1     -42.333 -54.133  14.362  1.00  0.00     0.095 N 
HETATM   17  C   UNL     1     -42.379 -53.575  12.993  1.00  0.00     0.277 C 
HETATM   18  C   UNL     1     -43.834 -53.423  12.526  1.00  0.00     0.069 C 
HETATM   19  C   UNL     1     -44.674 -52.665  13.522  1.00  0.00    -0.049 A 
HETATM   20  C   UNL     1     -45.901 -52.111  13.122  1.00  0.00     0.007 A 
HETATM   21  C   UNL     1     -44.252 -52.561  14.855  1.00  0.00    -0.024 A 
HETATM   22  C   UNL     1     -46.690 -51.425  14.039  1.00  0.00     0.001 A 
HETATM   23  C   UNL     1     -46.259 -51.290  15.361  1.00  0.00     0.001 A 
HETATM   24  C   UNL     1     -45.047 -51.855  15.763  1.00  0.00     0.009 A 
HETATM   25  C   UNL     1     -42.910 -53.135  15.295  1.00  0.00     0.311 C 
ENDBRANCH  15  16
ENDBRANCH   1  15
TORSDOF 5
ENDMDL
MODEL 2
REMARK VINA RESULT:      -6.7      1.909      2.503
REMARK  5 active torsions:
REMARK  status: ('A' for Active; 'I' for Inactive)
REMARK    1  A    between atoms: N_6  and  C_7 
REMARK    2  A    between atoms: C_7  and  C_8 
REMARK    3  A    between atoms: C_8  and  O_9 
REMARK    4  A    between atoms: C_8  and  C_10 
REMARK    5  A    between atoms: C_10  and  N_11 
ROOT
HETATM    1  C   UNL     1     -40.599 -52.189  12.564  1.00  0.00     0.164 C 
ENDROOT
BRANCH   1   2
HETATM    2  C   UNL     1     -39.412 -51.214  12.470  1.00  0.00     0.166 C 
BRANCH   2   3
HETATM    3  N   UNL     1     -39.838 -49.886  12.013  1.00  0.00    -0.307 N 
HETATM    4  C   UNL     1     -40.711 -49.766  10.967  1.00  0.00     0.186 A 
HETATM    5  N   UNL     1     -41.174 -48.649  10.516  1.00  0.00    -0.355 N 
HETATM    6  C   UNL     1     -40.775 -47.497  11.146  1.00  0.00     0.017 A 
ATOM      7  HN  UNL     1     -41.813 -48.624   9.721  1.00  0.00     0.166 HD
HETATM    8  C   UNL     1     -41.318 -46.231  10.533  1.00  0.00     0.069 C 
HETATM    9  C   UNL     1     -39.971 -47.472  12.225  1.00  0.00     0.028 A 
HETATM   10  C   UNL     1     -39.479 -48.778  12.746  1.00  0.00     0.256 A 
HETATM   11  C   UNL     1     -39.548 -46.223  12.936  1.00  0.00     0.056 C 
HETATM   12  O   UNL     1     -38.800 -48.839  13.769  1.00  0.00    -0.267 OA
ENDBRANCH   2   3
ENDBRANCH   1   2
BRANCH   1  13
HETATM   13  O   UNL     1     -40.464 -53.142  11.497  1.00  0.00    -0.392 OA
HETATM   14  H   UNL     1     -39.513 -53.323  11.382  1.00  0.00     0.210 HD
ENDBRANCH   1  13
BRANCH   1  15
HETATM   15  C   UNL     1     -40.647 -52.909  13.945  1.00  0.00     0.306 C 
BRANCH  15  16
HETATM   16  N   UNL     1     -42.015 -53.121  14.469  1.00  0.00     0.095 N 
HETATM   17  C   UNL     1     -42.569 -54.432  14.064  1.00  0.00     0.277 C 
HETATM   18  C   UNL     1     -43.885 -54.708  14.803  1.00  0.00     0.069 C 
HETATM   19  C   UNL     1     -44.861 -53.567  14.671  1.00  0.00    -0.049 A 
HETATM   20  C   UNL     1     -46.222 -53.775  14.951  1.00  0.00     0.007 A 
HETATM   21  C   UNL     1     -44.399 -52.290  14.320  1.00  0.00    -0.024 A 
HETATM   22  C   UNL     1     -47.126 -52.723  14.848  1.00  0.00     0.001 A 
HETATM   23  C   UNL     1     -46.676 -51.457  14.466  1.00  0.00     0.001 A 
HETATM   24  C   UNL     1     -45.321 -51.245  14.204  1.00  0.00     0.009 A 
HETATM   25  C   UNL     1     -42.930 -52.058  13.989  1.00  0.00     0.311 C 
ENDBRANCH  15  16
ENDBRANCH   1  15
TORSDOF 5
ENDMDL
MODEL 3
REMARK VINA RESULT:      -6.5      2.843      4.818
REMARK  5 active torsions:
REMARK  status: ('A' for Active; 'I' for Inactive)
REMARK    1  A    between atoms: N_6  and  C_7 
REMARK    2  A    between atoms: C_7  and  C_8 
REMARK    3  A    between atoms: C_8  and  O_9 
REMARK    4  A    between atoms: C_8  and  C_10 
REMARK    5  A    between atoms: C_10  and  N_11 
ROOT
HETATM    1  C   UNL     1     -41.551 -52.319  12.522  1.00  0.00     0.164 C 
ENDROOT
BRANCH   1   2
HETATM    2  C   UNL     1     -42.072 -53.627  13.144  1.00  0.00     0.166 C 
BRANCH   2   3
HETATM    3  N   UNL     1     -41.081 -54.231  14.042  1.00  0.00    -0.307 N 
HETATM    4  C   UNL     1     -39.765 -54.290  13.674  1.00  0.00     0.186 A 
HETATM    5  N   UNL     1     -38.814 -54.765  14.406  1.00  0.00    -0.355 N 
HETATM    6  C   UNL     1     -39.146 -55.227  15.655  1.00  0.00     0.017 A 
ATOM      7  HN  UNL     1     -37.851 -54.796  14.068  1.00  0.00     0.166 HD
HETATM    8  C   UNL     1     -37.992 -55.811  16.431  1.00  0.00     0.069 C 
HETATM    9  C   UNL     1     -40.388 -55.172  16.169  1.00  0.00     0.028 A 
HETATM   10  C   UNL     1     -41.460 -54.587  15.316  1.00  0.00     0.256 A 
HETATM   11  C   UNL     1     -40.758 -55.650  17.540  1.00  0.00     0.056 C 
HETATM   12  O   UNL     1     -42.603 -54.438  15.744  1.00  0.00    -0.267 OA
ENDBRANCH   2   3
ENDBRANCH   1   2
BRANCH   1  13
HETATM   13  O   UNL     1     -41.417 -52.533  11.107  1.00  0.00    -0.392 OA
HETATM   14  H   UNL     1     -40.465 -52.573  10.904  1.00  0.00     0.210 HD
ENDBRANCH   1  13
BRANCH   1  15
HETATM   15  C   UNL     1     -42.506 -51.122  12.813  1.00  0.00     0.306 C 
BRANCH  15  16
HETATM   16  N   UNL     1     -43.704 -51.484  13.604  1.00  0.00     0.095 N 
HETATM   17  C   UNL     1     -44.956 -51.290  12.839  1.00  0.00     0.277 C 
HETATM   18  C   UNL     1     -46.147 -51.881  13.606  1.00  0.00     0.069 C 
HETATM   19  C   UNL     1     -46.216 -51.379  15.025  1.00  0.00    -0.049 A 
HETATM   20  C   UNL     1     -47.409 -51.505  15.754  1.00  0.00     0.007 A 
HETATM   21  C   UNL     1     -45.073 -50.835  15.629  1.00  0.00    -0.024 A 
HETATM   22  C   UNL     1     -47.476 -51.059  17.070  1.00  0.00     0.001 A 
HETATM   23  C   UNL     1     -46.350 -50.486  17.665  1.00  0.00     0.001 A 
HETATM   24  C   UNL     1     -45.158 -50.376  16.947  1.00  0.00     0.009 A 
HETATM   25  C   UNL     1     -43.779 -50.669  14.840  1.00  0.00     0.311 C 
ENDBRANCH  15  16
ENDBRANCH   1  15
TORSDOF 5
ENDMDL
MODEL 4
REMARK VINA RESULT:      -6.4      2.133      3.906
REMARK  5 active torsions:
REMARK  status: ('A' for Active; 'I' for Inactive)
REMARK    1  A    between atoms: N_6  and  C_7 
REMARK    2  A    between atoms: C_7  and  C_8 
REMARK    3  A    between atoms: C_8  and  O_9 
REMARK    4  A    between atoms: C_8  and  C_10 
REMARK    5  A    between atoms: C_10  and  N_11 
ROOT
HETATM    1  C   UNL     1     -38.593 -50.948  12.463  1.00  0.00     0.164 C 
ENDROOT
BRANCH   1   2
HETATM    2  C   UNL     1     -38.512 -49.417  12.601  1.00  0.00     0.166 C 
BRANCH   2   3
HETATM    3  N   UNL     1     -39.588 -48.750  11.859  1.00  0.00    -0.307 N 
HETATM    4  C   UNL     1     -40.371 -49.463  10.994  1.00  0.00     0.186 A 
HETATM    5  N   UNL     1     -41.363 -48.978  10.326  1.00  0.00    -0.355 N 
HETATM    6  C   UNL     1     -41.666 -47.653  10.513  1.00  0.00     0.017 A 
ATOM      7  HN  UNL     1     -41.901 -49.559   9.682  1.00  0.00     0.166 HD
HETATM    8  C   UNL     1     -42.804 -47.148   9.663  1.00  0.00     0.069 C 
HETATM    9  C   UNL     1     -41.020 -46.851  11.380  1.00  0.00     0.028 A 
HETATM   10  C   UNL     1     -39.902 -47.445  12.163  1.00  0.00     0.256 A 
HETATM   11  C   UNL     1     -41.358 -45.410  11.611  1.00  0.00     0.056 C 
HETATM   12  O   UNL     1     -39.313 -46.794  13.024  1.00  0.00    -0.267 OA
ENDBRANCH   2   3
ENDBRANCH   1   2
BRANCH   1  13
HETATM   13  O   UNL     1     -37.490 -51.370  11.644  1.00  0.00    -0.392 OA
HETATM   14  H   UNL     1     -37.692 -52.265  11.315  1.00  0.00     0.210 HD
ENDBRANCH   1  13
BRANCH   1  15
HETATM   15  C   UNL     1     -38.552 -51.656  13.852  1.00  0.00     0.306 C 
BRANCH  15  16
HETATM   16  N   UNL     1     -39.828 -52.296  14.241  1.00  0.00     0.095 N 
HETATM   17  C   UNL     1     -39.634 -53.685  14.712  1.00  0.00     0.277 C 
HETATM   18  C   UNL     1     -40.936 -54.234  15.311  1.00  0.00     0.069 C 
HETATM   19  C   UNL     1     -42.106 -54.066  14.377  1.00  0.00    -0.049 A 
HETATM   20  C   UNL     1     -43.275 -54.819  14.578  1.00  0.00     0.007 A 
HETATM   21  C   UNL     1     -42.044 -53.122  13.342  1.00  0.00    -0.024 A 
HETATM   22  C   UNL     1     -44.366 -54.657  13.731  1.00  0.00     0.001 A 
HETATM   23  C   UNL     1     -44.296 -53.742  12.678  1.00  0.00     0.001 A 
HETATM   24  C   UNL     1     -43.141 -52.981  12.487  1.00  0.00     0.009 A 
HETATM   25  C   UNL     1     -40.772 -52.318  13.097  1.00  0.00     0.311 C 
ENDBRANCH  15  16
ENDBRANCH   1  15
TORSDOF 5
ENDMDL
MODEL 5
REMARK VINA RESULT:      -6.3      2.147      3.396
REMARK  5 active torsions:
REMARK  status: ('A' for Active; 'I' for Inactive)
REMARK    1  A    between atoms: N_6  and  C_7 
REMARK    2  A    between atoms: C_7  and  C_8 
REMARK    3  A    between atoms: C_8  and  O_9 
REMARK    4  A    between atoms: C_8  and  C_10 
REMARK    5  A    between atoms: C_10  and  N_11 
ROOT
HETATM    1  C   UNL     1     -38.135 -51.138  12.987  1.00  0.00     0.164 C 
ENDROOT
BRANCH   1   2
HETATM    2  C   UNL     1     -37.782 -49.838  13.731  1.00  0.00     0.166 C 
BRANCH   2   3
HETATM    3  N   UNL     1     -38.447 -48.675  13.133  1.00  0.00    -0.307 N 
HETATM    4  C   UNL     1     -39.017 -48.771  11.893  1.00  0.00     0.186 A 
HETATM    5  N   UNL     1     -39.657 -47.821  11.299  1.00  0.00    -0.355 N 
HETATM    6  C   UNL     1     -39.792 -46.631  11.970  1.00  0.00     0.017 A 
ATOM      7  HN  UNL     1     -40.047 -47.950  10.365  1.00  0.00     0.166 HD
HETATM    8  C   UNL     1     -40.507 -45.555  11.193  1.00  0.00     0.069 C 
HETATM    9  C   UNL     1     -39.337 -46.419  13.219  1.00  0.00     0.028 A 
HETATM   10  C   UNL     1     -38.633 -47.544  13.895  1.00  0.00     0.256 A 
HETATM   11  C   UNL     1     -39.500 -45.134  13.970  1.00  0.00     0.056 C 
HETATM   12  O   UNL     1     -38.254 -47.448  15.060  1.00  0.00    -0.267 OA
ENDBRANCH   2   3
ENDBRANCH   1   2
BRANCH   1  13
HETATM   13  O   UNL     1     -36.916 -51.673  12.445  1.00  0.00    -0.392 OA
HETATM   14  H   UNL     1     -36.745 -51.219  11.600  1.00  0.00     0.210 HD
ENDBRANCH   1  13
BRANCH   1  15
HETATM   15  C   UNL     1     -38.821 -52.173  13.929  1.00  0.00     0.306 C 
BRANCH  15  16
HETATM   16  N   UNL     1     -40.088 -52.725  13.398  1.00  0.00     0.095 N 
HETATM   17  C   UNL     1     -40.957 -51.674  12.825  1.00  0.00     0.277 C 
HETATM   18  C   UNL     1     -42.148 -52.305  12.091  1.00  0.00     0.069 C 
HETATM   19  C   UNL     1     -42.882 -53.302  12.951  1.00  0.00    -0.049 A 
HETATM   20  C   UNL     1     -44.184 -53.699  12.604  1.00  0.00     0.007 A 
HETATM   21  C   UNL     1     -42.244 -53.868  14.064  1.00  0.00    -0.024 A 
HETATM   22  C   UNL     1     -44.862 -54.630  13.383  1.00  0.00     0.001 A 
HETATM   23  C   UNL     1     -44.243 -55.172  14.512  1.00  0.00     0.001 A 
HETATM   24  C   UNL     1     -42.943 -54.791  14.848  1.00  0.00     0.009 A 
HETATM   25  C   UNL     1     -40.841 -53.426  14.465  1.00  0.00     0.311 C 
ENDBRANCH  15  16
ENDBRANCH   1  15
TORSDOF 5
ENDMDL
MODEL 6
REMARK VINA RESULT:      -6.1      2.146      3.581
REMARK  5 active torsions:
REMARK  status: ('A' for Active; 'I' for Inactive)
REMARK    1  A    between atoms: N_6  and  C_7 
REMARK    2  A    between atoms: C_7  and  C_8 
REMARK    3  A    between atoms: C_8  and  O_9 
REMARK    4  A    between atoms: C_8  and  C_10 
REMARK    5  A    between atoms: C_10  and  N_11 
ROOT
HETATM    1  C   UNL     1     -42.756 -53.078  12.801  1.00  0.00     0.164 C 
ENDROOT
BRANCH   1   2
HETATM    2  C   UNL     1     -41.557 -53.955  13.203  1.00  0.00     0.166 C 
BRANCH   2   3
HETATM    3  N   UNL     1     -40.704 -53.285  14.192  1.00  0.00    -0.307 N 
HETATM    4  C   UNL     1     -40.746 -53.665  15.505  1.00  0.00     0.186 A 
HETATM    5  N   UNL     1     -40.011 -53.166  16.441  1.00  0.00    -0.355 N 
HETATM    6  C   UNL     1     -39.106 -52.196  16.088  1.00  0.00     0.017 A 
ATOM      7  HN  UNL     1     -40.099 -53.481  17.408  1.00  0.00     0.166 HD
HETATM    8  C   UNL     1     -38.319 -51.628  17.242  1.00  0.00     0.069 C 
HETATM    9  C   UNL     1     -38.914 -51.774  14.825  1.00  0.00     0.028 A 
HETATM   10  C   UNL     1     -39.752 -52.391  13.759  1.00  0.00     0.256 A 
HETATM   11  C   UNL     1     -37.913 -50.734  14.423  1.00  0.00     0.056 C 
HETATM   12  O   UNL     1     -39.584 -52.108  12.574  1.00  0.00    -0.267 OA
ENDBRANCH   2   3
ENDBRANCH   1   2
BRANCH   1  13
HETATM   13  O   UNL     1     -42.452 -52.482  11.530  1.00  0.00    -0.392 OA
HETATM   14  H   UNL     1     -43.208 -52.649  10.937  1.00  0.00     0.210 HD
ENDBRANCH   1  13
BRANCH   1  15
HETATM   15  C   UNL     1     -44.075 -53.905  12.723  1.00  0.00     0.306 C 
BRANCH  15  16
HETATM   16  N   UNL     1     -45.171 -53.376  13.566  1.00  0.00     0.095 N 
HETATM   17  C   UNL     1     -45.425 -51.940  13.312  1.00  0.00     0.277 C 
HETATM   18  C   UNL     1     -46.702 -51.488  14.034  1.00  0.00     0.069 C 
HETATM   19  C   UNL     1     -46.689 -51.855  15.496  1.00  0.00    -0.049 A 
HETATM   20  C   UNL     1     -47.571 -51.218  16.385  1.00  0.00     0.007 A 
HETATM   21  C   UNL     1     -45.833 -52.868  15.953  1.00  0.00    -0.024 A 
HETATM   22  C   UNL     1     -47.577 -51.564  17.732  1.00  0.00     0.001 A 
HETATM   23  C   UNL     1     -46.703 -52.548  18.199  1.00  0.00     0.001 A 
HETATM   24  C   UNL     1     -45.838 -53.194  17.313  1.00  0.00     0.009 A 
HETATM   25  C   UNL     1     -44.854 -53.548  15.004  1.00  0.00     0.311 C 
ENDBRANCH  15  16
ENDBRANCH   1  15
TORSDOF 5
ENDMDL
MODEL 7
REMARK VINA RESULT:      -6.1      2.822      4.498
REMARK  5 active torsions:
REMARK  status: ('A' for Active; 'I' for Inactive)
REMARK    1  A    between atoms: N_6  and  C_7 
REMARK    2  A    between atoms: C_7  and  C_8 
REMARK    3  A    between atoms: C_8  and  O_9 
REMARK    4  A    between atoms: C_8  and  C_10 
REMARK    5  A    between atoms: C_10  and  N_11 
ROOT
HETATM    1  C   UNL     1     -40.327 -49.832  11.577  1.00  0.00     0.164 C 
ENDROOT
BRANCH   1   2
HETATM    2  C   UNL     1     -39.507 -48.554  11.829  1.00  0.00     0.166 C 
BRANCH   2   3
HETATM    3  N   UNL     1     -40.359 -47.441  12.263  1.00  0.00    -0.307 N 
HETATM    4  C   UNL     1     -41.046 -47.522  13.443  1.00  0.00     0.186 A 
HETATM    5  N   UNL     1     -41.789 -46.585  13.930  1.00  0.00    -0.355 N 
HETATM    6  C   UNL     1     -41.879 -45.414  13.220  1.00  0.00     0.017 A 
ATOM      7  HN  UNL     1     -42.291 -46.712  14.810  1.00  0.00     0.166 HD
HETATM    8  C   UNL     1     -42.802 -44.388  13.826  1.00  0.00     0.069 C 
HETATM    9  C   UNL     1     -41.207 -45.175  12.079  1.00  0.00     0.028 A 
HETATM   10  C   UNL     1     -40.330 -46.260  11.557  1.00  0.00     0.256 A 
HETATM   11  C   UNL     1     -41.278 -43.892  11.309  1.00  0.00     0.056 C 
HETATM   12  O   UNL     1     -39.631 -46.089  10.561  1.00  0.00    -0.267 OA
ENDBRANCH   2   3
ENDBRANCH   1   2
BRANCH   1  13
HETATM   13  O   UNL     1     -40.400 -50.028  10.155  1.00  0.00    -0.392 OA
HETATM   14  H   UNL     1     -41.281 -49.733   9.861  1.00  0.00     0.210 HD
ENDBRANCH   1  13
BRANCH   1  15
HETATM   15  C   UNL     1     -39.692 -51.072  12.275  1.00  0.00     0.306 C 
BRANCH  15  16
HETATM   16  N   UNL     1     -40.646 -51.865  13.083  1.00  0.00     0.095 N 
HETATM   17  C   UNL     1     -40.050 -53.130  13.567  1.00  0.00     0.277 C 
HETATM   18  C   UNL     1     -40.985 -53.810  14.575  1.00  0.00     0.069 C 
HETATM   19  C   UNL     1     -42.385 -53.963  14.039  1.00  0.00    -0.049 A 
HETATM   20  C   UNL     1     -43.271 -54.870  14.643  1.00  0.00     0.007 A 
HETATM   21  C   UNL     1     -42.815 -53.160  12.972  1.00  0.00    -0.024 A 
HETATM   22  C   UNL     1     -44.570 -55.005  14.165  1.00  0.00     0.001 A 
HETATM   23  C   UNL     1     -44.992 -54.232  13.080  1.00  0.00     0.001 A 
HETATM   24  C   UNL     1     -44.119 -53.317  12.490  1.00  0.00     0.009 A 
HETATM   25  C   UNL     1     -41.857 -52.190  12.291  1.00  0.00     0.311 C 
ENDBRANCH  15  16
ENDBRANCH   1  15
TORSDOF 5
ENDMDL
MODEL 8
REMARK VINA RESULT:      -6.0      2.594      3.442
REMARK  5 active torsions:
REMARK  status: ('A' for Active; 'I' for Inactive)
REMARK    1  A    between atoms: N_6  and  C_7 
REMARK    2  A    between atoms: C_7  and  C_8 
REMARK    3  A    between atoms: C_8  and  O_9 
REMARK    4  A    between atoms: C_8  and  C_10 
REMARK    5  A    between atoms: C_10  and  N_11 
ROOT
HETATM    1  C   UNL     1     -40.558 -50.441  11.719  1.00  0.00     0.164 C 
ENDROOT
BRANCH   1   2
HETATM    2  C   UNL     1     -39.139 -50.278  12.292  1.00  0.00     0.166 C 
BRANCH   2   3
HETATM    3  N   UNL     1     -39.080 -49.207  13.294  1.00  0.00    -0.307 N 
HETATM    4  C   UNL     1     -38.761 -49.497  14.591  1.00  0.00     0.186 A 
HETATM    5  N   UNL     1     -38.645 -48.625  15.536  1.00  0.00    -0.355 N 
HETATM    6  C   UNL     1     -38.839 -47.306  15.208  1.00  0.00     0.017 A 
ATOM      7  HN  UNL     1     -38.420 -48.906  16.491  1.00  0.00     0.166 HD
HETATM    8  C   UNL     1     -38.736 -46.353  16.371  1.00  0.00     0.069 C 
HETATM    9  C   UNL     1     -39.094 -46.874  13.959  1.00  0.00     0.028 A 
HETATM   10  C   UNL     1     -39.188 -47.898  12.882  1.00  0.00     0.256 A 
HETATM   11  C   UNL     1     -39.282 -45.436  13.584  1.00  0.00     0.056 C 
HETATM   12  O   UNL     1     -39.348 -47.573  11.708  1.00  0.00    -0.267 OA
ENDBRANCH   2   3
ENDBRANCH   1   2
BRANCH   1  13
HETATM   13  O   UNL     1     -40.503 -50.115  10.321  1.00  0.00    -0.392 OA
HETATM   14  H   UNL     1     -40.995 -50.803   9.838  1.00  0.00     0.210 HD
ENDBRANCH   1  13
BRANCH   1  15
HETATM   15  C   UNL     1     -41.102 -51.887  11.928  1.00  0.00     0.306 C 
BRANCH  15  16
HETATM   16  N   UNL     1     -42.535 -51.946  12.294  1.00  0.00     0.095 N 
HETATM   17  C   UNL     1     -42.914 -50.871  13.237  1.00  0.00     0.277 C 
HETATM   18  C   UNL     1     -44.438 -50.830  13.416  1.00  0.00     0.069 C 
HETATM   19  C   UNL     1     -45.006 -52.180  13.771  1.00  0.00    -0.049 A 
HETATM   20  C   UNL     1     -46.292 -52.273  14.328  1.00  0.00     0.007 A 
HETATM   21  C   UNL     1     -44.269 -53.341  13.495  1.00  0.00    -0.024 A 
HETATM   22  C   UNL     1     -46.830 -53.517  14.642  1.00  0.00     0.001 A 
HETATM   23  C   UNL     1     -46.087 -54.675  14.401  1.00  0.00     0.001 A 
HETATM   24  C   UNL     1     -44.815 -54.584  13.831  1.00  0.00     0.009 A 
HETATM   25  C   UNL     1     -42.863 -53.252  12.915  1.00  0.00     0.311 C 
ENDBRANCH  15  16
ENDBRANCH   1  15
TORSDOF 5
ENDMDL
MODEL 9
REMARK VINA RESULT:      -6.0      2.811      4.133
REMARK  5 active torsions:
REMARK  status: ('A' for Active; 'I' for Inactive)
REMARK    1  A    between atoms: N_6  and  C_7 
REMARK    2  A    between atoms: C_7  and  C_8 
REMARK    3  A    between atoms: C_8  and  O_9 
REMARK    4  A    between atoms: C_8  and  C_10 
REMARK    5  A    between atoms: C_10  and  N_11 
ROOT
HETATM    1  C   UNL     1     -39.793 -50.368  11.846  1.00  0.00     0.164 C 
ENDROOT
BRANCH   1   2
HETATM    2  C   UNL     1     -39.609 -48.854  12.053  1.00  0.00     0.166 C 
BRANCH   2   3
HETATM    3  N   UNL     1     -40.625 -48.082  11.327  1.00  0.00    -0.307 N 
HETATM    4  C   UNL     1     -41.540 -48.721  10.537  1.00  0.00     0.186 A 
HETATM    5  N   UNL     1     -42.493 -48.138   9.891  1.00  0.00    -0.355 N 
HETATM    6  C   UNL     1     -42.607 -46.777  10.022  1.00  0.00     0.017 A 
ATOM      7  HN  UNL     1     -43.136 -48.670   9.304  1.00  0.00     0.166 HD
HETATM    8  C   UNL     1     -43.711 -46.162   9.200  1.00  0.00     0.069 C 
HETATM    9  C   UNL     1     -41.816 -46.031  10.816  1.00  0.00     0.028 A 
HETATM   10  C   UNL     1     -40.746 -46.734  11.577  1.00  0.00     0.256 A 
HETATM   11  C   UNL     1     -41.947 -44.548  10.986  1.00  0.00     0.056 C 
HETATM   12  O   UNL     1     -40.032 -46.130  12.375  1.00  0.00    -0.267 OA
ENDBRANCH   2   3
ENDBRANCH   1   2
BRANCH   1  13
HETATM   13  O   UNL     1     -38.509 -50.920  11.514  1.00  0.00    -0.392 OA
HETATM   14  H   UNL     1     -38.316 -51.627  12.157  1.00  0.00     0.210 HD
ENDBRANCH   1  13
BRANCH   1  15
HETATM   15  C   UNL     1     -40.379 -51.057  13.116  1.00  0.00     0.306 C 
BRANCH  15  16
HETATM   16  N   UNL     1     -41.841 -51.286  13.059  1.00  0.00     0.095 N 
HETATM   17  C   UNL     1     -42.589 -50.314  13.887  1.00  0.00     0.277 C 
HETATM   18  C   UNL     1     -44.097 -50.441  13.628  1.00  0.00     0.069 C 
HETATM   19  C   UNL     1     -44.580 -51.861  13.768  1.00  0.00    -0.049 A 
HETATM   20  C   UNL     1     -45.951 -52.120  13.935  1.00  0.00     0.007 A 
HETATM   21  C   UNL     1     -43.666 -52.922  13.680  1.00  0.00    -0.024 A 
HETATM   22  C   UNL     1     -46.407 -53.429  14.048  1.00  0.00     0.001 A 
HETATM   23  C   UNL     1     -45.497 -54.487  13.995  1.00  0.00     0.001 A 
HETATM   24  C   UNL     1     -44.136 -54.232  13.812  1.00  0.00     0.009 A 
HETATM   25  C   UNL     1     -42.174 -52.653  13.525  1.00  0.00     0.311 C 
ENDBRANCH  15  16
ENDBRANCH   1  15
TORSDOF 5
ENDMDL
