MODEL 1
REMARK VINA RESULT:      -6.2      0.000      0.000
REMARK  5 active torsions:
REMARK  status: ('A' for Active; 'I' for Inactive)
REMARK    1  A    between atoms: C_8  and  C_9 
REMARK    2  A    between atoms: C_9  and  C_10 
REMARK       I    between atoms: C_10  and  N_12 
REMARK    3  A    between atoms: N_12  and  C_13 
REMARK    4  A    between atoms: C_13  and  C_20 
REMARK    5  A    between atoms: C_20  and  O_22 
ROOT
HETATM    1  C   UNL     1     -42.780 -51.588  13.040  1.00  0.00     0.223 C 
HETATM    2  O   UNL     1     -43.008 -51.124  14.153  1.00  0.00    -0.273 OA
HETATM    3  N   UNL     1     -42.249 -50.851  11.987  1.00  0.00    -0.342 N 
HETATM    4  H   UNL     1     -41.645 -51.405  11.383  1.00  0.00     0.163 HD
ENDROOT
BRANCH   3   5
HETATM    5  C   UNL     1     -41.806 -49.405  12.166  1.00  0.00     0.118 C 
HETATM    6  C   UNL     1     -40.672 -49.401  13.216  1.00  0.00     0.042 C 
HETATM    7  C   UNL     1     -39.889 -48.114  13.459  1.00  0.00     0.003 C 
HETATM    8  C   UNL     1     -40.581 -47.016  14.259  1.00  0.00     0.000 C 
HETATM    9  C   UNL     1     -42.101 -47.008  14.303  1.00  0.00     0.000 C 
HETATM   10  C   UNL     1     -42.776 -47.093  12.940  1.00  0.00     0.003 C 
HETATM   11  C   UNL     1     -43.040 -48.528  12.490  1.00  0.00     0.042 C 
BRANCH   5  12
HETATM   12  C   UNL     1     -41.302 -48.934  10.757  1.00  0.00     0.169 C 
HETATM   13  O   UNL     1     -41.670 -47.947  10.147  1.00  0.00    -0.648 OA
BRANCH  12  14
HETATM   14  O   UNL     1     -40.453 -49.832  10.184  1.00  0.00    -0.775 OA
HETATM   15  H   UNL     1     -40.368 -50.623  10.747  1.00  0.00     0.167 HD
ENDBRANCH  12  14
ENDBRANCH   5  12
ENDBRANCH   3   5
BRANCH   1  16
HETATM   16  C   UNL     1     -43.109 -53.034  12.716  1.00  0.00     0.146 C 
BRANCH  16  17
HETATM   17  C   UNL     1     -44.292 -53.572  13.441  1.00  0.00     0.006 A 
HETATM   18  C   UNL     1     -45.682 -53.294  13.271  1.00  0.00     0.038 A 
HETATM   19  C   UNL     1     -46.358 -52.351  12.344  1.00  0.00     0.071 C 
HETATM   20  N   UNL     1     -46.431 -54.042  14.090  1.00  0.00    -0.265 N 
HETATM   21  O   UNL     1     -45.555 -54.837  14.791  1.00  0.00    -0.242 OA
ATOM     22  HN  UNL     1     -47.447 -54.025  14.176  1.00  0.00     0.194 HD
HETATM   23  C   UNL     1     -44.284 -54.563  14.403  1.00  0.00     0.081 A 
HETATM   24  C   UNL     1     -43.226 -55.368  15.042  1.00  0.00     0.079 C 
ENDBRANCH  16  17
ENDBRANCH   1  16
TORSDOF 5
ENDMDL
MODEL 2
REMARK VINA RESULT:      -6.1      2.763      6.554
REMARK  5 active torsions:
REMARK  status: ('A' for Active; 'I' for Inactive)
REMARK    1  A    between atoms: C_8  and  C_9 
REMARK    2  A    between atoms: C_9  and  C_10 
REMARK       I    between atoms: C_10  and  N_12 
REMARK    3  A    between atoms: N_12  and  C_13 
REMARK    4  A    between atoms: C_13  and  C_20 
REMARK    5  A    between atoms: C_20  and  O_22 
ROOT
HETATM    1  C   UNL     1     -42.489 -49.106  12.037  1.00  0.00     0.223 C 
HETATM    2  O   UNL     1     -42.912 -48.366  12.920  1.00  0.00    -0.273 OA
HETATM    3  N   UNL     1     -42.575 -50.493  12.081  1.00  0.00    -0.342 N 
HETATM    4  H   UNL     1     -42.701 -50.909  11.160  1.00  0.00     0.163 HD
ENDROOT
BRANCH   3   5
HETATM    5  C   UNL     1     -43.306 -51.214  13.204  1.00  0.00     0.118 C 
HETATM    6  C   UNL     1     -44.801 -50.834  13.095  1.00  0.00     0.042 C 
HETATM    7  C   UNL     1     -45.818 -51.562  13.968  1.00  0.00     0.003 C 
HETATM    8  C   UNL     1     -45.870 -51.185  15.444  1.00  0.00     0.000 C 
HETATM    9  C   UNL     1     -44.633 -50.557  16.069  1.00  0.00     0.000 C 
HETATM   10  C   UNL     1     -43.340 -51.325  15.826  1.00  0.00     0.003 C 
HETATM   11  C   UNL     1     -42.617 -50.893  14.553  1.00  0.00     0.042 C 
BRANCH   5  12
HETATM   12  C   UNL     1     -43.071 -52.745  12.955  1.00  0.00     0.169 C 
HETATM   13  O   UNL     1     -42.398 -53.496  13.636  1.00  0.00    -0.648 OA
BRANCH  12  14
HETATM   14  O   UNL     1     -43.619 -53.169  11.782  1.00  0.00    -0.775 OA
HETATM   15  H   UNL     1     -44.027 -52.420  11.310  1.00  0.00     0.167 HD
ENDBRANCH  12  14
ENDBRANCH   5  12
ENDBRANCH   3   5
BRANCH   1  16
HETATM   16  C   UNL     1     -41.785 -48.539  10.817  1.00  0.00     0.146 C 
BRANCH  16  17
HETATM   17  C   UNL     1     -42.275 -47.199  10.393  1.00  0.00     0.006 A 
HETATM   18  C   UNL     1     -43.572 -46.786   9.960  1.00  0.00     0.038 A 
HETATM   19  C   UNL     1     -44.809 -47.583   9.763  1.00  0.00     0.071 C 
HETATM   20  N   UNL     1     -43.610 -45.468   9.729  1.00  0.00    -0.265 N 
HETATM   21  O   UNL     1     -42.355 -44.990  10.027  1.00  0.00    -0.242 OA
ATOM     22  HN  UNL     1     -44.408 -44.927   9.398  1.00  0.00     0.194 HD
HETATM   23  C   UNL     1     -41.563 -46.015  10.427  1.00  0.00     0.081 A 
HETATM   24  C   UNL     1     -40.188 -45.655  10.821  1.00  0.00     0.079 C 
ENDBRANCH  16  17
ENDBRANCH   1  16
TORSDOF 5
ENDMDL
MODEL 3
REMARK VINA RESULT:      -6.1      2.221      6.537
REMARK  5 active torsions:
REMARK  status: ('A' for Active; 'I' for Inactive)
REMARK    1  A    between atoms: C_8  and  C_9 
REMARK    2  A    between atoms: C_9  and  C_10 
REMARK       I    between atoms: C_10  and  N_12 
REMARK    3  A    between atoms: N_12  and  C_13 
REMARK    4  A    between atoms: C_13  and  C_20 
REMARK    5  A    between atoms: C_20  and  O_22 
ROOT
HETATM    1  C   UNL     1     -42.153 -51.352  12.866  1.00  0.00     0.223 C 
HETATM    2  O   UNL     1     -41.957 -50.936  14.004  1.00  0.00    -0.273 OA
HETATM    3  N   UNL     1     -43.243 -52.136  12.504  1.00  0.00    -0.342 N 
HETATM    4  H   UNL     1     -43.562 -51.954  11.554  1.00  0.00     0.163 HD
ENDROOT
BRANCH   3   5
HETATM    5  C   UNL     1     -44.357 -52.462  13.490  1.00  0.00     0.118 C 
HETATM    6  C   UNL     1     -45.113 -51.145  13.778  1.00  0.00     0.042 C 
HETATM    7  C   UNL     1     -46.410 -51.194  14.580  1.00  0.00     0.003 C 
HETATM    8  C   UNL     1     -46.293 -51.409  16.084  1.00  0.00     0.000 C 
HETATM    9  C   UNL     1     -45.036 -52.078  16.619  1.00  0.00     0.000 C 
HETATM   10  C   UNL     1     -44.668 -53.384  15.927  1.00  0.00     0.003 C 
HETATM   11  C   UNL     1     -43.755 -53.186  14.720  1.00  0.00     0.042 C 
BRANCH   5  12
HETATM   12  C   UNL     1     -45.269 -53.517  12.773  1.00  0.00     0.169 C 
HETATM   13  O   UNL     1     -45.247 -54.724  12.933  1.00  0.00    -0.648 OA
BRANCH  12  14
HETATM   14  O   UNL     1     -46.056 -52.955  11.814  1.00  0.00    -0.775 OA
HETATM   15  H   UNL     1     -46.986 -52.936  12.109  1.00  0.00     0.167 HD
ENDBRANCH  12  14
ENDBRANCH   5  12
ENDBRANCH   3   5
BRANCH   1  16
HETATM   16  C   UNL     1     -41.165 -51.062  11.750  1.00  0.00     0.146 C 
BRANCH  16  17
HETATM   17  C   UNL     1     -40.728 -49.642  11.671  1.00  0.00     0.006 A 
HETATM   18  C   UNL     1     -39.415 -49.083  11.630  1.00  0.00     0.038 A 
HETATM   19  C   UNL     1     -38.092 -49.753  11.696  1.00  0.00     0.071 C 
HETATM   20  N   UNL     1     -39.458 -47.752  11.495  1.00  0.00    -0.265 N 
HETATM   21  O   UNL     1     -40.790 -47.417  11.421  1.00  0.00    -0.242 OA
ATOM     22  HN  UNL     1     -38.663 -47.114  11.455  1.00  0.00     0.194 HD
HETATM   23  C   UNL     1     -41.546 -48.539  11.519  1.00  0.00     0.081 A 
HETATM   24  C   UNL     1     -43.004 -48.347  11.418  1.00  0.00     0.079 C 
ENDBRANCH  16  17
ENDBRANCH   1  16
TORSDOF 5
ENDMDL
MODEL 4
REMARK VINA RESULT:      -6.1      1.418      2.061
REMARK  5 active torsions:
REMARK  status: ('A' for Active; 'I' for Inactive)
REMARK    1  A    between atoms: C_8  and  C_9 
REMARK    2  A    between atoms: C_9  and  C_10 
REMARK       I    between atoms: C_10  and  N_12 
REMARK    3  A    between atoms: N_12  and  C_13 
REMARK    4  A    between atoms: C_13  and  C_20 
REMARK    5  A    between atoms: C_20  and  O_22 
ROOT
HETATM    1  C   UNL     1     -43.047 -51.704  12.885  1.00  0.00     0.223 C 
HETATM    2  O   UNL     1     -43.516 -51.206  13.904  1.00  0.00    -0.273 OA
HETATM    3  N   UNL     1     -42.269 -51.005  11.969  1.00  0.00    -0.342 N 
HETATM    4  H   UNL     1     -41.554 -51.586  11.534  1.00  0.00     0.163 HD
ENDROOT
BRANCH   3   5
HETATM    5  C   UNL     1     -41.845 -49.563  12.214  1.00  0.00     0.118 C 
HETATM    6  C   UNL     1     -40.801 -49.581  13.354  1.00  0.00     0.042 C 
HETATM    7  C   UNL     1     -40.044 -48.299  13.687  1.00  0.00     0.003 C 
HETATM    8  C   UNL     1     -40.801 -47.219  14.451  1.00  0.00     0.000 C 
HETATM    9  C   UNL     1     -42.320 -47.213  14.370  1.00  0.00     0.000 C 
HETATM   10  C   UNL     1     -42.881 -47.269  12.955  1.00  0.00     0.003 C 
HETATM   11  C   UNL     1     -43.103 -48.694  12.455  1.00  0.00     0.042 C 
BRANCH   5  12
HETATM   12  C   UNL     1     -41.228 -49.062  10.862  1.00  0.00     0.169 C 
HETATM   13  O   UNL     1     -41.530 -48.049  10.258  1.00  0.00    -0.648 OA
BRANCH  12  14
HETATM   14  O   UNL     1     -40.358 -49.961  10.324  1.00  0.00    -0.775 OA
HETATM   15  H   UNL     1     -40.752 -50.383   9.537  1.00  0.00     0.167 HD
ENDBRANCH  12  14
ENDBRANCH   5  12
ENDBRANCH   3   5
BRANCH   1  16
HETATM   16  C   UNL     1     -43.326 -53.152  12.526  1.00  0.00     0.146 C 
BRANCH  16  17
HETATM   17  C   UNL     1     -43.178 -54.105  13.659  1.00  0.00     0.006 A 
HETATM   18  C   UNL     1     -42.039 -54.412  14.463  1.00  0.00     0.038 A 
HETATM   19  C   UNL     1     -40.649 -53.900  14.379  1.00  0.00     0.071 C 
HETATM   20  N   UNL     1     -42.347 -55.288  15.427  1.00  0.00    -0.265 N 
HETATM   21  O   UNL     1     -43.690 -55.552  15.291  1.00  0.00    -0.242 OA
ATOM     22  HN  UNL     1     -41.713 -55.680  16.123  1.00  0.00     0.194 HD
HETATM   23  C   UNL     1     -44.187 -54.847  14.245  1.00  0.00     0.081 A 
HETATM   24  C   UNL     1     -45.632 -54.995  13.993  1.00  0.00     0.079 C 
ENDBRANCH  16  17
ENDBRANCH   1  16
TORSDOF 5
ENDMDL
MODEL 5
REMARK VINA RESULT:      -6.1      3.112      6.229
REMARK  5 active torsions:
REMARK  status: ('A' for Active; 'I' for Inactive)
REMARK    1  A    between atoms: C_8  and  C_9 
REMARK    2  A    between atoms: C_9  and  C_10 
REMARK       I    between atoms: C_10  and  N_12 
REMARK    3  A    between atoms: N_12  and  C_13 
REMARK    4  A    between atoms: C_13  and  C_20 
REMARK    5  A    between atoms: C_20  and  O_22 
ROOT
HETATM    1  C   UNL     1     -42.610 -53.529  13.033  1.00  0.00     0.223 C 
HETATM    2  O   UNL     1     -43.249 -52.980  12.141  1.00  0.00    -0.273 OA
HETATM    3  N   UNL     1     -43.118 -53.795  14.300  1.00  0.00    -0.342 N 
HETATM    4  H   UNL     1     -42.747 -54.654  14.702  1.00  0.00     0.163 HD
ENDROOT
BRANCH   3   5
HETATM    5  C   UNL     1     -44.570 -53.509  14.656  1.00  0.00     0.118 C 
HETATM    6  C   UNL     1     -44.841 -52.025  14.319  1.00  0.00     0.042 C 
HETATM    7  C   UNL     1     -46.270 -51.498  14.382  1.00  0.00     0.003 C 
HETATM    8  C   UNL     1     -46.864 -51.251  15.765  1.00  0.00     0.000 C 
HETATM    9  C   UNL     1     -46.272 -52.006  16.946  1.00  0.00     0.000 C 
HETATM   10  C   UNL     1     -46.159 -53.511  16.745  1.00  0.00     0.003 C 
HETATM   11  C   UNL     1     -44.831 -53.935  16.122  1.00  0.00     0.042 C 
BRANCH   5  12
HETATM   12  C   UNL     1     -45.427 -54.478  13.769  1.00  0.00     0.169 C 
HETATM   13  O   UNL     1     -45.606 -55.667  13.956  1.00  0.00    -0.648 OA
BRANCH  12  14
HETATM   14  O   UNL     1     -45.890 -53.872  12.639  1.00  0.00    -0.775 OA
HETATM   15  H   UNL     1     -45.333 -54.112  11.875  1.00  0.00     0.167 HD
ENDBRANCH  12  14
ENDBRANCH   5  12
ENDBRANCH   3   5
BRANCH   1  16
HETATM   16  C   UNL     1     -41.162 -53.934  12.818  1.00  0.00     0.146 C 
BRANCH  16  17
HETATM   17  C   UNL     1     -40.169 -52.996  13.406  1.00  0.00     0.006 A 
HETATM   18  C   UNL     1     -39.867 -51.642  13.068  1.00  0.00     0.038 A 
HETATM   19  C   UNL     1     -40.430 -50.779  11.998  1.00  0.00     0.071 C 
HETATM   20  N   UNL     1     -38.942 -51.130  13.889  1.00  0.00    -0.265 N 
HETATM   21  O   UNL     1     -38.638 -52.124  14.790  1.00  0.00    -0.242 OA
ATOM     22  HN  UNL     1     -38.543 -50.192  13.853  1.00  0.00     0.194 HD
HETATM   23  C   UNL     1     -39.370 -53.230  14.509  1.00  0.00     0.081 A 
HETATM   24  C   UNL     1     -39.183 -54.377  15.417  1.00  0.00     0.079 C 
ENDBRANCH  16  17
ENDBRANCH   1  16
TORSDOF 5
ENDMDL
MODEL 6
REMARK VINA RESULT:      -6.1      3.020      6.477
REMARK  5 active torsions:
REMARK  status: ('A' for Active; 'I' for Inactive)
REMARK    1  A    between atoms: C_8  and  C_9 
REMARK    2  A    between atoms: C_9  and  C_10 
REMARK       I    between atoms: C_10  and  N_12 
REMARK    3  A    between atoms: N_12  and  C_13 
REMARK    4  A    between atoms: C_13  and  C_20 
REMARK    5  A    between atoms: C_20  and  O_22 
ROOT
HETATM    1  C   UNL     1     -42.675 -53.448  13.023  1.00  0.00     0.223 C 
HETATM    2  O   UNL     1     -43.356 -52.990  12.110  1.00  0.00    -0.273 OA
HETATM    3  N   UNL     1     -43.150 -53.664  14.312  1.00  0.00    -0.342 N 
HETATM    4  H   UNL     1     -42.726 -54.475  14.758  1.00  0.00     0.163 HD
ENDROOT
BRANCH   3   5
HETATM    5  C   UNL     1     -44.612 -53.438  14.674  1.00  0.00     0.118 C 
HETATM    6  C   UNL     1     -44.946 -51.968  14.334  1.00  0.00     0.042 C 
HETATM    7  C   UNL     1     -46.396 -51.501  14.402  1.00  0.00     0.003 C 
HETATM    8  C   UNL     1     -46.993 -51.275  15.786  1.00  0.00     0.000 C 
HETATM    9  C   UNL     1     -46.364 -52.000  16.967  1.00  0.00     0.000 C 
HETATM   10  C   UNL     1     -46.189 -53.500  16.770  1.00  0.00     0.003 C 
HETATM   11  C   UNL     1     -44.847 -53.869  16.142  1.00  0.00     0.042 C 
BRANCH   5  12
HETATM   12  C   UNL     1     -45.432 -54.444  13.793  1.00  0.00     0.169 C 
HETATM   13  O   UNL     1     -45.550 -55.642  13.978  1.00  0.00    -0.648 OA
BRANCH  12  14
HETATM   14  O   UNL     1     -45.937 -53.859  12.672  1.00  0.00    -0.775 OA
HETATM   15  H   UNL     1     -46.823 -54.217  12.474  1.00  0.00     0.167 HD
ENDBRANCH  12  14
ENDBRANCH   5  12
ENDBRANCH   3   5
BRANCH   1  16
HETATM   16  C   UNL     1     -41.210 -53.785  12.809  1.00  0.00     0.146 C 
BRANCH  16  17
HETATM   17  C   UNL     1     -40.262 -52.801  13.398  1.00  0.00     0.006 A 
HETATM   18  C   UNL     1     -39.333 -52.945  14.472  1.00  0.00     0.038 A 
HETATM   19  C   UNL     1     -39.066 -54.112  15.351  1.00  0.00     0.071 C 
HETATM   20  N   UNL     1     -38.617 -51.828  14.649  1.00  0.00    -0.265 N 
HETATM   21  O   UNL     1     -39.042 -50.944  13.685  1.00  0.00    -0.242 OA
ATOM     22  HN  UNL     1     -37.900 -51.665  15.356  1.00  0.00     0.194 HD
HETATM   23  C   UNL     1     -40.015 -51.521  12.938  1.00  0.00     0.081 A 
HETATM   24  C   UNL     1     -40.549 -50.707  11.831  1.00  0.00     0.079 C 
ENDBRANCH  16  17
ENDBRANCH   1  16
TORSDOF 5
ENDMDL
MODEL 7
REMARK VINA RESULT:      -6.0      2.451      3.266
REMARK  5 active torsions:
REMARK  status: ('A' for Active; 'I' for Inactive)
REMARK    1  A    between atoms: C_8  and  C_9 
REMARK    2  A    between atoms: C_9  and  C_10 
REMARK       I    between atoms: C_10  and  N_12 
REMARK    3  A    between atoms: N_12  and  C_13 
REMARK    4  A    between atoms: C_13  and  C_20 
REMARK    5  A    between atoms: C_20  and  O_22 
ROOT
HETATM    1  C   UNL     1     -43.102 -51.160  13.915  1.00  0.00     0.223 C 
HETATM    2  O   UNL     1     -42.625 -51.803  14.846  1.00  0.00    -0.273 OA
HETATM    3  N   UNL     1     -42.346 -50.608  12.887  1.00  0.00    -0.342 N 
HETATM    4  H   UNL     1     -42.837 -50.603  11.995  1.00  0.00     0.163 HD
ENDROOT
BRANCH   3   5
HETATM    5  C   UNL     1     -40.846 -50.848  12.779  1.00  0.00     0.118 C 
HETATM    6  C   UNL     1     -40.243 -50.617  14.183  1.00  0.00     0.042 C 
HETATM    7  C   UNL     1     -38.782 -50.978  14.432  1.00  0.00     0.003 C 
HETATM    8  C   UNL     1     -37.723 -50.039  13.866  1.00  0.00     0.000 C 
HETATM    9  C   UNL     1     -38.104 -49.154  12.689  1.00  0.00     0.000 C 
HETATM   10  C   UNL     1     -38.750 -49.891  11.523  1.00  0.00     0.003 C 
HETATM   11  C   UNL     1     -40.270 -49.976  11.636  1.00  0.00     0.042 C 
BRANCH   5  12
HETATM   12  C   UNL     1     -40.683 -52.335  12.308  1.00  0.00     0.169 C 
HETATM   13  O   UNL     1     -40.072 -53.216  12.885  1.00  0.00    -0.648 OA
BRANCH  12  14
HETATM   14  O   UNL     1     -41.213 -52.549  11.072  1.00  0.00    -0.775 OA
HETATM   15  H   UNL     1     -40.507 -52.759  10.433  1.00  0.00     0.167 HD
ENDBRANCH  12  14
ENDBRANCH   5  12
ENDBRANCH   3   5
BRANCH   1  16
HETATM   16  C   UNL     1     -44.593 -50.883  13.843  1.00  0.00     0.146 C 
BRANCH  16  17
HETATM   17  C   UNL     1     -45.449 -52.092  13.986  1.00  0.00     0.006 A 
HETATM   18  C   UNL     1     -45.314 -53.391  13.408  1.00  0.00     0.038 A 
HETATM   19  C   UNL     1     -44.299 -53.909  12.458  1.00  0.00     0.071 C 
HETATM   20  N   UNL     1     -46.271 -54.218  13.845  1.00  0.00    -0.265 N 
HETATM   21  O   UNL     1     -47.033 -53.491  14.730  1.00  0.00    -0.242 OA
ATOM     22  HN  UNL     1     -46.408 -55.192  13.576  1.00  0.00     0.194 HD
HETATM   23  C   UNL     1     -46.543 -52.229  14.819  1.00  0.00     0.081 A 
HETATM   24  C   UNL     1     -47.234 -51.333  15.764  1.00  0.00     0.079 C 
ENDBRANCH  16  17
ENDBRANCH   1  16
TORSDOF 5
ENDMDL
MODEL 8
REMARK VINA RESULT:      -6.0      1.830      2.345
REMARK  5 active torsions:
REMARK  status: ('A' for Active; 'I' for Inactive)
REMARK    1  A    between atoms: C_8  and  C_9 
REMARK    2  A    between atoms: C_9  and  C_10 
REMARK       I    between atoms: C_10  and  N_12 
REMARK    3  A    between atoms: N_12  and  C_13 
REMARK    4  A    between atoms: C_13  and  C_20 
REMARK    5  A    between atoms: C_20  and  O_22 
ROOT
HETATM    1  C   UNL     1     -40.635 -52.825  13.571  1.00  0.00     0.223 C 
HETATM    2  O   UNL     1     -39.953 -52.618  14.571  1.00  0.00    -0.273 OA
HETATM    3  N   UNL     1     -40.918 -51.860  12.612  1.00  0.00    -0.342 N 
HETATM    4  H   UNL     1     -40.990 -52.247  11.672  1.00  0.00     0.163 HD
ENDROOT
BRANCH   3   5
HETATM    5  C   UNL     1     -40.306 -50.467  12.674  1.00  0.00     0.118 C 
HETATM    6  C   UNL     1     -38.773 -50.635  12.569  1.00  0.00     0.042 C 
HETATM    7  C   UNL     1     -37.900 -49.396  12.402  1.00  0.00     0.003 C 
HETATM    8  C   UNL     1     -37.680 -48.525  13.634  1.00  0.00     0.000 C 
HETATM    9  C   UNL     1     -38.706 -48.595  14.756  1.00  0.00     0.000 C 
HETATM   10  C   UNL     1     -40.150 -48.419  14.307  1.00  0.00     0.003 C 
HETATM   11  C   UNL     1     -40.827 -49.736  13.935  1.00  0.00     0.042 C 
BRANCH   5  12
HETATM   12  C   UNL     1     -40.896 -49.685  11.449  1.00  0.00     0.169 C 
HETATM   13  O   UNL     1     -41.820 -48.894  11.470  1.00  0.00    -0.648 OA
BRANCH  12  14
HETATM   14  O   UNL     1     -40.334 -50.070  10.269  1.00  0.00    -0.775 OA
HETATM   15  H   UNL     1     -40.436 -51.032  10.145  1.00  0.00     0.167 HD
ENDBRANCH  12  14
ENDBRANCH   5  12
ENDBRANCH   3   5
BRANCH   1  16
HETATM   16  C   UNL     1     -41.269 -54.184  13.329  1.00  0.00     0.146 C 
BRANCH  16  17
HETATM   17  C   UNL     1     -42.572 -54.385  14.019  1.00  0.00     0.006 A 
HETATM   18  C   UNL     1     -43.897 -54.056  13.602  1.00  0.00     0.038 A 
HETATM   19  C   UNL     1     -44.366 -53.376  12.369  1.00  0.00     0.071 C 
HETATM   20  N   UNL     1     -44.804 -54.466  14.497  1.00  0.00    -0.265 N 
HETATM   21  O   UNL     1     -44.099 -55.089  15.500  1.00  0.00    -0.242 OA
ATOM     22  HN  UNL     1     -45.815 -54.341  14.445  1.00  0.00     0.194 HD
HETATM   23  C   UNL     1     -42.774 -55.047  15.216  1.00  0.00     0.081 A 
HETATM   24  C   UNL     1     -41.883 -55.712  16.185  1.00  0.00     0.079 C 
ENDBRANCH  16  17
ENDBRANCH   1  16
TORSDOF 5
ENDMDL
MODEL 9
REMARK VINA RESULT:      -6.0      2.191      6.482
REMARK  5 active torsions:
REMARK  status: ('A' for Active; 'I' for Inactive)
REMARK    1  A    between atoms: C_8  and  C_9 
REMARK    2  A    between atoms: C_9  and  C_10 
REMARK       I    between atoms: C_10  and  N_12 
REMARK    3  A    between atoms: N_12  and  C_13 
REMARK    4  A    between atoms: C_13  and  C_20 
REMARK    5  A    between atoms: C_20  and  O_22 
ROOT
HETATM    1  C   UNL     1     -43.378 -50.145  13.268  1.00  0.00     0.223 C 
HETATM    2  O   UNL     1     -43.162 -49.918  14.455  1.00  0.00    -0.273 OA
HETATM    3  N   UNL     1     -44.176 -51.188  12.811  1.00  0.00    -0.342 N 
HETATM    4  H   UNL     1     -44.681 -50.954  11.958  1.00  0.00     0.163 HD
ENDROOT
BRANCH   3   5
HETATM    5  C   UNL     1     -44.942 -52.088  13.770  1.00  0.00     0.118 C 
HETATM    6  C   UNL     1     -46.039 -51.223  14.432  1.00  0.00     0.042 C 
HETATM    7  C   UNL     1     -47.098 -51.900  15.296  1.00  0.00     0.003 C 
HETATM    8  C   UNL     1     -46.676 -52.359  16.687  1.00  0.00     0.000 C 
HETATM    9  C   UNL     1     -45.199 -52.619  16.940  1.00  0.00     0.000 C 
HETATM   10  C   UNL     1     -44.532 -53.534  15.922  1.00  0.00     0.003 C 
HETATM   11  C   UNL     1     -43.944 -52.778  14.732  1.00  0.00     0.042 C 
BRANCH   5  12
HETATM   12  C   UNL     1     -45.552 -53.233  12.889  1.00  0.00     0.169 C 
HETATM   13  O   UNL     1     -45.197 -54.398  12.864  1.00  0.00    -0.648 OA
BRANCH  12  14
HETATM   14  O   UNL     1     -46.489 -52.772  12.015  1.00  0.00    -0.775 OA
HETATM   15  H   UNL     1     -46.907 -51.963  12.364  1.00  0.00     0.167 HD
ENDBRANCH  12  14
ENDBRANCH   5  12
ENDBRANCH   3   5
BRANCH   1  16
HETATM   16  C   UNL     1     -42.735 -49.298  12.183  1.00  0.00     0.146 C 
BRANCH  16  17
HETATM   17  C   UNL     1     -41.283 -49.552  11.986  1.00  0.00     0.006 A 
HETATM   18  C   UNL     1     -40.573 -50.783  11.841  1.00  0.00     0.038 A 
HETATM   19  C   UNL     1     -41.071 -52.180  11.885  1.00  0.00     0.071 C 
HETATM   20  N   UNL     1     -39.271 -50.569  11.618  1.00  0.00    -0.265 N 
HETATM   21  O   UNL     1     -39.106 -49.203  11.589  1.00  0.00    -0.242 OA
ATOM     22  HN  UNL     1     -38.546 -51.276  11.495  1.00  0.00     0.194 HD
HETATM   23  C   UNL     1     -40.300 -48.598  11.802  1.00  0.00     0.081 A 
HETATM   24  C   UNL     1     -40.294 -47.124  11.761  1.00  0.00     0.079 C 
ENDBRANCH  16  17
ENDBRANCH   1  16
TORSDOF 5
ENDMDL
