MODEL 1
REMARK VINA RESULT:      -6.6      0.000      0.000
REMARK  4 active torsions:
REMARK  status: ('A' for Active; 'I' for Inactive)
REMARK       I    between atoms: C_2  and  N_4 
REMARK    1  A    between atoms: N_7  and  C_8 
REMARK    2  A    between atoms: C_8  and  C_9 
REMARK    3  A    between atoms: C_9  and  N_10 
REMARK       I    between atoms: N_10  and  C_11 
REMARK       I    between atoms: C_11  and  N_13 
REMARK    4  A    between atoms: N_13  and  C_14 
ROOT
HETATM    1  N   UNL     1     -40.389 -50.010  10.811  1.00  0.00    -0.341 N 
HETATM    2  C   UNL     1     -41.022 -48.781  10.860  1.00  0.00     0.322 C 
HETATM    3  O   UNL     1     -40.934 -48.058  11.844  1.00  0.00    -0.247 OA
HETATM    4  N   UNL     1     -41.771 -48.558   9.739  1.00  0.00    -0.288 N 
HETATM    5  H   UNL     1     -40.063 -50.329   9.909  1.00  0.00     0.164 HD
HETATM    6  H   UNL     1     -41.991 -49.330   9.136  1.00  0.00     0.172 HD
ENDROOT
BRANCH   1   7
HETATM    7  C   UNL     1     -39.683 -50.489  11.987  1.00  0.00     0.154 C 
BRANCH   7   8
HETATM    8  C   UNL     1     -40.541 -51.425  12.862  1.00  0.00     0.292 C 
BRANCH   8   9
HETATM    9  N   UNL     1     -41.089 -52.587  12.135  1.00  0.00     0.093 N 
HETATM   10  C   UNL     1     -42.568 -52.551  12.030  1.00  0.00     0.292 C 
HETATM   11  C   UNL     1     -43.313 -52.739  13.364  1.00  0.00     0.156 C 
HETATM   12  N   UNL     1     -42.886 -53.976  14.023  1.00  0.00    -0.349 N 
HETATM   13  C   UNL     1     -43.728 -54.846  14.694  1.00  0.00     0.215 C 
HETATM   14  C   UNL     1     -41.435 -54.147  14.138  1.00  0.00     0.156 C 
HETATM   15  C   UNL     1     -45.205 -54.550  14.630  1.00  0.00     0.117 C 
HETATM   16  O   UNL     1     -43.319 -55.835  15.302  1.00  0.00    -0.274 OA
HETATM   17  C   UNL     1     -40.709 -53.857  12.804  1.00  0.00     0.292 C 
ENDBRANCH   8   9
ENDBRANCH   7   8
ENDBRANCH   1   7
BRANCH   4  18
HETATM   18  C   UNL     1     -42.561 -47.444   9.648  1.00  0.00     0.168 A 
HETATM   19  N   UNL     1     -42.620 -46.386  10.419  1.00  0.00    -0.279 N 
HETATM   20  N   UNL     1     -43.610 -45.509  10.021  1.00  0.00    -0.303 N 
ATOM     21  HN  UNL     1     -42.006 -46.228  11.219  1.00  0.00     0.189 HD
HETATM   22  C   UNL     1     -44.251 -45.952   8.962  1.00  0.00     0.160 A 
ATOM     23  HN  UNL     1     -43.819 -44.627  10.490  1.00  0.00     0.186 HD
HETATM   24  S   UNL     1     -43.660 -47.440   8.340  1.00  0.00    -0.046 SA
ENDBRANCH   4  18
TORSDOF 4
ENDMDL
MODEL 2
REMARK VINA RESULT:      -6.4      1.688      2.022
REMARK  4 active torsions:
REMARK  status: ('A' for Active; 'I' for Inactive)
REMARK       I    between atoms: C_2  and  N_4 
REMARK    1  A    between atoms: N_7  and  C_8 
REMARK    2  A    between atoms: C_8  and  C_9 
REMARK    3  A    between atoms: C_9  and  N_10 
REMARK       I    between atoms: N_10  and  C_11 
REMARK       I    between atoms: C_11  and  N_13 
REMARK    4  A    between atoms: N_13  and  C_14 
ROOT
HETATM    1  N   UNL     1     -40.745 -49.439  10.655  1.00  0.00    -0.341 N 
HETATM    2  C   UNL     1     -41.850 -48.618  10.786  1.00  0.00     0.322 C 
HETATM    3  O   UNL     1     -42.300 -48.325  11.886  1.00  0.00    -0.247 OA
HETATM    4  N   UNL     1     -42.366 -48.274   9.568  1.00  0.00    -0.288 N 
HETATM    5  H   UNL     1     -40.130 -49.269   9.872  1.00  0.00     0.164 HD
HETATM    6  H   UNL     1     -42.090 -48.796   8.755  1.00  0.00     0.172 HD
ENDROOT
BRANCH   1   7
HETATM    7  C   UNL     1     -40.165 -50.038  11.846  1.00  0.00     0.154 C 
BRANCH   7   8
HETATM    8  C   UNL     1     -40.650 -51.482  12.088  1.00  0.00     0.292 C 
BRANCH   8   9
HETATM    9  N   UNL     1     -41.021 -51.760  13.490  1.00  0.00     0.093 N 
HETATM   10  C   UNL     1     -41.302 -53.196  13.733  1.00  0.00     0.292 C 
HETATM   11  C   UNL     1     -42.573 -53.728  13.046  1.00  0.00     0.156 C 
HETATM   12  N   UNL     1     -43.737 -52.918  13.415  1.00  0.00    -0.349 N 
HETATM   13  C   UNL     1     -44.998 -53.423  13.684  1.00  0.00     0.215 C 
HETATM   14  C   UNL     1     -43.558 -51.471  13.265  1.00  0.00     0.156 C 
HETATM   15  C   UNL     1     -45.140 -54.924  13.714  1.00  0.00     0.117 C 
HETATM   16  O   UNL     1     -45.970 -52.703  13.914  1.00  0.00    -0.274 OA
HETATM   17  C   UNL     1     -42.227 -50.985  13.882  1.00  0.00     0.292 C 
ENDBRANCH   8   9
ENDBRANCH   7   8
ENDBRANCH   1   7
BRANCH   4  18
HETATM   18  C   UNL     1     -43.529 -47.556   9.489  1.00  0.00     0.168 A 
HETATM   19  N   UNL     1     -44.742 -47.870   9.872  1.00  0.00    -0.279 N 
HETATM   20  N   UNL     1     -45.658 -46.888   9.547  1.00  0.00    -0.303 N 
ATOM     21  HN  UNL     1     -44.982 -48.737  10.353  1.00  0.00     0.189 HD
HETATM   22  C   UNL     1     -45.085 -45.876   8.935  1.00  0.00     0.160 A 
ATOM     23  HN  UNL     1     -46.655 -46.941   9.757  1.00  0.00     0.186 HD
HETATM   24  S   UNL     1     -43.382 -46.019   8.757  1.00  0.00    -0.046 SA
ENDBRANCH   4  18
TORSDOF 4
ENDMDL
MODEL 3
REMARK VINA RESULT:      -6.2      1.734      2.147
REMARK  4 active torsions:
REMARK  status: ('A' for Active; 'I' for Inactive)
REMARK       I    between atoms: C_2  and  N_4 
REMARK    1  A    between atoms: N_7  and  C_8 
REMARK    2  A    between atoms: C_8  and  C_9 
REMARK    3  A    between atoms: C_9  and  N_10 
REMARK       I    between atoms: N_10  and  C_11 
REMARK       I    between atoms: C_11  and  N_13 
REMARK    4  A    between atoms: N_13  and  C_14 
ROOT
HETATM    1  N   UNL     1     -40.756 -51.111  11.263  1.00  0.00    -0.341 N 
HETATM    2  C   UNL     1     -40.826 -49.745  11.468  1.00  0.00     0.322 C 
HETATM    3  O   UNL     1     -40.582 -49.251  12.560  1.00  0.00    -0.247 OA
HETATM    4  N   UNL     1     -41.258 -49.092  10.348  1.00  0.00    -0.288 N 
HETATM    5  H   UNL     1     -40.472 -51.430  10.348  1.00  0.00     0.164 HD
HETATM    6  H   UNL     1     -41.693 -49.619   9.612  1.00  0.00     0.172 HD
ENDROOT
BRANCH   1   7
HETATM    7  C   UNL     1     -40.476 -51.981  12.393  1.00  0.00     0.154 C 
BRANCH   7   8
HETATM    8  C   UNL     1     -41.630 -52.956  12.700  1.00  0.00     0.292 C 
BRANCH   8   9
HETATM    9  N   UNL     1     -42.971 -52.346  12.597  1.00  0.00     0.093 N 
HETATM   10  C   UNL     1     -43.333 -51.553  13.797  1.00  0.00     0.292 C 
HETATM   11  C   UNL     1     -43.553 -52.383  15.075  1.00  0.00     0.156 C 
HETATM   12  N   UNL     1     -44.551 -53.430  14.845  1.00  0.00    -0.349 N 
HETATM   13  C   UNL     1     -45.527 -53.806  15.753  1.00  0.00     0.215 C 
HETATM   14  C   UNL     1     -44.325 -54.250  13.651  1.00  0.00     0.156 C 
HETATM   15  C   UNL     1     -45.634 -52.989  17.015  1.00  0.00     0.117 C 
HETATM   16  O   UNL     1     -46.298 -54.744  15.553  1.00  0.00    -0.274 OA
HETATM   17  C   UNL     1     -44.013 -53.388  12.406  1.00  0.00     0.292 C 
ENDBRANCH   8   9
ENDBRANCH   7   8
ENDBRANCH   1   7
BRANCH   4  18
HETATM   18  C   UNL     1     -41.499 -47.745  10.384  1.00  0.00     0.168 A 
HETATM   19  N   UNL     1     -40.663 -46.741  10.481  1.00  0.00    -0.279 N 
HETATM   20  N   UNL     1     -41.318 -45.527  10.556  1.00  0.00    -0.303 N 
ATOM     21  HN  UNL     1     -39.648 -46.844  10.499  1.00  0.00     0.189 HD
HETATM   22  C   UNL     1     -42.623 -45.678  10.509  1.00  0.00     0.160 A 
ATOM     23  HN  UNL     1     -40.847 -44.625  10.638  1.00  0.00     0.186 HD
HETATM   24  S   UNL     1     -43.148 -47.302  10.315  1.00  0.00    -0.046 SA
ENDBRANCH   4  18
TORSDOF 4
ENDMDL
MODEL 4
REMARK VINA RESULT:      -6.2      1.473      1.715
REMARK  4 active torsions:
REMARK  status: ('A' for Active; 'I' for Inactive)
REMARK       I    between atoms: C_2  and  N_4 
REMARK    1  A    between atoms: N_7  and  C_8 
REMARK    2  A    between atoms: C_8  and  C_9 
REMARK    3  A    between atoms: C_9  and  N_10 
REMARK       I    between atoms: N_10  and  C_11 
REMARK       I    between atoms: C_11  and  N_13 
REMARK    4  A    between atoms: N_13  and  C_14 
ROOT
HETATM    1  N   UNL     1     -40.539 -51.079  11.673  1.00  0.00    -0.341 N 
HETATM    2  C   UNL     1     -40.465 -49.724  11.410  1.00  0.00     0.322 C 
HETATM    3  O   UNL     1     -39.569 -49.032  11.876  1.00  0.00    -0.247 OA
HETATM    4  N   UNL     1     -41.525 -49.301  10.659  1.00  0.00    -0.288 N 
HETATM    5  H   UNL     1     -40.919 -51.673  10.950  1.00  0.00     0.164 HD
HETATM    6  H   UNL     1     -42.333 -49.892  10.576  1.00  0.00     0.172 HD
ENDROOT
BRANCH   1   7
HETATM    7  C   UNL     1     -39.586 -51.673  12.596  1.00  0.00     0.154 C 
BRANCH   7   8
HETATM    8  C   UNL     1     -40.214 -52.032  13.958  1.00  0.00     0.292 C 
BRANCH   8   9
HETATM    9  N   UNL     1     -40.333 -53.484  14.196  1.00  0.00     0.093 N 
HETATM   10  C   UNL     1     -41.181 -54.162  13.186  1.00  0.00     0.292 C 
HETATM   11  C   UNL     1     -42.674 -53.794  13.247  1.00  0.00     0.156 C 
HETATM   12  N   UNL     1     -43.209 -54.027  14.591  1.00  0.00    -0.349 N 
HETATM   13  C   UNL     1     -44.458 -54.558  14.863  1.00  0.00     0.215 C 
HETATM   14  C   UNL     1     -42.421 -53.445  15.681  1.00  0.00     0.156 C 
HETATM   15  C   UNL     1     -45.267 -55.038  13.684  1.00  0.00     0.117 C 
HETATM   16  O   UNL     1     -44.902 -54.667  16.006  1.00  0.00    -0.274 OA
HETATM   17  C   UNL     1     -40.914 -53.755  15.536  1.00  0.00     0.292 C 
ENDBRANCH   8   9
ENDBRANCH   7   8
ENDBRANCH   1   7
BRANCH   4  18
HETATM   18  C   UNL     1     -41.690 -47.969  10.387  1.00  0.00     0.168 A 
HETATM   19  N   UNL     1     -40.810 -46.999  10.355  1.00  0.00    -0.279 N 
HETATM   20  N   UNL     1     -41.397 -45.774  10.107  1.00  0.00    -0.303 N 
ATOM     21  HN  UNL     1     -39.808 -47.133  10.497  1.00  0.00     0.189 HD
HETATM   22  C   UNL     1     -42.699 -45.883   9.961  1.00  0.00     0.160 A 
ATOM     23  HN  UNL     1     -40.885 -44.894  10.045  1.00  0.00     0.186 HD
HETATM   24  S   UNL     1     -43.298 -47.490  10.060  1.00  0.00    -0.046 SA
ENDBRANCH   4  18
TORSDOF 4
ENDMDL
MODEL 5
REMARK VINA RESULT:      -6.1      2.354      3.364
REMARK  4 active torsions:
REMARK  status: ('A' for Active; 'I' for Inactive)
REMARK       I    between atoms: C_2  and  N_4 
REMARK    1  A    between atoms: N_7  and  C_8 
REMARK    2  A    between atoms: C_8  and  C_9 
REMARK    3  A    between atoms: C_9  and  N_10 
REMARK       I    between atoms: N_10  and  C_11 
REMARK       I    between atoms: C_11  and  N_13 
REMARK    4  A    between atoms: N_13  and  C_14 
ROOT
HETATM    1  N   UNL     1     -40.589 -46.917  10.521  1.00  0.00    -0.341 N 
HETATM    2  C   UNL     1     -41.879 -46.424  10.470  1.00  0.00     0.322 C 
HETATM    3  O   UNL     1     -42.378 -45.843  11.425  1.00  0.00    -0.247 OA
HETATM    4  N   UNL     1     -42.490 -46.737   9.288  1.00  0.00    -0.288 N 
HETATM    5  H   UNL     1     -40.059 -46.921   9.660  1.00  0.00     0.164 HD
HETATM    6  H   UNL     1     -42.089 -47.450   8.705  1.00  0.00     0.172 HD
ENDROOT
BRANCH   1   7
HETATM    7  C   UNL     1     -39.845 -46.823  11.766  1.00  0.00     0.154 C 
BRANCH   7   8
HETATM    8  C   UNL     1     -39.616 -48.194  12.432  1.00  0.00     0.292 C 
BRANCH   8   9
HETATM    9  N   UNL     1     -39.501 -49.312  11.475  1.00  0.00     0.093 N 
HETATM   10  C   UNL     1     -40.709 -50.173  11.454  1.00  0.00     0.292 C 
HETATM   11  C   UNL     1     -40.939 -50.990  12.738  1.00  0.00     0.156 C 
HETATM   12  N   UNL     1     -39.756 -51.791  13.060  1.00  0.00    -0.349 N 
HETATM   13  C   UNL     1     -39.787 -53.089  13.543  1.00  0.00     0.215 C 
HETATM   14  C   UNL     1     -38.489 -51.054  13.060  1.00  0.00     0.156 C 
HETATM   15  C   UNL     1     -41.137 -53.754  13.624  1.00  0.00     0.117 C 
HETATM   16  O   UNL     1     -38.772 -53.701  13.875  1.00  0.00    -0.274 OA
HETATM   17  C   UNL     1     -38.333 -50.171  11.801  1.00  0.00     0.292 C 
ENDBRANCH   8   9
ENDBRANCH   7   8
ENDBRANCH   1   7
BRANCH   4  18
HETATM   18  C   UNL     1     -43.810 -46.433   9.091  1.00  0.00     0.168 A 
HETATM   19  N   UNL     1     -44.406 -45.268   9.022  1.00  0.00    -0.279 N 
HETATM   20  N   UNL     1     -45.775 -45.393   8.883  1.00  0.00    -0.303 N 
ATOM     21  HN  UNL     1     -43.916 -44.373   9.066  1.00  0.00     0.189 HD
HETATM   22  C   UNL     1     -46.144 -46.654   8.852  1.00  0.00     0.160 A 
ATOM     23  HN  UNL     1     -46.419 -44.605   8.813  1.00  0.00     0.186 HD
HETATM   24  S   UNL     1     -44.849 -47.780   8.935  1.00  0.00    -0.046 SA
ENDBRANCH   4  18
TORSDOF 4
ENDMDL
MODEL 6
REMARK VINA RESULT:      -6.0      2.732      2.884
REMARK  4 active torsions:
REMARK  status: ('A' for Active; 'I' for Inactive)
REMARK       I    between atoms: C_2  and  N_4 
REMARK    1  A    between atoms: N_7  and  C_8 
REMARK    2  A    between atoms: C_8  and  C_9 
REMARK    3  A    between atoms: C_9  and  N_10 
REMARK       I    between atoms: N_10  and  C_11 
REMARK       I    between atoms: C_11  and  N_13 
REMARK    4  A    between atoms: N_13  and  C_14 
ROOT
HETATM    1  N   UNL     1     -39.415 -49.836  13.775  1.00  0.00    -0.341 N 
HETATM    2  C   UNL     1     -39.546 -49.060  12.639  1.00  0.00     0.322 C 
HETATM    3  O   UNL     1     -39.370 -49.528  11.522  1.00  0.00    -0.247 OA
HETATM    4  N   UNL     1     -39.812 -47.756  12.951  1.00  0.00    -0.288 N 
HETATM    5  H   UNL     1     -40.008 -49.613  14.562  1.00  0.00     0.164 HD
HETATM    6  H   UNL     1     -39.656 -47.436  13.890  1.00  0.00     0.172 HD
ENDROOT
BRANCH   1   7
HETATM    7  C   UNL     1     -38.968 -51.213  13.642  1.00  0.00     0.154 C 
BRANCH   7   8
HETATM    8  C   UNL     1     -40.102 -52.236  13.852  1.00  0.00     0.292 C 
BRANCH   8   9
HETATM    9  N   UNL     1     -40.615 -52.824  12.599  1.00  0.00     0.093 N 
HETATM   10  C   UNL     1     -41.681 -52.004  11.976  1.00  0.00     0.292 C 
HETATM   11  C   UNL     1     -43.002 -51.955  12.767  1.00  0.00     0.156 C 
HETATM   12  N   UNL     1     -43.497 -53.308  13.029  1.00  0.00    -0.349 N 
HETATM   13  C   UNL     1     -44.826 -53.690  12.966  1.00  0.00     0.215 C 
HETATM   14  C   UNL     1     -42.510 -54.230  13.600  1.00  0.00     0.156 C 
HETATM   15  C   UNL     1     -45.809 -52.657  12.475  1.00  0.00     0.117 C 
HETATM   16  O   UNL     1     -45.211 -54.819  13.269  1.00  0.00    -0.274 OA
HETATM   17  C   UNL     1     -41.165 -54.183  12.839  1.00  0.00     0.292 C 
ENDBRANCH   8   9
ENDBRANCH   7   8
ENDBRANCH   1   7
BRANCH   4  18
HETATM   18  C   UNL     1     -39.868 -46.807  11.966  1.00  0.00     0.168 A 
HETATM   19  N   UNL     1     -40.015 -46.945  10.671  1.00  0.00    -0.279 N 
HETATM   20  N   UNL     1     -39.948 -45.733  10.010  1.00  0.00    -0.303 N 
ATOM     21  HN  UNL     1     -40.163 -47.840  10.205  1.00  0.00     0.189 HD
HETATM   22  C   UNL     1     -39.754 -44.737  10.847  1.00  0.00     0.160 A 
ATOM     23  HN  UNL     1     -40.038 -45.624   9.000  1.00  0.00     0.186 HD
HETATM   24  S   UNL     1     -39.693 -45.194  12.501  1.00  0.00    -0.046 SA
ENDBRANCH   4  18
TORSDOF 4
ENDMDL
MODEL 7
REMARK VINA RESULT:      -5.9      3.890      4.907
REMARK  4 active torsions:
REMARK  status: ('A' for Active; 'I' for Inactive)
REMARK       I    between atoms: C_2  and  N_4 
REMARK    1  A    between atoms: N_7  and  C_8 
REMARK    2  A    between atoms: C_8  and  C_9 
REMARK    3  A    between atoms: C_9  and  N_10 
REMARK       I    between atoms: N_10  and  C_11 
REMARK       I    between atoms: C_11  and  N_13 
REMARK    4  A    between atoms: N_13  and  C_14 
ROOT
HETATM    1  N   UNL     1     -41.298 -48.799  10.293  1.00  0.00    -0.341 N 
HETATM    2  C   UNL     1     -42.257 -47.808  10.201  1.00  0.00     0.322 C 
HETATM    3  O   UNL     1     -42.253 -46.845  10.956  1.00  0.00    -0.247 OA
HETATM    4  N   UNL     1     -43.188 -48.099   9.244  1.00  0.00    -0.288 N 
HETATM    5  H   UNL     1     -41.020 -49.259   9.438  1.00  0.00     0.164 HD
HETATM    6  H   UNL     1     -43.248 -49.037   8.889  1.00  0.00     0.172 HD
ENDROOT
BRANCH   1   7
HETATM    7  C   UNL     1     -40.323 -48.740  11.369  1.00  0.00     0.154 C 
BRANCH   7   8
HETATM    8  C   UNL     1     -40.294 -50.022  12.225  1.00  0.00     0.292 C 
BRANCH   8   9
HETATM    9  N   UNL     1     -38.980 -50.695  12.251  1.00  0.00     0.093 N 
HETATM   10  C   UNL     1     -38.812 -51.578  13.430  1.00  0.00     0.292 C 
HETATM   11  C   UNL     1     -38.722 -50.840  14.779  1.00  0.00     0.156 C 
HETATM   12  N   UNL     1     -37.657 -49.834  14.747  1.00  0.00    -0.349 N 
HETATM   13  C   UNL     1     -36.791 -49.567  15.794  1.00  0.00     0.215 C 
HETATM   14  C   UNL     1     -37.690 -48.933  13.592  1.00  0.00     0.156 C 
HETATM   15  C   UNL     1     -36.885 -50.464  17.002  1.00  0.00     0.117 C 
HETATM   16  O   UNL     1     -35.960 -48.660  15.756  1.00  0.00    -0.274 OA
HETATM   17  C   UNL     1     -37.877 -49.700  12.263  1.00  0.00     0.292 C 
ENDBRANCH   8   9
ENDBRANCH   7   8
ENDBRANCH   1   7
BRANCH   4  18
HETATM   18  C   UNL     1     -44.282 -47.293   9.077  1.00  0.00     0.168 A 
HETATM   19  N   UNL     1     -44.362 -45.988   8.987  1.00  0.00    -0.279 N 
HETATM   20  N   UNL     1     -45.670 -45.554   8.894  1.00  0.00    -0.303 N 
ATOM     21  HN  UNL     1     -43.553 -45.365   8.987  1.00  0.00     0.189 HD
HETATM   22  C   UNL     1     -46.515 -46.561   8.915  1.00  0.00     0.160 A 
ATOM     23  HN  UNL     1     -45.946 -44.575   8.817  1.00  0.00     0.186 HD
HETATM   24  S   UNL     1     -45.780 -48.111   8.995  1.00  0.00    -0.046 SA
ENDBRANCH   4  18
TORSDOF 4
ENDMDL
MODEL 8
REMARK VINA RESULT:      -5.8      3.412      7.518
REMARK  4 active torsions:
REMARK  status: ('A' for Active; 'I' for Inactive)
REMARK       I    between atoms: C_2  and  N_4 
REMARK    1  A    between atoms: N_7  and  C_8 
REMARK    2  A    between atoms: C_8  and  C_9 
REMARK    3  A    between atoms: C_9  and  N_10 
REMARK       I    between atoms: N_10  and  C_11 
REMARK       I    between atoms: C_11  and  N_13 
REMARK    4  A    between atoms: N_13  and  C_14 
ROOT
HETATM    1  N   UNL     1     -41.901 -52.204  11.680  1.00  0.00    -0.341 N 
HETATM    2  C   UNL     1     -42.971 -52.306  12.549  1.00  0.00     0.322 C 
HETATM    3  O   UNL     1     -43.013 -51.660  13.587  1.00  0.00    -0.247 OA
HETATM    4  N   UNL     1     -43.875 -53.238  12.123  1.00  0.00    -0.288 N 
HETATM    5  H   UNL     1     -42.090 -52.315  10.694  1.00  0.00     0.164 HD
HETATM    6  H   UNL     1     -43.601 -53.898  11.417  1.00  0.00     0.172 HD
ENDROOT
BRANCH   1   7
HETATM    7  C   UNL     1     -40.762 -51.382  12.056  1.00  0.00     0.154 C 
BRANCH   7   8
HETATM    8  C   UNL     1     -40.765 -50.002  11.369  1.00  0.00     0.292 C 
BRANCH   8   9
HETATM    9  N   UNL     1     -41.646 -49.012  12.020  1.00  0.00     0.093 N 
HETATM   10  C   UNL     1     -42.016 -47.895  11.118  1.00  0.00     0.292 C 
HETATM   11  C   UNL     1     -40.852 -46.958  10.743  1.00  0.00     0.156 C 
HETATM   12  N   UNL     1     -40.199 -46.438  11.947  1.00  0.00    -0.349 N 
HETATM   13  C   UNL     1     -39.744 -45.140  12.101  1.00  0.00     0.215 C 
HETATM   14  C   UNL     1     -39.833 -47.452  12.940  1.00  0.00     0.156 C 
HETATM   15  C   UNL     1     -40.058 -44.171  10.990  1.00  0.00     0.117 C 
HETATM   16  O   UNL     1     -39.131 -44.762  13.099  1.00  0.00    -0.274 OA
HETATM   17  C   UNL     1     -40.994 -48.433  13.222  1.00  0.00     0.292 C 
ENDBRANCH   8   9
ENDBRANCH   7   8
ENDBRANCH   1   7
BRANCH   4  18
HETATM   18  C   UNL     1     -44.950 -53.565  12.905  1.00  0.00     0.168 A 
HETATM   19  N   UNL     1     -46.126 -52.995  13.002  1.00  0.00    -0.279 N 
HETATM   20  N   UNL     1     -46.914 -53.593  13.967  1.00  0.00    -0.303 N 
ATOM     21  HN  UNL     1     -46.426 -52.204  12.431  1.00  0.00     0.189 HD
HETATM   22  C   UNL     1     -46.288 -54.590  14.551  1.00  0.00     0.160 A 
ATOM     23  HN  UNL     1     -47.862 -53.297  14.198  1.00  0.00     0.186 HD
HETATM   24  S   UNL     1     -44.718 -54.910  13.932  1.00  0.00    -0.046 SA
ENDBRANCH   4  18
TORSDOF 4
ENDMDL
MODEL 9
REMARK VINA RESULT:      -5.7      4.112      7.058
REMARK  4 active torsions:
REMARK  status: ('A' for Active; 'I' for Inactive)
REMARK       I    between atoms: C_2  and  N_4 
REMARK    1  A    between atoms: N_7  and  C_8 
REMARK    2  A    between atoms: C_8  and  C_9 
REMARK    3  A    between atoms: C_9  and  N_10 
REMARK       I    between atoms: N_10  and  C_11 
REMARK       I    between atoms: C_11  and  N_13 
REMARK    4  A    between atoms: N_13  and  C_14 
ROOT
HETATM    1  N   UNL     1     -42.306 -52.280  11.789  1.00  0.00    -0.341 N 
HETATM    2  C   UNL     1     -43.125 -52.747  12.799  1.00  0.00     0.322 C 
HETATM    3  O   UNL     1     -42.662 -53.255  13.812  1.00  0.00    -0.247 OA
HETATM    4  N   UNL     1     -44.446 -52.626  12.470  1.00  0.00    -0.288 N 
HETATM    5  H   UNL     1     -42.627 -51.480  11.262  1.00  0.00     0.164 HD
HETATM    6  H   UNL     1     -44.698 -52.461  11.512  1.00  0.00     0.172 HD
ENDROOT
BRANCH   1   7
HETATM    7  C   UNL     1     -40.870 -52.481  11.893  1.00  0.00     0.154 C 
BRANCH   7   8
HETATM    8  C   UNL     1     -40.125 -51.231  12.402  1.00  0.00     0.292 C 
BRANCH   8   9
HETATM    9  N   UNL     1     -38.769 -51.512  12.916  1.00  0.00     0.093 N 
HETATM   10  C   UNL     1     -38.679 -51.389  14.391  1.00  0.00     0.292 C 
HETATM   11  C   UNL     1     -38.838 -49.954  14.928  1.00  0.00     0.156 C 
HETATM   12  N   UNL     1     -37.876 -49.054  14.287  1.00  0.00    -0.349 N 
HETATM   13  C   UNL     1     -37.185 -48.044  14.936  1.00  0.00     0.215 C 
HETATM   14  C   UNL     1     -37.837 -49.127  12.824  1.00  0.00     0.156 C 
HETATM   15  C   UNL     1     -37.355 -47.953  16.432  1.00  0.00     0.117 C 
HETATM   16  O   UNL     1     -36.443 -47.258  14.347  1.00  0.00    -0.274 OA
HETATM   17  C   UNL     1     -37.774 -50.586  12.318  1.00  0.00     0.292 C 
ENDBRANCH   8   9
ENDBRANCH   7   8
ENDBRANCH   1   7
BRANCH   4  18
HETATM   18  C   UNL     1     -45.413 -53.136  13.294  1.00  0.00     0.168 A 
HETATM   19  N   UNL     1     -45.735 -54.380  13.548  1.00  0.00    -0.279 N 
HETATM   20  N   UNL     1     -46.825 -54.472  14.392  1.00  0.00    -0.303 N 
ATOM     21  HN  UNL     1     -45.239 -55.187  13.168  1.00  0.00     0.189 HD
HETATM   22  C   UNL     1     -47.271 -53.284  14.736  1.00  0.00     0.160 A 
ATOM     23  HN  UNL     1     -47.233 -55.351  14.709  1.00  0.00     0.186 HD
HETATM   24  S   UNL     1     -46.365 -51.969  14.102  1.00  0.00    -0.046 SA
ENDBRANCH   4  18
TORSDOF 4
ENDMDL
