MODEL 1
REMARK VINA RESULT:      -6.6      0.000      0.000
REMARK  5 active torsions:
REMARK  status: ('A' for Active; 'I' for Inactive)
REMARK    1  A    between atoms: C_5  and  C_6 
REMARK    2  A    between atoms: C_6  and  C_7 
REMARK    3  A    between atoms: C_7  and  N_8 
REMARK       I    between atoms: N_8  and  C_9 
REMARK       I    between atoms: C_9  and  N_11 
REMARK    4  A    between atoms: C_15  and  C_16 
REMARK    5  A    between atoms: C_16  and  C_17 
REMARK       I    between atoms: C_17  and  N_19 
ROOT
HETATM    1  N   UNL     1     -43.685 -51.910  12.446  1.00  0.00    -0.343 N 
HETATM    2  C   UNL     1     -42.331 -51.789  12.637  1.00  0.00     0.318 C 
HETATM    3  O   UNL     1     -41.638 -52.759  12.933  1.00  0.00    -0.247 OA
HETATM    4  N   UNL     1     -41.808 -50.515  12.476  1.00  0.00    -0.334 N 
HETATM    5  C   UNL     1     -42.569 -49.267  12.377  1.00  0.00     0.127 C 
HETATM    6  C   UNL     1     -42.002 -48.381  11.268  1.00  0.00     0.020 C 
HETATM    7  C   UNL     1     -40.509 -48.126  11.474  1.00  0.00     0.008 C 
HETATM    8  C   UNL     1     -39.743 -49.451  11.617  1.00  0.00     0.012 C 
HETATM    9  C   UNL     1     -40.374 -50.325  12.712  1.00  0.00     0.132 C 
HETATM   10  H   UNL     1     -44.097 -51.258  11.801  1.00  0.00     0.164 HD
ENDROOT
BRANCH   1  11
HETATM   11  C   UNL     1     -44.330 -53.216  12.527  1.00  0.00     0.129 C 
BRANCH  11  12
HETATM   12  C   UNL     1     -45.828 -53.104  12.826  1.00  0.00     0.060 C 
BRANCH  12  13
HETATM   13  C   UNL     1     -46.131 -52.739  14.254  1.00  0.00    -0.041 A 
HETATM   14  C   UNL     1     -46.778 -51.545  14.574  1.00  0.00     0.010 A 
HETATM   15  C   UNL     1     -47.116 -51.269  15.901  1.00  0.00     0.025 A 
HETATM   16  C   UNL     1     -46.782 -52.193  16.884  1.00  0.00     0.005 A 
HETATM   17  C   UNL     1     -47.194 -51.979  18.311  1.00  0.00     0.068 C 
HETATM   18  N   UNL     1     -46.120 -53.340  16.606  1.00  0.00    -0.369 N 
HETATM   19  C   UNL     1     -45.811 -53.586  15.310  1.00  0.00     0.095 A 
ATOM     20  HN  UNL     1     -45.863 -53.996  17.344  1.00  0.00     0.165 HD
ENDBRANCH  12  13
ENDBRANCH  11  12
ENDBRANCH   1  11
BRANCH   8  21
HETATM   21  C   UNL     1     -38.235 -49.238  11.819  1.00  0.00     0.108 C 
BRANCH  21  22
HETATM   22  C   UNL     1     -37.371 -50.333  11.236  1.00  0.00     0.215 C 
HETATM   23  O   UNL     1     -37.032 -51.330  11.861  1.00  0.00    -0.274 OA
HETATM   24  N   UNL     1     -37.018 -50.171   9.930  1.00  0.00    -0.370 N 
HETATM   25  H   UNL     1     -37.150 -49.301   9.427  1.00  0.00     0.159 HD
HETATM   26  H   UNL     1     -36.408 -50.870   9.527  1.00  0.00     0.159 HD
ENDBRANCH  21  22
ENDBRANCH   8  21
TORSDOF 5
ENDMDL
MODEL 2
REMARK VINA RESULT:      -6.3      2.903      3.501
REMARK  5 active torsions:
REMARK  status: ('A' for Active; 'I' for Inactive)
REMARK    1  A    between atoms: C_5  and  C_6 
REMARK    2  A    between atoms: C_6  and  C_7 
REMARK    3  A    between atoms: C_7  and  N_8 
REMARK       I    between atoms: N_8  and  C_9 
REMARK       I    between atoms: C_9  and  N_11 
REMARK    4  A    between atoms: C_15  and  C_16 
REMARK    5  A    between atoms: C_16  and  C_17 
REMARK       I    between atoms: C_17  and  N_19 
ROOT
HETATM    1  N   UNL     1     -42.585 -50.808  12.034  1.00  0.00    -0.343 N 
HETATM    2  C   UNL     1     -41.671 -49.835  12.357  1.00  0.00     0.318 C 
HETATM    3  O   UNL     1     -40.642 -50.105  12.971  1.00  0.00    -0.247 OA
HETATM    4  N   UNL     1     -41.986 -48.548  11.949  1.00  0.00    -0.334 N 
HETATM    5  C   UNL     1     -43.282 -48.087  11.445  1.00  0.00     0.127 C 
HETATM    6  C   UNL     1     -43.092 -47.180  10.230  1.00  0.00     0.020 C 
HETATM    7  C   UNL     1     -42.156 -46.015  10.552  1.00  0.00     0.008 C 
HETATM    8  C   UNL     1     -40.821 -46.527  11.118  1.00  0.00     0.012 C 
HETATM    9  C   UNL     1     -41.063 -47.467  12.308  1.00  0.00     0.132 C 
HETATM   10  H   UNL     1     -43.122 -50.645  11.200  1.00  0.00     0.164 HD
ENDROOT
BRANCH   1  11
HETATM   11  C   UNL     1     -42.324 -52.206  12.357  1.00  0.00     0.129 C 
BRANCH  11  12
HETATM   12  C   UNL     1     -43.611 -53.033  12.432  1.00  0.00     0.060 C 
BRANCH  12  13
HETATM   13  C   UNL     1     -44.609 -52.502  13.426  1.00  0.00    -0.041 A 
HETATM   14  C   UNL     1     -45.791 -51.891  13.007  1.00  0.00     0.010 A 
HETATM   15  C   UNL     1     -46.735 -51.480  13.950  1.00  0.00     0.025 A 
HETATM   16  C   UNL     1     -46.466 -51.676  15.299  1.00  0.00     0.005 A 
HETATM   17  C   UNL     1     -47.482 -51.324  16.345  1.00  0.00     0.068 C 
HETATM   18  N   UNL     1     -45.310 -52.232  15.734  1.00  0.00    -0.369 N 
HETATM   19  C   UNL     1     -44.416 -52.628  14.796  1.00  0.00     0.095 A 
ATOM     20  HN  UNL     1     -45.120 -52.347  16.729  1.00  0.00     0.165 HD
ENDBRANCH  12  13
ENDBRANCH  11  12
ENDBRANCH   1  11
BRANCH   8  21
HETATM   21  C   UNL     1     -39.847 -45.386  11.447  1.00  0.00     0.108 C 
BRANCH  21  22
HETATM   22  C   UNL     1     -39.830 -44.272  10.425  1.00  0.00     0.215 C 
HETATM   23  O   UNL     1     -39.407 -44.409   9.284  1.00  0.00    -0.274 OA
HETATM   24  N   UNL     1     -40.366 -43.088  10.835  1.00  0.00    -0.370 N 
HETATM   25  H   UNL     1     -40.588 -42.890  11.804  1.00  0.00     0.159 HD
HETATM   26  H   UNL     1     -40.331 -42.316  10.184  1.00  0.00     0.159 HD
ENDBRANCH  21  22
ENDBRANCH   8  21
TORSDOF 5
ENDMDL
MODEL 3
REMARK VINA RESULT:      -6.2      1.861      2.499
REMARK  5 active torsions:
REMARK  status: ('A' for Active; 'I' for Inactive)
REMARK    1  A    between atoms: C_5  and  C_6 
REMARK    2  A    between atoms: C_6  and  C_7 
REMARK    3  A    between atoms: C_7  and  N_8 
REMARK       I    between atoms: N_8  and  C_9 
REMARK       I    between atoms: C_9  and  N_11 
REMARK    4  A    between atoms: C_15  and  C_16 
REMARK    5  A    between atoms: C_16  and  C_17 
REMARK       I    between atoms: C_17  and  N_19 
ROOT
HETATM    1  N   UNL     1     -43.554 -52.374  12.401  1.00  0.00    -0.343 N 
HETATM    2  C   UNL     1     -42.206 -52.170  12.558  1.00  0.00     0.318 C 
HETATM    3  O   UNL     1     -41.436 -53.107  12.752  1.00  0.00    -0.247 OA
HETATM    4  N   UNL     1     -41.780 -50.852  12.486  1.00  0.00    -0.334 N 
HETATM    5  C   UNL     1     -42.630 -49.659  12.513  1.00  0.00     0.127 C 
HETATM    6  C   UNL     1     -42.169 -48.649  11.464  1.00  0.00     0.020 C 
HETATM    7  C   UNL     1     -40.691 -48.302  11.643  1.00  0.00     0.008 C 
HETATM    8  C   UNL     1     -39.828 -49.575  11.653  1.00  0.00     0.012 C 
HETATM    9  C   UNL     1     -40.355 -50.577  12.691  1.00  0.00     0.132 C 
HETATM   10  H   UNL     1     -44.035 -51.704  11.824  1.00  0.00     0.164 HD
ENDROOT
BRANCH   1  11
HETATM   11  C   UNL     1     -44.103 -53.726  12.394  1.00  0.00     0.129 C 
BRANCH  11  12
HETATM   12  C   UNL     1     -45.045 -53.974  13.575  1.00  0.00     0.060 C 
BRANCH  12  13
HETATM   13  C   UNL     1     -44.330 -54.348  14.846  1.00  0.00    -0.041 A 
HETATM   14  C   UNL     1     -43.217 -55.190  14.829  1.00  0.00     0.010 A 
HETATM   15  C   UNL     1     -42.527 -55.456  16.013  1.00  0.00     0.025 A 
HETATM   16  C   UNL     1     -42.978 -54.883  17.197  1.00  0.00     0.005 A 
HETATM   17  C   UNL     1     -42.224 -55.075  18.480  1.00  0.00     0.068 C 
HETATM   18  N   UNL     1     -44.077 -54.094  17.247  1.00  0.00    -0.369 N 
HETATM   19  C   UNL     1     -44.723 -53.846  16.082  1.00  0.00     0.095 A 
ATOM     20  HN  UNL     1     -44.406 -53.700  18.129  1.00  0.00     0.165 HD
ENDBRANCH  12  13
ENDBRANCH  11  12
ENDBRANCH   1  11
BRANCH   8  21
HETATM   21  C   UNL     1     -38.333 -49.269  11.825  1.00  0.00     0.108 C 
BRANCH  21  22
HETATM   22  C   UNL     1     -37.415 -50.326  11.255  1.00  0.00     0.215 C 
HETATM   23  O   UNL     1     -37.037 -51.305  11.887  1.00  0.00    -0.274 OA
HETATM   24  N   UNL     1     -37.057 -50.154   9.951  1.00  0.00    -0.370 N 
HETATM   25  H   UNL     1     -37.223 -49.293   9.443  1.00  0.00     0.159 HD
HETATM   26  H   UNL     1     -36.411 -50.826   9.558  1.00  0.00     0.159 HD
ENDBRANCH  21  22
ENDBRANCH   8  21
TORSDOF 5
ENDMDL
MODEL 4
REMARK VINA RESULT:      -6.2      3.045      4.738
REMARK  5 active torsions:
REMARK  status: ('A' for Active; 'I' for Inactive)
REMARK    1  A    between atoms: C_5  and  C_6 
REMARK    2  A    between atoms: C_6  and  C_7 
REMARK    3  A    between atoms: C_7  and  N_8 
REMARK       I    between atoms: N_8  and  C_9 
REMARK       I    between atoms: C_9  and  N_11 
REMARK    4  A    between atoms: C_15  and  C_16 
REMARK    5  A    between atoms: C_16  and  C_17 
REMARK       I    between atoms: C_17  and  N_19 
ROOT
HETATM    1  N   UNL     1     -41.145 -50.729  13.636  1.00  0.00    -0.343 N 
HETATM    2  C   UNL     1     -41.279 -50.340  12.326  1.00  0.00     0.318 C 
HETATM    3  O   UNL     1     -41.095 -51.129  11.403  1.00  0.00    -0.247 OA
HETATM    4  N   UNL     1     -41.627 -49.013  12.121  1.00  0.00    -0.334 N 
HETATM    5  C   UNL     1     -41.619 -47.945  13.124  1.00  0.00     0.127 C 
HETATM    6  C   UNL     1     -42.876 -47.086  13.001  1.00  0.00     0.020 C 
HETATM    7  C   UNL     1     -43.034 -46.538  11.583  1.00  0.00     0.008 C 
HETATM    8  C   UNL     1     -42.996 -47.676  10.549  1.00  0.00     0.012 C 
HETATM    9  C   UNL     1     -41.738 -48.537  10.739  1.00  0.00     0.132 C 
HETATM   10  H   UNL     1     -41.714 -50.234  14.300  1.00  0.00     0.164 HD
ENDROOT
BRANCH   1  11
HETATM   11  C   UNL     1     -40.845 -52.118  13.968  1.00  0.00     0.129 C 
BRANCH  11  12
HETATM   12  C   UNL     1     -42.010 -52.805  14.688  1.00  0.00     0.060 C 
BRANCH  12  13
HETATM   13  C   UNL     1     -43.349 -52.544  14.050  1.00  0.00    -0.041 A 
HETATM   14  C   UNL     1     -44.274 -51.681  14.639  1.00  0.00     0.010 A 
HETATM   15  C   UNL     1     -45.475 -51.398  13.986  1.00  0.00     0.025 A 
HETATM   16  C   UNL     1     -45.731 -52.000  12.760  1.00  0.00     0.005 A 
HETATM   17  C   UNL     1     -46.970 -51.666  11.983  1.00  0.00     0.068 C 
HETATM   18  N   UNL     1     -44.867 -52.871  12.185  1.00  0.00    -0.369 N 
HETATM   19  C   UNL     1     -43.706 -53.122  12.837  1.00  0.00     0.095 A 
ATOM     20  HN  UNL     1     -45.082 -53.321  11.295  1.00  0.00     0.165 HD
ENDBRANCH  12  13
ENDBRANCH  11  12
ENDBRANCH   1  11
BRANCH   8  21
HETATM   21  C   UNL     1     -43.158 -47.166   9.110  1.00  0.00     0.108 C 
BRANCH  21  22
HETATM   22  C   UNL     1     -44.096 -45.988   8.972  1.00  0.00     0.215 C 
HETATM   23  O   UNL     1     -43.714 -44.831   8.848  1.00  0.00    -0.274 OA
HETATM   24  N   UNL     1     -45.424 -46.293   8.945  1.00  0.00    -0.370 N 
HETATM   25  H   UNL     1     -45.785 -47.208   9.190  1.00  0.00     0.159 HD
HETATM   26  H   UNL     1     -46.074 -45.520   8.893  1.00  0.00     0.159 HD
ENDBRANCH  21  22
ENDBRANCH   8  21
TORSDOF 5
ENDMDL
MODEL 5
REMARK VINA RESULT:      -6.1      3.066      7.972
REMARK  5 active torsions:
REMARK  status: ('A' for Active; 'I' for Inactive)
REMARK    1  A    between atoms: C_5  and  C_6 
REMARK    2  A    between atoms: C_6  and  C_7 
REMARK    3  A    between atoms: C_7  and  N_8 
REMARK       I    between atoms: N_8  and  C_9 
REMARK       I    between atoms: C_9  and  N_11 
REMARK    4  A    between atoms: C_15  and  C_16 
REMARK    5  A    between atoms: C_16  and  C_17 
REMARK       I    between atoms: C_17  and  N_19 
ROOT
HETATM    1  N   UNL     1     -40.985 -49.989  11.582  1.00  0.00    -0.343 N 
HETATM    2  C   UNL     1     -42.000 -50.383  12.418  1.00  0.00     0.318 C 
HETATM    3  O   UNL     1     -42.990 -49.679  12.597  1.00  0.00    -0.247 OA
HETATM    4  N   UNL     1     -41.831 -51.612  13.039  1.00  0.00    -0.334 N 
HETATM    5  C   UNL     1     -40.596 -52.398  13.093  1.00  0.00     0.127 C 
HETATM    6  C   UNL     1     -40.890 -53.875  12.833  1.00  0.00     0.020 C 
HETATM    7  C   UNL     1     -41.948 -54.405  13.799  1.00  0.00     0.008 C 
HETATM    8  C   UNL     1     -43.216 -53.536  13.752  1.00  0.00     0.012 C 
HETATM    9  C   UNL     1     -42.866 -52.057  13.975  1.00  0.00     0.132 C 
HETATM   10  H   UNL     1     -40.472 -50.730  11.135  1.00  0.00     0.164 HD
ENDROOT
BRANCH   1  11
HETATM   11  C   UNL     1     -41.088 -48.744  10.827  1.00  0.00     0.129 C 
BRANCH  11  12
HETATM   12  C   UNL     1     -40.214 -47.635  11.419  1.00  0.00     0.060 C 
BRANCH  12  13
HETATM   13  C   UNL     1     -40.874 -46.282  11.415  1.00  0.00    -0.041 A 
HETATM   14  C   UNL     1     -40.144 -45.121  11.159  1.00  0.00     0.010 A 
HETATM   15  C   UNL     1     -40.797 -43.890  11.084  1.00  0.00     0.025 A 
HETATM   16  C   UNL     1     -42.171 -43.845  11.285  1.00  0.00     0.005 A 
HETATM   17  C   UNL     1     -42.929 -42.559  11.136  1.00  0.00     0.068 C 
HETATM   18  N   UNL     1     -42.898 -44.951  11.573  1.00  0.00    -0.369 N 
HETATM   19  C   UNL     1     -42.240 -46.134  11.632  1.00  0.00     0.095 A 
ATOM     20  HN  UNL     1     -43.903 -44.896  11.740  1.00  0.00     0.165 HD
ENDBRANCH  12  13
ENDBRANCH  11  12
ENDBRANCH   1  11
BRANCH   8  21
HETATM   21  C   UNL     1     -44.309 -54.042  14.706  1.00  0.00     0.108 C 
BRANCH  21  22
HETATM   22  C   UNL     1     -45.549 -54.556  14.010  1.00  0.00     0.215 C 
HETATM   23  O   UNL     1     -45.766 -55.744  13.808  1.00  0.00    -0.274 OA
HETATM   24  N   UNL     1     -46.459 -53.607  13.652  1.00  0.00    -0.370 N 
HETATM   25  H   UNL     1     -46.255 -52.614  13.666  1.00  0.00     0.159 HD
HETATM   26  H   UNL     1     -47.279 -53.921  13.150  1.00  0.00     0.159 HD
ENDBRANCH  21  22
ENDBRANCH   8  21
TORSDOF 5
ENDMDL
MODEL 6
REMARK VINA RESULT:      -6.1      2.591      3.682
REMARK  5 active torsions:
REMARK  status: ('A' for Active; 'I' for Inactive)
REMARK    1  A    between atoms: C_5  and  C_6 
REMARK    2  A    between atoms: C_6  and  C_7 
REMARK    3  A    between atoms: C_7  and  N_8 
REMARK       I    between atoms: N_8  and  C_9 
REMARK       I    between atoms: C_9  and  N_11 
REMARK    4  A    between atoms: C_15  and  C_16 
REMARK    5  A    between atoms: C_16  and  C_17 
REMARK       I    between atoms: C_17  and  N_19 
ROOT
HETATM    1  N   UNL     1     -41.969 -53.828  15.663  1.00  0.00    -0.343 N 
HETATM    2  C   UNL     1     -41.099 -53.619  14.621  1.00  0.00     0.318 C 
HETATM    3  O   UNL     1     -41.327 -54.063  13.499  1.00  0.00    -0.247 OA
HETATM    4  N   UNL     1     -39.962 -52.884  14.920  1.00  0.00    -0.334 N 
HETATM    5  C   UNL     1     -39.478 -52.534  16.258  1.00  0.00     0.127 C 
HETATM    6  C   UNL     1     -39.019 -51.077  16.296  1.00  0.00     0.020 C 
HETATM    7  C   UNL     1     -37.972 -50.799  15.218  1.00  0.00     0.008 C 
HETATM    8  C   UNL     1     -38.490 -51.216  13.832  1.00  0.00     0.012 C 
HETATM    9  C   UNL     1     -38.980 -52.671  13.853  1.00  0.00     0.132 C 
HETATM   10  H   UNL     1     -41.983 -53.115  16.372  1.00  0.00     0.164 HD
ENDROOT
BRANCH   1  11
HETATM   11  C   UNL     1     -43.229 -54.531  15.445  1.00  0.00     0.129 C 
BRANCH  11  12
HETATM   12  C   UNL     1     -44.438 -53.702  15.887  1.00  0.00     0.060 C 
BRANCH  12  13
HETATM   13  C   UNL     1     -45.232 -53.138  14.739  1.00  0.00    -0.041 A 
HETATM   14  C   UNL     1     -45.945 -51.946  14.870  1.00  0.00     0.010 A 
HETATM   15  C   UNL     1     -46.608 -51.406  13.766  1.00  0.00     0.025 A 
HETATM   16  C   UNL     1     -46.555 -52.084  12.554  1.00  0.00     0.005 A 
HETATM   17  C   UNL     1     -47.183 -51.504  11.321  1.00  0.00     0.068 C 
HETATM   18  N   UNL     1     -45.902 -53.261  12.410  1.00  0.00    -0.369 N 
HETATM   19  C   UNL     1     -45.262 -53.758  13.495  1.00  0.00     0.095 A 
ATOM     20  HN  UNL     1     -45.893 -53.756  11.517  1.00  0.00     0.165 HD
ENDBRANCH  12  13
ENDBRANCH  11  12
ENDBRANCH   1  11
BRANCH   8  21
HETATM   21  C   UNL     1     -37.468 -50.946  12.718  1.00  0.00     0.108 C 
BRANCH  21  22
HETATM   22  C   UNL     1     -37.945 -49.973  11.663  1.00  0.00     0.215 C 
HETATM   23  O   UNL     1     -38.803 -49.122  11.866  1.00  0.00    -0.274 OA
HETATM   24  N   UNL     1     -37.320 -50.062  10.455  1.00  0.00    -0.370 N 
HETATM   25  H   UNL     1     -36.719 -50.838  10.201  1.00  0.00     0.159 HD
HETATM   26  H   UNL     1     -37.648 -49.449   9.720  1.00  0.00     0.159 HD
ENDBRANCH  21  22
ENDBRANCH   8  21
TORSDOF 5
ENDMDL
MODEL 7
REMARK VINA RESULT:      -6.1      2.495      3.900
REMARK  5 active torsions:
REMARK  status: ('A' for Active; 'I' for Inactive)
REMARK    1  A    between atoms: C_5  and  C_6 
REMARK    2  A    between atoms: C_6  and  C_7 
REMARK    3  A    between atoms: C_7  and  N_8 
REMARK       I    between atoms: N_8  and  C_9 
REMARK       I    between atoms: C_9  and  N_11 
REMARK    4  A    between atoms: C_15  and  C_16 
REMARK    5  A    between atoms: C_16  and  C_17 
REMARK       I    between atoms: C_17  and  N_19 
ROOT
HETATM    1  N   UNL     1     -39.928 -52.851  13.438  1.00  0.00    -0.343 N 
HETATM    2  C   UNL     1     -40.466 -52.040  12.469  1.00  0.00     0.318 C 
HETATM    3  O   UNL     1     -41.382 -52.428  11.749  1.00  0.00    -0.247 OA
HETATM    4  N   UNL     1     -39.911 -50.774  12.361  1.00  0.00    -0.334 N 
HETATM    5  C   UNL     1     -38.669 -50.311  12.987  1.00  0.00     0.127 C 
HETATM    6  C   UNL     1     -38.855 -48.914  13.575  1.00  0.00     0.020 C 
HETATM    7  C   UNL     1     -39.364 -47.933  12.518  1.00  0.00     0.008 C 
HETATM    8  C   UNL     1     -40.643 -48.464  11.850  1.00  0.00     0.012 C 
HETATM    9  C   UNL     1     -40.421 -49.886  11.313  1.00  0.00     0.132 C 
HETATM   10  H   UNL     1     -39.548 -52.381  14.242  1.00  0.00     0.164 HD
ENDROOT
BRANCH   1  11
HETATM   11  C   UNL     1     -40.479 -54.180  13.682  1.00  0.00     0.129 C 
BRANCH  11  12
HETATM   12  C   UNL     1     -41.270 -54.246  14.991  1.00  0.00     0.060 C 
BRANCH  12  13
HETATM   13  C   UNL     1     -42.730 -53.917  14.830  1.00  0.00    -0.041 A 
HETATM   14  C   UNL     1     -43.658 -54.899  14.481  1.00  0.00     0.010 A 
HETATM   15  C   UNL     1     -45.016 -54.582  14.416  1.00  0.00     0.025 A 
HETATM   16  C   UNL     1     -45.415 -53.278  14.685  1.00  0.00     0.005 A 
HETATM   17  C   UNL     1     -46.869 -52.907  14.705  1.00  0.00     0.068 C 
HETATM   18  N   UNL     1     -44.531 -52.298  14.987  1.00  0.00    -0.369 N 
HETATM   19  C   UNL     1     -43.221 -52.635  15.052  1.00  0.00     0.095 A 
ATOM     20  HN  UNL     1     -44.840 -51.341  15.160  1.00  0.00     0.165 HD
ENDBRANCH  12  13
ENDBRANCH  11  12
ENDBRANCH   1  11
BRANCH   8  21
HETATM   21  C   UNL     1     -41.191 -47.503  10.785  1.00  0.00     0.108 C 
BRANCH  21  22
HETATM   22  C   UNL     1     -42.578 -47.849  10.293  1.00  0.00     0.215 C 
HETATM   23  O   UNL     1     -43.568 -47.857  11.015  1.00  0.00    -0.274 OA
HETATM   24  N   UNL     1     -42.681 -48.112   8.960  1.00  0.00    -0.370 N 
HETATM   25  H   UNL     1     -41.875 -48.260   8.363  1.00  0.00     0.159 HD
HETATM   26  H   UNL     1     -43.591 -48.385   8.613  1.00  0.00     0.159 HD
ENDBRANCH  21  22
ENDBRANCH   8  21
TORSDOF 5
ENDMDL
MODEL 8
REMARK VINA RESULT:      -6.1      2.851      3.898
REMARK  5 active torsions:
REMARK  status: ('A' for Active; 'I' for Inactive)
REMARK    1  A    between atoms: C_5  and  C_6 
REMARK    2  A    between atoms: C_6  and  C_7 
REMARK    3  A    between atoms: C_7  and  N_8 
REMARK       I    between atoms: N_8  and  C_9 
REMARK       I    between atoms: C_9  and  N_11 
REMARK    4  A    between atoms: C_15  and  C_16 
REMARK    5  A    between atoms: C_16  and  C_17 
REMARK       I    between atoms: C_17  and  N_19 
ROOT
HETATM    1  N   UNL     1     -41.663 -51.343  11.780  1.00  0.00    -0.343 N 
HETATM    2  C   UNL     1     -40.766 -50.317  11.951  1.00  0.00     0.318 C 
HETATM    3  O   UNL     1     -39.569 -50.537  12.117  1.00  0.00    -0.247 OA
HETATM    4  N   UNL     1     -41.298 -49.037  11.925  1.00  0.00    -0.334 N 
HETATM    5  C   UNL     1     -42.718 -48.682  11.988  1.00  0.00     0.127 C 
HETATM    6  C   UNL     1     -43.040 -47.584  10.975  1.00  0.00     0.020 C 
HETATM    7  C   UNL     1     -42.137 -46.367  11.174  1.00  0.00     0.008 C 
HETATM    8  C   UNL     1     -40.654 -46.776  11.146  1.00  0.00     0.012 C 
HETATM    9  C   UNL     1     -40.388 -47.910  12.147  1.00  0.00     0.132 C 
HETATM   10  H   UNL     1     -42.473 -51.128  11.224  1.00  0.00     0.164 HD
ENDROOT
BRANCH   1  11
HETATM   11  C   UNL     1     -41.204 -52.727  11.724  1.00  0.00     0.129 C 
BRANCH  11  12
HETATM   12  C   UNL     1     -41.319 -53.429  13.080  1.00  0.00     0.060 C 
BRANCH  12  13
HETATM   13  C   UNL     1     -42.740 -53.642  13.529  1.00  0.00    -0.041 A 
HETATM   14  C   UNL     1     -43.764 -53.862  12.607  1.00  0.00     0.010 A 
HETATM   15  C   UNL     1     -45.057 -54.135  13.055  1.00  0.00     0.025 A 
HETATM   16  C   UNL     1     -45.302 -54.166  14.423  1.00  0.00     0.005 A 
HETATM   17  C   UNL     1     -46.656 -54.533  14.954  1.00  0.00     0.068 C 
HETATM   18  N   UNL     1     -44.335 -53.918  15.338  1.00  0.00    -0.369 N 
HETATM   19  C   UNL     1     -43.087 -53.664  14.875  1.00  0.00     0.095 A 
ATOM     20  HN  UNL     1     -44.537 -53.923  16.337  1.00  0.00     0.165 HD
ENDBRANCH  12  13
ENDBRANCH  11  12
ENDBRANCH   1  11
BRANCH   8  21
HETATM   21  C   UNL     1     -39.712 -45.578  11.336  1.00  0.00     0.108 C 
BRANCH  21  22
HETATM   22  C   UNL     1     -39.762 -44.567  10.213  1.00  0.00     0.215 C 
HETATM   23  O   UNL     1     -40.421 -43.536  10.261  1.00  0.00    -0.274 OA
HETATM   24  N   UNL     1     -38.977 -44.846   9.135  1.00  0.00    -0.370 N 
HETATM   25  H   UNL     1     -38.537 -45.748   8.991  1.00  0.00     0.159 HD
HETATM   26  H   UNL     1     -39.022 -44.206   8.353  1.00  0.00     0.159 HD
ENDBRANCH  21  22
ENDBRANCH   8  21
TORSDOF 5
ENDMDL
MODEL 9
REMARK VINA RESULT:      -6.0      2.218      2.666
REMARK  5 active torsions:
REMARK  status: ('A' for Active; 'I' for Inactive)
REMARK    1  A    between atoms: C_5  and  C_6 
REMARK    2  A    between atoms: C_6  and  C_7 
REMARK    3  A    between atoms: C_7  and  N_8 
REMARK       I    between atoms: N_8  and  C_9 
REMARK       I    between atoms: C_9  and  N_11 
REMARK    4  A    between atoms: C_15  and  C_16 
REMARK    5  A    between atoms: C_16  and  C_17 
REMARK       I    between atoms: C_17  and  N_19 
ROOT
HETATM    1  N   UNL     1     -42.432 -54.008  14.838  1.00  0.00    -0.343 N 
HETATM    2  C   UNL     1     -41.344 -53.795  14.028  1.00  0.00     0.318 C 
HETATM    3  O   UNL     1     -41.214 -54.392  12.963  1.00  0.00    -0.247 OA
HETATM    4  N   UNL     1     -40.415 -52.875  14.491  1.00  0.00    -0.334 N 
HETATM    5  C   UNL     1     -40.347 -52.309  15.840  1.00  0.00     0.127 C 
HETATM    6  C   UNL     1     -40.079 -50.806  15.777  1.00  0.00     0.020 C 
HETATM    7  C   UNL     1     -38.818 -50.504  14.966  1.00  0.00     0.008 C 
HETATM    8  C   UNL     1     -38.899 -51.146  13.571  1.00  0.00     0.012 C 
HETATM    9  C   UNL     1     -39.214 -52.645  13.683  1.00  0.00     0.132 C 
HETATM   10  H   UNL     1     -42.713 -53.229  15.408  1.00  0.00     0.164 HD
ENDROOT
BRANCH   1  11
HETATM   11  C   UNL     1     -43.502 -54.906  14.419  1.00  0.00     0.129 C 
BRANCH  11  12
HETATM   12  C   UNL     1     -44.610 -54.171  13.660  1.00  0.00     0.060 C 
BRANCH  12  13
HETATM   13  C   UNL     1     -45.458 -53.289  14.538  1.00  0.00    -0.041 A 
HETATM   14  C   UNL     1     -46.045 -52.125  14.042  1.00  0.00     0.010 A 
HETATM   15  C   UNL     1     -46.889 -51.369  14.857  1.00  0.00     0.025 A 
HETATM   16  C   UNL     1     -47.116 -51.789  16.162  1.00  0.00     0.005 A 
HETATM   17  C   UNL     1     -48.077 -51.055  17.050  1.00  0.00     0.068 C 
HETATM   18  N   UNL     1     -46.529 -52.893  16.680  1.00  0.00    -0.369 N 
HETATM   19  C   UNL     1     -45.720 -53.612  15.865  1.00  0.00     0.095 A 
ATOM     20  HN  UNL     1     -46.689 -53.174  17.648  1.00  0.00     0.165 HD
ENDBRANCH  12  13
ENDBRANCH  11  12
ENDBRANCH   1  11
BRANCH   8  21
HETATM   21  C   UNL     1     -37.653 -50.859  12.721  1.00  0.00     0.108 C 
BRANCH  21  22
HETATM   22  C   UNL     1     -37.886 -49.884  11.589  1.00  0.00     0.215 C 
HETATM   23  O   UNL     1     -38.549 -48.860  11.706  1.00  0.00    -0.274 OA
HETATM   24  N   UNL     1     -37.266 -50.187  10.414  1.00  0.00    -0.370 N 
HETATM   25  H   UNL     1     -36.838 -51.087  10.233  1.00  0.00     0.159 HD
HETATM   26  H   UNL     1     -37.438 -49.572   9.630  1.00  0.00     0.159 HD
ENDBRANCH  21  22
ENDBRANCH   8  21
TORSDOF 5
ENDMDL
