MODEL 1
REMARK VINA RESULT:      -5.4      0.000      0.000
REMARK  6 active torsions:
REMARK  status: ('A' for Active; 'I' for Inactive)
REMARK       I    between atoms: N_1  and  C_2 
REMARK    1  A    between atoms: C_2  and  C_4 
REMARK    2  A    between atoms: C_4  and  N_5 
REMARK    3  A    between atoms: C_6  and  S_7 
REMARK    4  A    between atoms: S_7  and  C_8 
REMARK    5  A    between atoms: C_8  and  C_9 
REMARK    6  A    between atoms: C_16  and  C_17 
ROOT
HETATM    1  N   UNL     1     -40.263 -48.168  11.998  1.00  0.00    -0.306 N 
HETATM    2  C   UNL     1     -41.341 -48.520  11.231  1.00  0.00     0.163 C 
HETATM    3  N   UNL     1     -40.987 -49.457  10.379  1.00  0.00    -0.278 N 
ATOM      4  HN  UNL     1     -41.569 -49.845   9.636  1.00  0.00     0.189 HD
HETATM    5  N   UNL     1     -39.699 -49.818  10.668  1.00  0.00    -0.286 N 
ATOM      6  HN  UNL     1     -39.149 -50.521  10.175  1.00  0.00     0.188 HD
HETATM    7  C   UNL     1     -39.295 -49.097  11.694  1.00  0.00     0.104 C 
ENDROOT
BRANCH   1   8
HETATM    8  C   UNL     1     -40.185 -47.144  13.013  1.00  0.00     0.235 C 
BRANCH   8   9
HETATM    9  C   UNL     1     -39.717 -45.821  12.447  1.00  0.00     0.233 C 
HETATM   10  N   UNL     1     -39.145 -44.949  13.328  1.00  0.00    -0.369 N 
HETATM   11  H   UNL     1     -38.850 -44.049  12.972  1.00  0.00     0.159 HD
HETATM   12  H   UNL     1     -39.148 -45.084  14.332  1.00  0.00     0.159 HD
HETATM   13  O   UNL     1     -39.799 -45.546  11.252  1.00  0.00    -0.272 OA
ENDBRANCH   8   9
ENDBRANCH   1   8
BRANCH   2  14
HETATM   14  S   UNL     1     -42.950 -47.919  11.425  1.00  0.00    -0.087 SA
BRANCH  14  15
HETATM   15  C   UNL     1     -43.047 -46.878   9.922  1.00  0.00     0.132 C 
BRANCH  15  16
HETATM   16  C   UNL     1     -44.062 -47.393   8.935  1.00  0.00     0.012 C 
HETATM   17  C   UNL     1     -45.375 -47.497   9.178  1.00  0.00     0.033 C 
HETATM   18 CL   UNL     1     -43.434 -48.016   7.443  1.00  0.00    -0.089 Cl
ENDBRANCH  15  16
ENDBRANCH  14  15
ENDBRANCH   2  14
BRANCH   7  19
HETATM   19  C   UNL     1     -38.012 -49.389  12.460  1.00  0.00     0.055 A 
HETATM   20  C   UNL     1     -37.373 -50.759  12.405  1.00  0.00     0.013 A 
HETATM   21  C   UNL     1     -38.168 -50.378  13.605  1.00  0.00     0.013 A 
ENDBRANCH   7  19
TORSDOF 6
ENDMDL
MODEL 2
REMARK VINA RESULT:      -5.2      3.494      4.022
REMARK  6 active torsions:
REMARK  status: ('A' for Active; 'I' for Inactive)
REMARK       I    between atoms: N_1  and  C_2 
REMARK    1  A    between atoms: C_2  and  C_4 
REMARK    2  A    between atoms: C_4  and  N_5 
REMARK    3  A    between atoms: C_6  and  S_7 
REMARK    4  A    between atoms: S_7  and  C_8 
REMARK    5  A    between atoms: C_8  and  C_9 
REMARK    6  A    between atoms: C_16  and  C_17 
ROOT
HETATM    1  N   UNL     1     -41.282 -49.611  12.038  1.00  0.00    -0.306 N 
HETATM    2  C   UNL     1     -42.142 -50.524  12.585  1.00  0.00     0.163 C 
HETATM    3  N   UNL     1     -41.636 -51.733  12.465  1.00  0.00    -0.278 N 
ATOM      4  HN  UNL     1     -42.100 -52.606  12.713  1.00  0.00     0.189 HD
HETATM    5  N   UNL     1     -40.375 -51.607  11.949  1.00  0.00    -0.286 N 
ATOM      6  HN  UNL     1     -39.734 -52.371  11.740  1.00  0.00     0.188 HD
HETATM    7  C   UNL     1     -40.136 -50.323  11.768  1.00  0.00     0.104 C 
ENDROOT
BRANCH   1   8
HETATM    8  C   UNL     1     -41.462 -48.186  11.898  1.00  0.00     0.235 C 
BRANCH   8   9
HETATM    9  C   UNL     1     -42.361 -47.841  10.731  1.00  0.00     0.233 C 
HETATM   10  N   UNL     1     -41.938 -48.240   9.497  1.00  0.00    -0.369 N 
HETATM   11  H   UNL     1     -42.514 -47.995   8.701  1.00  0.00     0.159 HD
HETATM   12  H   UNL     1     -41.016 -48.617   9.315  1.00  0.00     0.159 HD
HETATM   13  O   UNL     1     -43.440 -47.270  10.872  1.00  0.00    -0.272 OA
ENDBRANCH   8   9
ENDBRANCH   1   8
BRANCH   2  14
HETATM   14  S   UNL     1     -43.612 -50.147  13.414  1.00  0.00    -0.087 SA
BRANCH  14  15
HETATM   15  C   UNL     1     -44.484 -51.741  13.183  1.00  0.00     0.132 C 
BRANCH  15  16
HETATM   16  C   UNL     1     -45.979 -51.594  13.294  1.00  0.00     0.012 C 
HETATM   17  C   UNL     1     -46.647 -51.448  14.445  1.00  0.00     0.033 C 
HETATM   18 CL   UNL     1     -46.878 -51.773  11.821  1.00  0.00    -0.089 Cl
ENDBRANCH  15  16
ENDBRANCH  14  15
ENDBRANCH   2  14
BRANCH   7  19
HETATM   19  C   UNL     1     -38.752 -49.774  11.448  1.00  0.00     0.055 A 
HETATM   20  C   UNL     1     -37.507 -50.535  11.845  1.00  0.00     0.013 A 
HETATM   21  C   UNL     1     -37.934 -49.367  12.664  1.00  0.00     0.013 A 
ENDBRANCH   7  19
TORSDOF 6
ENDMDL
MODEL 3
REMARK VINA RESULT:      -5.1      5.824      7.707
REMARK  6 active torsions:
REMARK  status: ('A' for Active; 'I' for Inactive)
REMARK       I    between atoms: N_1  and  C_2 
REMARK    1  A    between atoms: C_2  and  C_4 
REMARK    2  A    between atoms: C_4  and  N_5 
REMARK    3  A    between atoms: C_6  and  S_7 
REMARK    4  A    between atoms: S_7  and  C_8 
REMARK    5  A    between atoms: C_8  and  C_9 
REMARK    6  A    between atoms: C_16  and  C_17 
ROOT
HETATM    1  N   UNL     1     -42.757 -53.121  13.715  1.00  0.00    -0.306 N 
HETATM    2  C   UNL     1     -41.680 -52.787  12.940  1.00  0.00     0.163 C 
HETATM    3  N   UNL     1     -42.062 -52.656  11.689  1.00  0.00    -0.278 N 
ATOM      4  HN  UNL     1     -41.452 -52.491  10.888  1.00  0.00     0.189 HD
HETATM    5  N   UNL     1     -43.424 -52.780  11.654  1.00  0.00    -0.286 N 
ATOM      6  HN  UNL     1     -44.009 -52.728  10.821  1.00  0.00     0.188 HD
HETATM    7  C   UNL     1     -43.846 -52.979  12.886  1.00  0.00     0.104 C 
ENDROOT
BRANCH   1   8
HETATM    8  C   UNL     1     -42.784 -53.418  15.128  1.00  0.00     0.235 C 
BRANCH   8   9
HETATM    9  C   UNL     1     -42.622 -54.897  15.399  1.00  0.00     0.233 C 
HETATM   10  N   UNL     1     -41.459 -55.284  15.998  1.00  0.00    -0.369 N 
HETATM   11  H   UNL     1     -41.322 -56.274  16.163  1.00  0.00     0.159 HD
HETATM   12  H   UNL     1     -40.667 -54.668  16.137  1.00  0.00     0.159 HD
HETATM   13  O   UNL     1     -43.499 -55.718  15.139  1.00  0.00    -0.272 OA
ENDBRANCH   8   9
ENDBRANCH   1   8
BRANCH   2  14
HETATM   14  S   UNL     1     -40.084 -52.467  13.524  1.00  0.00    -0.087 SA
BRANCH  14  15
HETATM   15  C   UNL     1     -39.661 -51.059  12.433  1.00  0.00     0.132 C 
BRANCH  15  16
HETATM   16  C   UNL     1     -38.224 -50.631  12.585  1.00  0.00     0.012 C 
HETATM   17  C   UNL     1     -37.562 -50.585  13.748  1.00  0.00     0.033 C 
HETATM   18 CL   UNL     1     -37.449 -50.028  11.155  1.00  0.00    -0.089 Cl
ENDBRANCH  15  16
ENDBRANCH  14  15
ENDBRANCH   2  14
BRANCH   7  19
HETATM   19  C   UNL     1     -45.315 -52.913  13.282  1.00  0.00     0.055 A 
HETATM   20  C   UNL     1     -46.310 -52.147  12.438  1.00  0.00     0.013 A 
HETATM   21  C   UNL     1     -45.799 -51.532  13.695  1.00  0.00     0.013 A 
ENDBRANCH   7  19
TORSDOF 6
ENDMDL
MODEL 4
REMARK VINA RESULT:      -5.1      5.038      5.757
REMARK  6 active torsions:
REMARK  status: ('A' for Active; 'I' for Inactive)
REMARK       I    between atoms: N_1  and  C_2 
REMARK    1  A    between atoms: C_2  and  C_4 
REMARK    2  A    between atoms: C_4  and  N_5 
REMARK    3  A    between atoms: C_6  and  S_7 
REMARK    4  A    between atoms: S_7  and  C_8 
REMARK    5  A    between atoms: C_8  and  C_9 
REMARK    6  A    between atoms: C_16  and  C_17 
ROOT
HETATM    1  N   UNL     1     -40.725 -51.664  13.356  1.00  0.00    -0.306 N 
HETATM    2  C   UNL     1     -41.533 -52.497  12.631  1.00  0.00     0.163 C 
HETATM    3  N   UNL     1     -41.470 -52.174  11.357  1.00  0.00    -0.278 N 
ATOM      4  HN  UNL     1     -42.030 -52.576  10.606  1.00  0.00     0.189 HD
HETATM    5  N   UNL     1     -40.517 -51.201  11.222  1.00  0.00    -0.286 N 
ATOM      6  HN  UNL     1     -40.244 -50.747  10.351  1.00  0.00     0.188 HD
HETATM    7  C   UNL     1     -40.015 -50.954  12.415  1.00  0.00     0.104 C 
ENDROOT
BRANCH   1   8
HETATM    8  C   UNL     1     -40.539 -51.622  14.787  1.00  0.00     0.235 C 
BRANCH   8   9
HETATM    9  C   UNL     1     -39.331 -52.422  15.224  1.00  0.00     0.233 C 
HETATM   10  N   UNL     1     -38.463 -51.801  16.074  1.00  0.00    -0.369 N 
HETATM   11  H   UNL     1     -37.636 -52.311  16.356  1.00  0.00     0.159 HD
HETATM   12  H   UNL     1     -38.513 -50.816  16.306  1.00  0.00     0.159 HD
HETATM   13  O   UNL     1     -39.147 -53.587  14.877  1.00  0.00    -0.272 OA
ENDBRANCH   8   9
ENDBRANCH   1   8
BRANCH   2  14
HETATM   14  S   UNL     1     -42.412 -53.845  13.264  1.00  0.00    -0.087 SA
BRANCH  14  15
HETATM   15  C   UNL     1     -44.026 -53.535  12.460  1.00  0.00     0.132 C 
BRANCH  15  16
HETATM   16  C   UNL     1     -45.187 -53.916  13.342  1.00  0.00     0.012 C 
HETATM   17  C   UNL     1     -45.403 -55.144  13.828  1.00  0.00     0.033 C 
HETATM   18 CL   UNL     1     -46.381 -52.686  13.611  1.00  0.00    -0.089 Cl
ENDBRANCH  15  16
ENDBRANCH  14  15
ENDBRANCH   2  14
BRANCH   7  19
HETATM   19  C   UNL     1     -38.762 -50.117  12.631  1.00  0.00     0.055 A 
HETATM   20  C   UNL     1     -37.811 -49.838  11.489  1.00  0.00     0.013 A 
HETATM   21  C   UNL     1     -37.455 -50.883  12.489  1.00  0.00     0.013 A 
ENDBRANCH   7  19
TORSDOF 6
ENDMDL
MODEL 5
REMARK VINA RESULT:      -4.9      4.169      4.846
REMARK  6 active torsions:
REMARK  status: ('A' for Active; 'I' for Inactive)
REMARK       I    between atoms: N_1  and  C_2 
REMARK    1  A    between atoms: C_2  and  C_4 
REMARK    2  A    between atoms: C_4  and  N_5 
REMARK    3  A    between atoms: C_6  and  S_7 
REMARK    4  A    between atoms: S_7  and  C_8 
REMARK    5  A    between atoms: C_8  and  C_9 
REMARK    6  A    between atoms: C_16  and  C_17 
ROOT
HETATM    1  N   UNL     1     -41.756 -49.901  12.376  1.00  0.00    -0.306 N 
HETATM    2  C   UNL     1     -42.411 -51.101  12.451  1.00  0.00     0.163 C 
HETATM    3  N   UNL     1     -41.776 -51.995  11.724  1.00  0.00    -0.278 N 
ATOM      4  HN  UNL     1     -42.087 -52.947  11.536  1.00  0.00     0.189 HD
HETATM    5  N   UNL     1     -40.623 -51.416  11.266  1.00  0.00    -0.286 N 
ATOM      6  HN  UNL     1     -39.924 -51.862  10.673  1.00  0.00     0.188 HD
HETATM    7  C   UNL     1     -40.576 -50.182  11.727  1.00  0.00     0.104 C 
ENDROOT
BRANCH   1   8
HETATM    8  C   UNL     1     -42.134 -48.639  12.967  1.00  0.00     0.235 C 
BRANCH   8   9
HETATM    9  C   UNL     1     -42.785 -47.716  11.960  1.00  0.00     0.233 C 
HETATM   10  N   UNL     1     -43.301 -46.549  12.447  1.00  0.00    -0.369 N 
HETATM   11  H   UNL     1     -43.763 -45.931  11.792  1.00  0.00     0.159 HD
HETATM   12  H   UNL     1     -43.390 -46.345  13.434  1.00  0.00     0.159 HD
HETATM   13  O   UNL     1     -42.820 -47.966  10.757  1.00  0.00    -0.272 OA
ENDBRANCH   8   9
ENDBRANCH   1   8
BRANCH   2  14
HETATM   14  S   UNL     1     -43.790 -51.432  13.440  1.00  0.00    -0.087 SA
BRANCH  14  15
HETATM   15  C   UNL     1     -44.314 -53.011  12.675  1.00  0.00     0.132 C 
BRANCH  15  16
HETATM   16  C   UNL     1     -44.108 -54.186  13.595  1.00  0.00     0.012 C 
HETATM   17  C   UNL     1     -42.955 -54.479  14.210  1.00  0.00     0.033 C 
HETATM   18 CL   UNL     1     -45.435 -55.294  13.733  1.00  0.00    -0.089 Cl
ENDBRANCH  15  16
ENDBRANCH  14  15
ENDBRANCH   2  14
BRANCH   7  19
HETATM   19  C   UNL     1     -39.330 -49.311  11.641  1.00  0.00     0.055 A 
HETATM   20  C   UNL     1     -37.961 -49.933  11.479  1.00  0.00     0.013 A 
HETATM   21  C   UNL     1     -38.380 -49.443  12.822  1.00  0.00     0.013 A 
ENDBRANCH   7  19
TORSDOF 6
ENDMDL
MODEL 6
REMARK VINA RESULT:      -4.8      4.843      5.489
REMARK  6 active torsions:
REMARK  status: ('A' for Active; 'I' for Inactive)
REMARK       I    between atoms: N_1  and  C_2 
REMARK    1  A    between atoms: C_2  and  C_4 
REMARK    2  A    between atoms: C_4  and  N_5 
REMARK    3  A    between atoms: C_6  and  S_7 
REMARK    4  A    between atoms: S_7  and  C_8 
REMARK    5  A    between atoms: C_8  and  C_9 
REMARK    6  A    between atoms: C_16  and  C_17 
ROOT
HETATM    1  N   UNL     1     -40.778 -51.688  13.377  1.00  0.00    -0.306 N 
HETATM    2  C   UNL     1     -41.565 -52.523  12.631  1.00  0.00     0.163 C 
HETATM    3  N   UNL     1     -41.464 -52.205  11.359  1.00  0.00    -0.278 N 
ATOM      4  HN  UNL     1     -42.002 -52.609  10.593  1.00  0.00     0.189 HD
HETATM    5  N   UNL     1     -40.506 -51.233  11.248  1.00  0.00    -0.286 N 
ATOM      6  HN  UNL     1     -40.207 -50.783  10.384  1.00  0.00     0.188 HD
HETATM    7  C   UNL     1     -40.039 -50.982  12.455  1.00  0.00     0.104 C 
ENDROOT
BRANCH   1   8
HETATM    8  C   UNL     1     -40.634 -51.641  14.813  1.00  0.00     0.235 C 
BRANCH   8   9
HETATM    9  C   UNL     1     -41.599 -50.664  15.447  1.00  0.00     0.233 C 
HETATM   10  N   UNL     1     -42.775 -51.180  15.909  1.00  0.00    -0.369 N 
HETATM   11  H   UNL     1     -43.444 -50.537  16.313  1.00  0.00     0.159 HD
HETATM   12  H   UNL     1     -43.081 -52.128  15.726  1.00  0.00     0.159 HD
HETATM   13  O   UNL     1     -41.337 -49.471  15.587  1.00  0.00    -0.272 OA
ENDBRANCH   8   9
ENDBRANCH   1   8
BRANCH   2  14
HETATM   14  S   UNL     1     -42.463 -53.868  13.243  1.00  0.00    -0.087 SA
BRANCH  14  15
HETATM   15  C   UNL     1     -44.090 -53.487  12.494  1.00  0.00     0.132 C 
BRANCH  15  16
HETATM   16  C   UNL     1     -45.237 -53.906  13.376  1.00  0.00     0.012 C 
HETATM   17  C   UNL     1     -45.442 -55.153  13.817  1.00  0.00     0.033 C 
HETATM   18 CL   UNL     1     -46.432 -52.693  13.707  1.00  0.00    -0.089 Cl
ENDBRANCH  15  16
ENDBRANCH  14  15
ENDBRANCH   2  14
BRANCH   7  19
HETATM   19  C   UNL     1     -38.792 -50.146  12.705  1.00  0.00     0.055 A 
HETATM   20  C   UNL     1     -37.755 -49.959  11.620  1.00  0.00     0.013 A 
HETATM   21  C   UNL     1     -37.491 -50.934  12.715  1.00  0.00     0.013 A 
ENDBRANCH   7  19
TORSDOF 6
ENDMDL
MODEL 7
REMARK VINA RESULT:      -4.8      5.178      6.362
REMARK  6 active torsions:
REMARK  status: ('A' for Active; 'I' for Inactive)
REMARK       I    between atoms: N_1  and  C_2 
REMARK    1  A    between atoms: C_2  and  C_4 
REMARK    2  A    between atoms: C_4  and  N_5 
REMARK    3  A    between atoms: C_6  and  S_7 
REMARK    4  A    between atoms: S_7  and  C_8 
REMARK    5  A    between atoms: C_8  and  C_9 
REMARK    6  A    between atoms: C_16  and  C_17 
ROOT
HETATM    1  N   UNL     1     -41.674 -53.034  13.509  1.00  0.00    -0.306 N 
HETATM    2  C   UNL     1     -41.612 -52.188  12.434  1.00  0.00     0.163 C 
HETATM    3  N   UNL     1     -42.516 -52.538  11.545  1.00  0.00    -0.278 N 
ATOM      4  HN  UNL     1     -42.636 -52.132  10.618  1.00  0.00     0.189 HD
HETATM    5  N   UNL     1     -43.265 -53.546  12.089  1.00  0.00    -0.286 N 
ATOM      6  HN  UNL     1     -44.042 -54.027  11.635  1.00  0.00     0.188 HD
HETATM    7  C   UNL     1     -42.807 -53.786  13.301  1.00  0.00     0.104 C 
ENDROOT
BRANCH   1   8
HETATM    8  C   UNL     1     -40.831 -53.053  14.681  1.00  0.00     0.235 C 
BRANCH   8   9
HETATM    9  C   UNL     1     -39.642 -53.972  14.508  1.00  0.00     0.233 C 
HETATM   10  N   UNL     1     -39.602 -55.074  15.312  1.00  0.00    -0.369 N 
HETATM   11  H   UNL     1     -38.801 -55.687  15.229  1.00  0.00     0.159 HD
HETATM   12  H   UNL     1     -40.234 -55.225  16.089  1.00  0.00     0.159 HD
HETATM   13  O   UNL     1     -38.771 -53.778  13.664  1.00  0.00    -0.272 OA
ENDBRANCH   8   9
ENDBRANCH   1   8
BRANCH   2  14
HETATM   14  S   UNL     1     -40.591 -50.798  12.309  1.00  0.00    -0.087 SA
BRANCH  14  15
HETATM   15  C   UNL     1     -41.878 -49.526  12.030  1.00  0.00     0.132 C 
BRANCH  15  16
HETATM   16  C   UNL     1     -41.376 -48.382  11.187  1.00  0.00     0.012 C 
HETATM   17  C   UNL     1     -40.290 -47.650  11.465  1.00  0.00     0.033 C 
HETATM   18 CL   UNL     1     -42.377 -47.919   9.849  1.00  0.00    -0.089 Cl
ENDBRANCH  15  16
ENDBRANCH  14  15
ENDBRANCH   2  14
BRANCH   7  19
HETATM   19  C   UNL     1     -43.541 -54.661  14.308  1.00  0.00     0.055 A 
HETATM   20  C   UNL     1     -45.004 -54.998  14.118  1.00  0.00     0.013 A 
HETATM   21  C   UNL     1     -44.624 -53.944  15.100  1.00  0.00     0.013 A 
ENDBRANCH   7  19
TORSDOF 6
ENDMDL
MODEL 8
REMARK VINA RESULT:      -4.8      5.253      6.789
REMARK  6 active torsions:
REMARK  status: ('A' for Active; 'I' for Inactive)
REMARK       I    between atoms: N_1  and  C_2 
REMARK    1  A    between atoms: C_2  and  C_4 
REMARK    2  A    between atoms: C_4  and  N_5 
REMARK    3  A    between atoms: C_6  and  S_7 
REMARK    4  A    between atoms: S_7  and  C_8 
REMARK    5  A    between atoms: C_8  and  C_9 
REMARK    6  A    between atoms: C_16  and  C_17 
ROOT
HETATM    1  N   UNL     1     -40.663 -52.756  13.374  1.00  0.00    -0.306 N 
HETATM    2  C   UNL     1     -40.154 -51.803  12.534  1.00  0.00     0.163 C 
HETATM    3  N   UNL     1     -40.827 -51.808  11.404  1.00  0.00    -0.278 N 
ATOM      4  HN  UNL     1     -40.611 -51.258  10.573  1.00  0.00     0.189 HD
HETATM    5  N   UNL     1     -41.868 -52.685  11.543  1.00  0.00    -0.286 N 
ATOM      6  HN  UNL     1     -42.565 -52.906  10.831  1.00  0.00     0.188 HD
HETATM    7  C   UNL     1     -41.813 -53.193  12.758  1.00  0.00     0.104 C 
ENDROOT
BRANCH   1   8
HETATM    8  C   UNL     1     -40.193 -53.133  14.686  1.00  0.00     0.235 C 
BRANCH   8   9
HETATM    9  C   UNL     1     -39.611 -54.529  14.699  1.00  0.00     0.233 C 
HETATM   10  N   UNL     1     -38.780 -54.853  13.665  1.00  0.00    -0.369 N 
HETATM   11  H   UNL     1     -38.401 -55.792  13.644  1.00  0.00     0.159 HD
HETATM   12  H   UNL     1     -38.652 -54.272  12.846  1.00  0.00     0.159 HD
HETATM   13  O   UNL     1     -39.827 -55.330  15.606  1.00  0.00    -0.272 OA
ENDBRANCH   8   9
ENDBRANCH   1   8
BRANCH   2  14
HETATM   14  S   UNL     1     -38.902 -50.680  12.932  1.00  0.00    -0.087 SA
BRANCH  14  15
HETATM   15  C   UNL     1     -39.847 -49.123  12.744  1.00  0.00     0.132 C 
BRANCH  15  16
HETATM   16  C   UNL     1     -39.098 -47.931  13.280  1.00  0.00     0.012 C 
HETATM   17  C   UNL     1     -39.498 -46.660  13.154  1.00  0.00     0.033 C 
HETATM   18 CL   UNL     1     -37.544 -48.254  13.979  1.00  0.00    -0.089 Cl
ENDBRANCH  15  16
ENDBRANCH  14  15
ENDBRANCH   2  14
BRANCH   7  19
HETATM   19  C   UNL     1     -42.943 -54.011  13.367  1.00  0.00     0.055 A 
HETATM   20  C   UNL     1     -44.351 -53.913  12.822  1.00  0.00     0.013 A 
HETATM   21  C   UNL     1     -44.008 -53.191  14.079  1.00  0.00     0.013 A 
ENDBRANCH   7  19
TORSDOF 6
ENDMDL
MODEL 9
REMARK VINA RESULT:      -4.7      2.904      5.479
REMARK  6 active torsions:
REMARK  status: ('A' for Active; 'I' for Inactive)
REMARK       I    between atoms: N_1  and  C_2 
REMARK    1  A    between atoms: C_2  and  C_4 
REMARK    2  A    between atoms: C_4  and  N_5 
REMARK    3  A    between atoms: C_6  and  S_7 
REMARK    4  A    between atoms: S_7  and  C_8 
REMARK    5  A    between atoms: C_8  and  C_9 
REMARK    6  A    between atoms: C_16  and  C_17 
ROOT
HETATM    1  N   UNL     1     -41.573 -47.034  11.411  1.00  0.00    -0.306 N 
HETATM    2  C   UNL     1     -40.945 -48.241  11.560  1.00  0.00     0.163 C 
HETATM    3  N   UNL     1     -41.723 -49.202  11.112  1.00  0.00    -0.278 N 
ATOM      4  HN  UNL     1     -41.540 -50.203  11.174  1.00  0.00     0.189 HD
HETATM    5  N   UNL     1     -42.823 -48.616  10.546  1.00  0.00    -0.286 N 
ATOM      6  HN  UNL     1     -43.607 -49.105  10.115  1.00  0.00     0.188 HD
HETATM    7  C   UNL     1     -42.691 -47.309  10.656  1.00  0.00     0.104 C 
ENDROOT
BRANCH   1   8
HETATM    8  C   UNL     1     -41.111 -45.729  11.821  1.00  0.00     0.235 C 
BRANCH   8   9
HETATM    9  C   UNL     1     -40.557 -44.935  10.659  1.00  0.00     0.233 C 
HETATM   10  N   UNL     1     -39.615 -45.555   9.890  1.00  0.00    -0.369 N 
HETATM   11  H   UNL     1     -39.214 -45.029   9.124  1.00  0.00     0.159 HD
HETATM   12  H   UNL     1     -39.184 -46.438  10.135  1.00  0.00     0.159 HD
HETATM   13  O   UNL     1     -40.951 -43.805  10.381  1.00  0.00    -0.272 OA
ENDBRANCH   8   9
ENDBRANCH   1   8
BRANCH   2  14
HETATM   14  S   UNL     1     -39.330 -48.467  12.136  1.00  0.00    -0.087 SA
BRANCH  14  15
HETATM   15  C   UNL     1     -39.146 -50.251  11.769  1.00  0.00     0.132 C 
BRANCH  15  16
HETATM   16  C   UNL     1     -38.971 -51.076  13.018  1.00  0.00     0.012 C 
HETATM   17  C   UNL     1     -39.861 -51.966  13.473  1.00  0.00     0.033 C 
HETATM   18 CL   UNL     1     -37.574 -50.720  13.982  1.00  0.00    -0.089 Cl
ENDBRANCH  15  16
ENDBRANCH  14  15
ENDBRANCH   2  14
BRANCH   7  19
HETATM   19  C   UNL     1     -43.587 -46.319   9.925  1.00  0.00     0.055 A 
HETATM   20  C   UNL     1     -44.688 -46.804   9.008  1.00  0.00     0.013 A 
HETATM   21  C   UNL     1     -43.417 -46.307   8.413  1.00  0.00     0.013 A 
ENDBRANCH   7  19
TORSDOF 6
ENDMDL
