MODEL 1
REMARK VINA RESULT:      -5.7      0.000      0.000
REMARK  4 active torsions:
REMARK  status: ('A' for Active; 'I' for Inactive)
REMARK    1  A    between atoms: C_6  and  N_7 
REMARK       I    between atoms: N_7  and  C_8 
REMARK       I    between atoms: C_8  and  N_10 
REMARK    2  A    between atoms: N_10  and  C_11 
REMARK    3  A    between atoms: C_11  and  C_12 
REMARK    4  A    between atoms: C_12  and  C_13 
ROOT
HETATM    1  N   UNL     1     -40.361 -46.503  11.292  1.00  0.00    -0.295 N 
HETATM    2  C   UNL     1     -41.380 -46.332  10.398  1.00  0.00     0.321 C 
HETATM    3  O   UNL     1     -41.681 -45.204  10.023  1.00  0.00    -0.247 OA
HETATM    4  N   UNL     1     -41.953 -47.470   9.922  1.00  0.00    -0.343 N 
HETATM    5  H   UNL     1     -39.868 -45.647  11.503  1.00  0.00     0.172 HD
HETATM    6  H   UNL     1     -41.775 -48.293  10.494  1.00  0.00     0.164 HD
ENDROOT
BRANCH   1   7
HETATM    7  C   UNL     1     -39.948 -47.687  11.907  1.00  0.00     0.109 A 
HETATM    8  C   UNL     1     -40.615 -48.108  13.047  1.00  0.00     0.049 A 
HETATM    9  C   UNL     1     -40.183 -49.273  13.675  1.00  0.00     0.006 A 
HETATM   10  C   UNL     1     -39.126 -49.997  13.133  1.00  0.00     0.025 A 
HETATM   11  C   UNL     1     -38.528 -49.531  11.971  1.00  0.00     0.007 A 
HETATM   12  C   UNL     1     -37.384 -50.253  11.328  1.00  0.00     0.068 C 
HETATM   13  N   UNL     1     -38.918 -48.383  11.373  1.00  0.00    -0.346 N 
ATOM     14  HN  UNL     1     -38.445 -48.048  10.534  1.00  0.00     0.167 HD
ENDBRANCH   1   7
BRANCH   4  15
HETATM   15  C   UNL     1     -43.075 -47.498   9.019  1.00  0.00     0.125 C 
BRANCH  15  16
HETATM   16  C   UNL     1     -44.423 -47.565   9.735  1.00  0.00     0.024 C 
BRANCH  16  17
HETATM   17  C   UNL     1     -45.552 -47.624   8.747  1.00  0.00    -0.013 A 
HETATM   18  C   UNL     1     -46.925 -47.124   9.117  1.00  0.00     0.005 A 
HETATM   19  C   UNL     1     -46.687 -48.597   8.939  1.00  0.00     0.005 A 
ENDBRANCH  16  17
ENDBRANCH  15  16
ENDBRANCH   4  15
TORSDOF 4
ENDMDL
MODEL 2
REMARK VINA RESULT:      -5.7      4.714      6.411
REMARK  4 active torsions:
REMARK  status: ('A' for Active; 'I' for Inactive)
REMARK    1  A    between atoms: C_6  and  N_7 
REMARK       I    between atoms: N_7  and  C_8 
REMARK       I    between atoms: C_8  and  N_10 
REMARK    2  A    between atoms: N_10  and  C_11 
REMARK    3  A    between atoms: C_11  and  C_12 
REMARK    4  A    between atoms: C_12  and  C_13 
ROOT
HETATM    1  N   UNL     1     -42.865 -53.111  12.602  1.00  0.00    -0.295 N 
HETATM    2  C   UNL     1     -41.736 -52.480  12.163  1.00  0.00     0.321 C 
HETATM    3  O   UNL     1     -40.709 -53.124  11.978  1.00  0.00    -0.247 OA
HETATM    4  N   UNL     1     -41.861 -51.155  11.887  1.00  0.00    -0.343 N 
HETATM    5  H   UNL     1     -42.768 -54.114  12.649  1.00  0.00     0.172 HD
HETATM    6  H   UNL     1     -42.676 -50.718  12.314  1.00  0.00     0.164 HD
ENDROOT
BRANCH   1   7
HETATM    7  C   UNL     1     -44.085 -52.534  12.964  1.00  0.00     0.109 A 
HETATM    8  C   UNL     1     -44.226 -52.043  14.253  1.00  0.00     0.049 A 
HETATM    9  C   UNL     1     -45.452 -51.495  14.622  1.00  0.00     0.006 A 
HETATM   10  C   UNL     1     -46.483 -51.423  13.690  1.00  0.00     0.025 A 
HETATM   11  C   UNL     1     -46.257 -51.907  12.410  1.00  0.00     0.007 A 
HETATM   12  C   UNL     1     -47.317 -51.867  11.353  1.00  0.00     0.068 C 
HETATM   13  N   UNL     1     -45.082 -52.471  12.053  1.00  0.00    -0.346 N 
ATOM     14  HN  UNL     1     -44.950 -52.843  11.112  1.00  0.00     0.167 HD
ENDBRANCH   1   7
BRANCH   4  15
HETATM   15  C   UNL     1     -40.776 -50.305  11.470  1.00  0.00     0.125 C 
BRANCH  15  16
HETATM   16  C   UNL     1     -41.164 -48.829  11.383  1.00  0.00     0.024 C 
BRANCH  16  17
HETATM   17  C   UNL     1     -42.589 -48.624  11.809  1.00  0.00    -0.013 A 
HETATM   18  C   UNL     1     -43.496 -47.700  11.038  1.00  0.00     0.005 A 
HETATM   19  C   UNL     1     -43.026 -47.314  12.412  1.00  0.00     0.005 A 
ENDBRANCH  16  17
ENDBRANCH  15  16
ENDBRANCH   4  15
TORSDOF 4
ENDMDL
MODEL 3
REMARK VINA RESULT:      -5.7      4.684      7.480
REMARK  4 active torsions:
REMARK  status: ('A' for Active; 'I' for Inactive)
REMARK    1  A    between atoms: C_6  and  N_7 
REMARK       I    between atoms: N_7  and  C_8 
REMARK       I    between atoms: C_8  and  N_10 
REMARK    2  A    between atoms: N_10  and  C_11 
REMARK    3  A    between atoms: C_11  and  C_12 
REMARK    4  A    between atoms: C_12  and  C_13 
ROOT
HETATM    1  N   UNL     1     -42.972 -53.180  12.568  1.00  0.00    -0.295 N 
HETATM    2  C   UNL     1     -41.836 -52.542  12.157  1.00  0.00     0.321 C 
HETATM    3  O   UNL     1     -40.813 -53.187  11.952  1.00  0.00    -0.247 OA
HETATM    4  N   UNL     1     -41.951 -51.207  11.927  1.00  0.00    -0.343 N 
HETATM    5  H   UNL     1     -42.883 -54.185  12.581  1.00  0.00     0.172 HD
HETATM    6  H   UNL     1     -42.764 -50.780  12.367  1.00  0.00     0.164 HD
ENDROOT
BRANCH   1   7
HETATM    7  C   UNL     1     -44.189 -52.607  12.947  1.00  0.00     0.109 A 
HETATM    8  C   UNL     1     -44.346 -52.198  14.262  1.00  0.00     0.049 A 
HETATM    9  C   UNL     1     -45.569 -51.654  14.645  1.00  0.00     0.006 A 
HETATM   10  C   UNL     1     -46.582 -51.505  13.703  1.00  0.00     0.025 A 
HETATM   11  C   UNL     1     -46.340 -51.909  12.397  1.00  0.00     0.007 A 
HETATM   12  C   UNL     1     -47.381 -51.783  11.327  1.00  0.00     0.068 C 
HETATM   13  N   UNL     1     -45.168 -52.469  12.024  1.00  0.00    -0.346 N 
ATOM     14  HN  UNL     1     -45.024 -52.781  11.064  1.00  0.00     0.167 HD
ENDBRANCH   1   7
BRANCH   4  15
HETATM   15  C   UNL     1     -40.857 -50.351  11.545  1.00  0.00     0.125 C 
BRANCH  15  16
HETATM   16  C   UNL     1     -40.102 -49.768  12.738  1.00  0.00     0.024 C 
BRANCH  16  17
HETATM   17  C   UNL     1     -38.667 -50.209  12.733  1.00  0.00    -0.013 A 
HETATM   18  C   UNL     1     -37.568 -49.256  13.128  1.00  0.00     0.005 A 
HETATM   19  C   UNL     1     -37.710 -49.686  11.695  1.00  0.00     0.005 A 
ENDBRANCH  16  17
ENDBRANCH  15  16
ENDBRANCH   4  15
TORSDOF 4
ENDMDL
MODEL 4
REMARK VINA RESULT:      -5.6      3.938      5.164
REMARK  4 active torsions:
REMARK  status: ('A' for Active; 'I' for Inactive)
REMARK    1  A    between atoms: C_6  and  N_7 
REMARK       I    between atoms: N_7  and  C_8 
REMARK       I    between atoms: C_8  and  N_10 
REMARK    2  A    between atoms: N_10  and  C_11 
REMARK    3  A    between atoms: C_11  and  C_12 
REMARK    4  A    between atoms: C_12  and  C_13 
ROOT
HETATM    1  N   UNL     1     -40.282 -50.795  11.409  1.00  0.00    -0.295 N 
HETATM    2  C   UNL     1     -41.103 -51.799  11.840  1.00  0.00     0.321 C 
HETATM    3  O   UNL     1     -40.698 -52.957  11.852  1.00  0.00    -0.247 OA
HETATM    4  N   UNL     1     -42.321 -51.416  12.308  1.00  0.00    -0.343 N 
HETATM    5  H   UNL     1     -39.342 -51.105  11.213  1.00  0.00     0.172 HD
HETATM    6  H   UNL     1     -42.603 -50.483  12.012  1.00  0.00     0.164 HD
ENDROOT
BRANCH   1   7
HETATM    7  C   UNL     1     -40.599 -49.447  11.228  1.00  0.00     0.109 A 
HETATM    8  C   UNL     1     -39.809 -48.493  11.852  1.00  0.00     0.049 A 
HETATM    9  C   UNL     1     -40.144 -47.151  11.696  1.00  0.00     0.006 A 
HETATM   10  C   UNL     1     -41.231 -46.799  10.901  1.00  0.00     0.025 A 
HETATM   11  C   UNL     1     -41.955 -47.808  10.283  1.00  0.00     0.007 A 
HETATM   12  C   UNL     1     -43.138 -47.511   9.413  1.00  0.00     0.068 C 
HETATM   13  N   UNL     1     -41.658 -49.115  10.455  1.00  0.00    -0.346 N 
ATOM     14  HN  UNL     1     -42.223 -49.839  10.011  1.00  0.00     0.167 HD
ENDBRANCH   1   7
BRANCH   4  15
HETATM   15  C   UNL     1     -43.344 -52.326  12.753  1.00  0.00     0.125 C 
BRANCH  15  16
HETATM   16  C   UNL     1     -44.002 -51.900  14.065  1.00  0.00     0.024 C 
BRANCH  16  17
HETATM   17  C   UNL     1     -45.238 -51.087  13.806  1.00  0.00    -0.013 A 
HETATM   18  C   UNL     1     -46.556 -51.472  14.428  1.00  0.00     0.005 A 
HETATM   19  C   UNL     1     -46.348 -51.635  12.948  1.00  0.00     0.005 A 
ENDBRANCH  16  17
ENDBRANCH  15  16
ENDBRANCH   4  15
TORSDOF 4
ENDMDL
MODEL 5
REMARK VINA RESULT:      -5.6      3.509      5.831
REMARK  4 active torsions:
REMARK  status: ('A' for Active; 'I' for Inactive)
REMARK    1  A    between atoms: C_6  and  N_7 
REMARK       I    between atoms: N_7  and  C_8 
REMARK       I    between atoms: C_8  and  N_10 
REMARK    2  A    between atoms: N_10  and  C_11 
REMARK    3  A    between atoms: C_11  and  C_12 
REMARK    4  A    between atoms: C_12  and  C_13 
ROOT
HETATM    1  N   UNL     1     -40.322 -48.761  11.087  1.00  0.00    -0.295 N 
HETATM    2  C   UNL     1     -40.089 -50.051  11.473  1.00  0.00     0.321 C 
HETATM    3  O   UNL     1     -38.941 -50.424  11.693  1.00  0.00    -0.247 OA
HETATM    4  N   UNL     1     -41.189 -50.827  11.661  1.00  0.00    -0.343 N 
HETATM    5  H   UNL     1     -39.495 -48.183  11.106  1.00  0.00     0.172 HD
HETATM    6  H   UNL     1     -42.030 -50.468  11.212  1.00  0.00     0.164 HD
ENDROOT
BRANCH   1   7
HETATM    7  C   UNL     1     -41.536 -48.189  10.697  1.00  0.00     0.109 A 
HETATM    8  C   UNL     1     -42.296 -47.535  11.654  1.00  0.00     0.049 A 
HETATM    9  C   UNL     1     -43.519 -46.992  11.270  1.00  0.00     0.006 A 
HETATM   10  C   UNL     1     -43.930 -47.087   9.944  1.00  0.00     0.025 A 
HETATM   11  C   UNL     1     -43.101 -47.730   9.036  1.00  0.00     0.007 A 
HETATM   12  C   UNL     1     -43.474 -47.875   7.593  1.00  0.00     0.068 C 
HETATM   13  N   UNL     1     -41.928 -48.290   9.406  1.00  0.00    -0.346 N 
ATOM     14  HN  UNL     1     -41.348 -48.779   8.724  1.00  0.00     0.167 HD
ENDBRANCH   1   7
BRANCH   4  15
HETATM   15  C   UNL     1     -41.149 -52.223  12.012  1.00  0.00     0.125 C 
BRANCH  15  16
HETATM   16  C   UNL     1     -41.973 -52.556  13.255  1.00  0.00     0.024 C 
BRANCH  16  17
HETATM   17  C   UNL     1     -42.608 -53.911  13.131  1.00  0.00    -0.013 A 
HETATM   18  C   UNL     1     -44.107 -54.064  13.168  1.00  0.00     0.005 A 
HETATM   19  C   UNL     1     -43.273 -54.556  14.318  1.00  0.00     0.005 A 
ENDBRANCH  16  17
ENDBRANCH  15  16
ENDBRANCH   4  15
TORSDOF 4
ENDMDL
MODEL 6
REMARK VINA RESULT:      -5.3      3.984      5.227
REMARK  4 active torsions:
REMARK  status: ('A' for Active; 'I' for Inactive)
REMARK    1  A    between atoms: C_6  and  N_7 
REMARK       I    between atoms: N_7  and  C_8 
REMARK       I    between atoms: C_8  and  N_10 
REMARK    2  A    between atoms: N_10  and  C_11 
REMARK    3  A    between atoms: C_11  and  C_12 
REMARK    4  A    between atoms: C_12  and  C_13 
ROOT
HETATM    1  N   UNL     1     -42.182 -51.370  12.858  1.00  0.00    -0.295 N 
HETATM    2  C   UNL     1     -41.566 -50.457  12.049  1.00  0.00     0.321 C 
HETATM    3  O   UNL     1     -40.378 -50.586  11.777  1.00  0.00    -0.247 OA
HETATM    4  N   UNL     1     -42.363 -49.484  11.532  1.00  0.00    -0.343 N 
HETATM    5  H   UNL     1     -41.593 -52.153  13.096  1.00  0.00     0.172 HD
HETATM    6  H   UNL     1     -43.242 -49.361  12.031  1.00  0.00     0.164 HD
ENDROOT
BRANCH   1   7
HETATM    7  C   UNL     1     -43.487 -51.332  13.357  1.00  0.00     0.109 A 
HETATM    8  C   UNL     1     -43.675 -50.997  14.689  1.00  0.00     0.049 A 
HETATM    9  C   UNL     1     -44.974 -50.988  15.192  1.00  0.00     0.006 A 
HETATM   10  C   UNL     1     -46.041 -51.281  14.349  1.00  0.00     0.025 A 
HETATM   11  C   UNL     1     -45.777 -51.576  13.020  1.00  0.00     0.007 A 
HETATM   12  C   UNL     1     -46.872 -51.903  12.052  1.00  0.00     0.068 C 
HETATM   13  N   UNL     1     -44.518 -51.620  12.530  1.00  0.00    -0.346 N 
ATOM     14  HN  UNL     1     -44.348 -51.866  11.555  1.00  0.00     0.167 HD
ENDBRANCH   1   7
BRANCH   4  15
HETATM   15  C   UNL     1     -41.892 -48.401  10.707  1.00  0.00     0.125 C 
BRANCH  15  16
HETATM   16  C   UNL     1     -42.876 -47.234  10.625  1.00  0.00     0.024 C 
BRANCH  16  17
HETATM   17  C   UNL     1     -43.513 -47.164   9.268  1.00  0.00    -0.013 A 
HETATM   18  C   UNL     1     -44.343 -45.971   8.868  1.00  0.00     0.005 A 
HETATM   19  C   UNL     1     -45.006 -47.298   9.115  1.00  0.00     0.005 A 
ENDBRANCH  16  17
ENDBRANCH  15  16
ENDBRANCH   4  15
TORSDOF 4
ENDMDL
MODEL 7
REMARK VINA RESULT:      -5.1      5.895      8.840
REMARK  4 active torsions:
REMARK  status: ('A' for Active; 'I' for Inactive)
REMARK    1  A    between atoms: C_6  and  N_7 
REMARK       I    between atoms: N_7  and  C_8 
REMARK       I    between atoms: C_8  and  N_10 
REMARK    2  A    between atoms: N_10  and  C_11 
REMARK    3  A    between atoms: C_11  and  C_12 
REMARK    4  A    between atoms: C_12  and  C_13 
ROOT
HETATM    1  N   UNL     1     -42.749 -52.642  11.794  1.00  0.00    -0.295 N 
HETATM    2  C   UNL     1     -41.446 -52.577  12.199  1.00  0.00     0.321 C 
HETATM    3  O   UNL     1     -40.566 -52.314  11.387  1.00  0.00    -0.247 OA
HETATM    4  N   UNL     1     -41.225 -52.742  13.531  1.00  0.00    -0.343 N 
HETATM    5  H   UNL     1     -42.882 -52.366  10.833  1.00  0.00     0.172 HD
HETATM    6  H   UNL     1     -41.996 -53.189  14.025  1.00  0.00     0.164 HD
ENDROOT
BRANCH   1   7
HETATM    7  C   UNL     1     -43.863 -53.025  12.545  1.00  0.00     0.109 A 
HETATM    8  C   UNL     1     -44.039 -54.371  12.825  1.00  0.00     0.049 A 
HETATM    9  C   UNL     1     -45.166 -54.755  13.548  1.00  0.00     0.006 A 
HETATM   10  C   UNL     1     -46.060 -53.788  13.996  1.00  0.00     0.025 A 
HETATM   11  C   UNL     1     -45.800 -52.457  13.704  1.00  0.00     0.007 A 
HETATM   12  C   UNL     1     -46.715 -51.358  14.149  1.00  0.00     0.068 C 
HETATM   13  N   UNL     1     -44.727 -52.078  12.974  1.00  0.00    -0.346 N 
ATOM     14  HN  UNL     1     -44.573 -51.095  12.751  1.00  0.00     0.167 HD
ENDBRANCH   1   7
BRANCH   4  15
HETATM   15  C   UNL     1     -39.922 -52.765  14.142  1.00  0.00     0.125 C 
BRANCH  15  16
HETATM   16  C   UNL     1     -39.342 -54.172  14.276  1.00  0.00     0.024 C 
BRANCH  16  17
HETATM   17  C   UNL     1     -39.016 -54.484  15.708  1.00  0.00    -0.013 A 
HETATM   18  C   UNL     1     -38.185 -55.691  16.062  1.00  0.00     0.005 A 
HETATM   19  C   UNL     1     -39.650 -55.664  16.398  1.00  0.00     0.005 A 
ENDBRANCH  16  17
ENDBRANCH  15  16
ENDBRANCH   4  15
TORSDOF 4
ENDMDL
MODEL 8
REMARK VINA RESULT:      -5.1      6.976      7.784
REMARK  4 active torsions:
REMARK  status: ('A' for Active; 'I' for Inactive)
REMARK    1  A    between atoms: C_6  and  N_7 
REMARK       I    between atoms: N_7  and  C_8 
REMARK       I    between atoms: C_8  and  N_10 
REMARK    2  A    between atoms: N_10  and  C_11 
REMARK    3  A    between atoms: C_11  and  C_12 
REMARK    4  A    between atoms: C_12  and  C_13 
ROOT
HETATM    1  N   UNL     1     -43.849 -54.376  13.109  1.00  0.00    -0.295 N 
HETATM    2  C   UNL     1     -44.712 -53.320  13.024  1.00  0.00     0.321 C 
HETATM    3  O   UNL     1     -45.549 -53.286  12.128  1.00  0.00    -0.247 OA
HETATM    4  N   UNL     1     -44.622 -52.392  14.014  1.00  0.00    -0.343 N 
HETATM    5  H   UNL     1     -44.050 -55.109  12.446  1.00  0.00     0.172 HD
HETATM    6  H   UNL     1     -43.743 -52.422  14.529  1.00  0.00     0.164 HD
ENDROOT
BRANCH   1   7
HETATM    7  C   UNL     1     -42.775 -54.536  13.987  1.00  0.00     0.109 A 
HETATM    8  C   UNL     1     -41.541 -54.019  13.623  1.00  0.00     0.049 A 
HETATM    9  C   UNL     1     -40.464 -54.206  14.486  1.00  0.00     0.006 A 
HETATM   10  C   UNL     1     -40.655 -54.870  15.694  1.00  0.00     0.025 A 
HETATM   11  C   UNL     1     -41.926 -55.332  16.004  1.00  0.00     0.007 A 
HETATM   12  C   UNL     1     -42.211 -56.058  17.282  1.00  0.00     0.068 C 
HETATM   13  N   UNL     1     -42.970 -55.185  15.158  1.00  0.00    -0.346 N 
ATOM     14  HN  UNL     1     -43.889 -55.558  15.398  1.00  0.00     0.167 HD
ENDBRANCH   1   7
BRANCH   4  15
HETATM   15  C   UNL     1     -45.402 -51.183  14.069  1.00  0.00     0.125 C 
BRANCH  15  16
HETATM   16  C   UNL     1     -46.839 -51.414  14.535  1.00  0.00     0.024 C 
BRANCH  16  17
HETATM   17  C   UNL     1     -46.879 -51.787  15.988  1.00  0.00    -0.013 A 
HETATM   18  C   UNL     1     -47.904 -51.179  16.911  1.00  0.00     0.005 A 
HETATM   19  C   UNL     1     -46.456 -50.799  17.044  1.00  0.00     0.005 A 
ENDBRANCH  16  17
ENDBRANCH  15  16
ENDBRANCH   4  15
TORSDOF 4
ENDMDL
MODEL 9
REMARK VINA RESULT:      -5.0      2.457      4.250
REMARK  4 active torsions:
REMARK  status: ('A' for Active; 'I' for Inactive)
REMARK    1  A    between atoms: C_6  and  N_7 
REMARK       I    between atoms: N_7  and  C_8 
REMARK       I    between atoms: C_8  and  N_10 
REMARK    2  A    between atoms: N_10  and  C_11 
REMARK    3  A    between atoms: C_11  and  C_12 
REMARK    4  A    between atoms: C_12  and  C_13 
ROOT
HETATM    1  N   UNL     1     -41.722 -49.212  10.754  1.00  0.00    -0.295 N 
HETATM    2  C   UNL     1     -42.073 -47.971  10.303  1.00  0.00     0.321 C 
HETATM    3  O   UNL     1     -43.052 -47.839   9.576  1.00  0.00    -0.247 OA
HETATM    4  N   UNL     1     -41.329 -46.933  10.770  1.00  0.00    -0.343 N 
HETATM    5  H   UNL     1     -42.387 -49.929  10.505  1.00  0.00     0.172 HD
HETATM    6  H   UNL     1     -40.426 -47.210  11.152  1.00  0.00     0.164 HD
ENDROOT
BRANCH   1   7
HETATM    7  C   UNL     1     -40.594 -49.567  11.497  1.00  0.00     0.109 A 
HETATM    8  C   UNL     1     -40.736 -49.766  12.861  1.00  0.00     0.049 A 
HETATM    9  C   UNL     1     -39.604 -50.090  13.605  1.00  0.00     0.006 A 
HETATM   10  C   UNL     1     -38.378 -50.238  12.965  1.00  0.00     0.025 A 
HETATM   11  C   UNL     1     -38.319 -50.054  11.591  1.00  0.00     0.007 A 
HETATM   12  C   UNL     1     -37.036 -50.193  10.830  1.00  0.00     0.068 C 
HETATM   13  N   UNL     1     -39.405 -49.706  10.866  1.00  0.00    -0.346 N 
ATOM     14  HN  UNL     1     -39.330 -49.551   9.860  1.00  0.00     0.167 HD
ENDBRANCH   1   7
BRANCH   4  15
HETATM   15  C   UNL     1     -41.506 -45.561  10.369  1.00  0.00     0.125 C 
BRANCH  15  16
HETATM   16  C   UNL     1     -40.991 -44.560  11.403  1.00  0.00     0.024 C 
BRANCH  16  17
HETATM   17  C   UNL     1     -39.823 -45.123  12.160  1.00  0.00    -0.013 A 
HETATM   18  C   UNL     1     -39.783 -45.065  13.666  1.00  0.00     0.005 A 
HETATM   19  C   UNL     1     -38.850 -44.208  12.857  1.00  0.00     0.005 A 
ENDBRANCH  16  17
ENDBRANCH  15  16
ENDBRANCH   4  15
TORSDOF 4
ENDMDL
