MODEL 1
REMARK VINA RESULT:      -6.5      0.000      0.000
REMARK  6 active torsions:
REMARK  status: ('A' for Active; 'I' for Inactive)
REMARK    1  A    between atoms: C_7  and  O_8 
REMARK    2  A    between atoms: O_8  and  C_9 
REMARK    3  A    between atoms: C_9  and  C_10 
REMARK       I    between atoms: C_10  and  N_12 
REMARK    4  A    between atoms: N_12  and  C_13 
REMARK    5  A    between atoms: C_19  and  O_20 
REMARK    6  A    between atoms: O_20  and  C_21 
ROOT
HETATM    1  C   UNL     1     -41.517 -50.106  12.212  1.00  0.00     0.247 C 
HETATM    2  O   UNL     1     -41.157 -49.561  13.254  1.00  0.00    -0.271 OA
HETATM    3  N   UNL     1     -41.652 -49.510  10.974  1.00  0.00    -0.309 N 
HETATM    4  H   UNL     1     -41.709 -50.116  10.172  1.00  0.00     0.170 HD
ENDROOT
BRANCH   3   5
HETATM    5  C   UNL     1     -41.472 -48.136  10.789  1.00  0.00     0.142 A 
HETATM    6  N   UNL     1     -40.275 -47.640  11.187  1.00  0.00    -0.350 N 
HETATM    7  C   UNL     1     -40.027 -46.330  10.988  1.00  0.00     0.090 A 
ATOM      8  HN  UNL     1     -39.580 -48.243  11.627  1.00  0.00     0.166 HD
HETATM    9  C   UNL     1     -40.914 -45.475  10.368  1.00  0.00     0.020 A 
HETATM   10  C   UNL     1     -42.141 -45.990   9.972  1.00  0.00     0.042 A 
HETATM   11  C   UNL     1     -42.465 -47.330  10.219  1.00  0.00     0.119 A 
BRANCH  11  12
HETATM   12  O   UNL     1     -43.693 -47.671   9.729  1.00  0.00    -0.286 OA
BRANCH  12  13
HETATM   13  C   UNL     1     -43.930 -47.583   8.338  1.00  0.00     0.505 C 
HETATM   14  F   UNL     1     -42.990 -48.274   7.647  1.00  0.00    -0.184 F 
HETATM   15  F   UNL     1     -45.119 -48.186   8.091  1.00  0.00    -0.184 F 
ENDBRANCH  12  13
ENDBRANCH  11  12
ENDBRANCH   3   5
BRANCH   1  16
HETATM   16  C   UNL     1     -41.742 -51.616  12.143  1.00  0.00     0.271 C 
BRANCH  16  17
HETATM   17  O   UNL     1     -42.404 -52.158  13.281  1.00  0.00    -0.376 OA
BRANCH  17  18
HETATM   18  C   UNL     1     -43.789 -52.483  13.092  1.00  0.00     0.125 C 
HETATM   19  C   UNL     1     -44.630 -51.236  13.469  1.00  0.00     0.011 C 
HETATM   20  C   UNL     1     -44.337 -50.712  14.881  1.00  0.00     0.012 C 
HETATM   21  C   UNL     1     -46.130 -51.523  13.288  1.00  0.00     0.007 C 
HETATM   22  C   UNL     1     -46.590 -52.769  14.045  1.00  0.00     0.001 C 
HETATM   23  C   UNL     1     -45.739 -53.985  13.703  1.00  0.00     0.002 C 
HETATM   24  C   UNL     1     -44.245 -53.718  13.879  1.00  0.00     0.032 C 
ENDBRANCH  17  18
ENDBRANCH  16  17
ENDBRANCH   1  16
TORSDOF 6
ENDMDL
MODEL 2
REMARK VINA RESULT:      -6.2      2.672      6.792
REMARK  6 active torsions:
REMARK  status: ('A' for Active; 'I' for Inactive)
REMARK    1  A    between atoms: C_7  and  O_8 
REMARK    2  A    between atoms: O_8  and  C_9 
REMARK    3  A    between atoms: C_9  and  C_10 
REMARK       I    between atoms: C_10  and  N_12 
REMARK    4  A    between atoms: N_12  and  C_13 
REMARK    5  A    between atoms: C_19  and  O_20 
REMARK    6  A    between atoms: O_20  and  C_21 
ROOT
HETATM    1  C   UNL     1     -41.340 -52.079  12.059  1.00  0.00     0.247 C 
HETATM    2  O   UNL     1     -40.567 -53.034  12.116  1.00  0.00    -0.271 OA
HETATM    3  N   UNL     1     -42.619 -52.022  12.577  1.00  0.00    -0.309 N 
HETATM    4  H   UNL     1     -43.037 -51.111  12.678  1.00  0.00     0.170 HD
ENDROOT
BRANCH   3   5
HETATM    5  C   UNL     1     -43.231 -53.132  13.167  1.00  0.00     0.142 A 
HETATM    6  N   UNL     1     -42.487 -53.794  14.086  1.00  0.00    -0.350 N 
HETATM    7  C   UNL     1     -43.043 -54.843  14.724  1.00  0.00     0.090 A 
ATOM      8  HN  UNL     1     -41.530 -53.506  14.289  1.00  0.00     0.166 HD
HETATM    9  C   UNL     1     -44.343 -55.257  14.514  1.00  0.00     0.020 A 
HETATM   10  C   UNL     1     -45.094 -54.578  13.564  1.00  0.00     0.042 A 
HETATM   11  C   UNL     1     -44.533 -53.524  12.832  1.00  0.00     0.119 A 
BRANCH  11  12
HETATM   12  O   UNL     1     -45.426 -52.950  11.973  1.00  0.00    -0.286 OA
BRANCH  12  13
HETATM   13  C   UNL     1     -46.451 -52.127  12.490  1.00  0.00     0.505 C 
HETATM   14  F   UNL     1     -45.927 -51.059  13.141  1.00  0.00    -0.184 F 
HETATM   15  F   UNL     1     -47.149 -51.638  11.436  1.00  0.00    -0.184 F 
ENDBRANCH  12  13
ENDBRANCH  11  12
ENDBRANCH   3   5
BRANCH   1  16
HETATM   16  C   UNL     1     -40.896 -50.731  11.492  1.00  0.00     0.271 C 
BRANCH  16  17
HETATM   17  O   UNL     1     -41.814 -49.669  11.729  1.00  0.00    -0.376 OA
BRANCH  17  18
HETATM   18  C   UNL     1     -41.605 -48.488  10.941  1.00  0.00     0.125 C 
HETATM   19  C   UNL     1     -40.529 -47.623  11.648  1.00  0.00     0.011 C 
HETATM   20  C   UNL     1     -40.873 -47.303  13.109  1.00  0.00     0.012 C 
HETATM   21  C   UNL     1     -40.262 -46.337  10.850  1.00  0.00     0.007 C 
HETATM   22  C   UNL     1     -41.536 -45.539  10.568  1.00  0.00     0.001 C 
HETATM   23  C   UNL     1     -42.607 -46.399   9.909  1.00  0.00     0.002 C 
HETATM   24  C   UNL     1     -42.886 -47.682  10.689  1.00  0.00     0.032 C 
ENDBRANCH  17  18
ENDBRANCH  16  17
ENDBRANCH   1  16
TORSDOF 6
ENDMDL
MODEL 3
REMARK VINA RESULT:      -6.1      2.447      3.473
REMARK  6 active torsions:
REMARK  status: ('A' for Active; 'I' for Inactive)
REMARK    1  A    between atoms: C_7  and  O_8 
REMARK    2  A    between atoms: O_8  and  C_9 
REMARK    3  A    between atoms: C_9  and  C_10 
REMARK       I    between atoms: C_10  and  N_12 
REMARK    4  A    between atoms: N_12  and  C_13 
REMARK    5  A    between atoms: C_19  and  O_20 
REMARK    6  A    between atoms: O_20  and  C_21 
ROOT
HETATM    1  C   UNL     1     -41.166 -53.234  12.963  1.00  0.00     0.247 C 
HETATM    2  O   UNL     1     -40.204 -54.000  12.948  1.00  0.00    -0.271 OA
HETATM    3  N   UNL     1     -41.131 -51.863  12.802  1.00  0.00    -0.309 N 
HETATM    4  H   UNL     1     -41.999 -51.399  12.588  1.00  0.00     0.170 HD
ENDROOT
BRANCH   3   5
HETATM    5  C   UNL     1     -39.927 -51.160  12.692  1.00  0.00     0.142 A 
HETATM    6  N   UNL     1     -38.967 -51.494  13.588  1.00  0.00    -0.350 N 
HETATM    7  C   UNL     1     -37.768 -50.885  13.497  1.00  0.00     0.090 A 
ATOM      8  HN  UNL     1     -39.146 -52.189  14.312  1.00  0.00     0.166 HD
HETATM    9  C   UNL     1     -37.456 -49.963  12.519  1.00  0.00     0.020 A 
HETATM   10  C   UNL     1     -38.449 -49.621  11.611  1.00  0.00     0.042 A 
HETATM   11  C   UNL     1     -39.729 -50.182  11.710  1.00  0.00     0.119 A 
BRANCH  11  12
HETATM   12  O   UNL     1     -40.564 -49.761  10.714  1.00  0.00    -0.286 OA
BRANCH  12  13
HETATM   13  C   UNL     1     -41.419 -48.661  10.950  1.00  0.00     0.505 C 
HETATM   14  F   UNL     1     -41.904 -48.171   9.783  1.00  0.00    -0.184 F 
HETATM   15  F   UNL     1     -42.483 -49.119  11.655  1.00  0.00    -0.184 F 
ENDBRANCH  12  13
ENDBRANCH  11  12
ENDBRANCH   3   5
BRANCH   1  16
HETATM   16  C   UNL     1     -42.599 -53.761  13.037  1.00  0.00     0.271 C 
BRANCH  16  17
HETATM   17  O   UNL     1     -43.553 -52.950  12.359  1.00  0.00    -0.376 OA
BRANCH  17  18
HETATM   18  C   UNL     1     -44.880 -52.975  12.903  1.00  0.00     0.125 C 
HETATM   19  C   UNL     1     -45.300 -51.514  13.211  1.00  0.00     0.011 C 
HETATM   20  C   UNL     1     -44.306 -50.775  14.117  1.00  0.00     0.012 C 
HETATM   21  C   UNL     1     -46.719 -51.475  13.801  1.00  0.00     0.007 C 
HETATM   22  C   UNL     1     -46.878 -52.380  15.023  1.00  0.00     0.001 C 
HETATM   23  C   UNL     1     -46.429 -53.806  14.732  1.00  0.00     0.002 C 
HETATM   24  C   UNL     1     -45.020 -53.865  14.145  1.00  0.00     0.032 C 
ENDBRANCH  17  18
ENDBRANCH  16  17
ENDBRANCH   1  16
TORSDOF 6
ENDMDL
MODEL 4
REMARK VINA RESULT:      -5.8      1.884      2.578
REMARK  6 active torsions:
REMARK  status: ('A' for Active; 'I' for Inactive)
REMARK    1  A    between atoms: C_7  and  O_8 
REMARK    2  A    between atoms: O_8  and  C_9 
REMARK    3  A    between atoms: C_9  and  C_10 
REMARK       I    between atoms: C_10  and  N_12 
REMARK    4  A    between atoms: N_12  and  C_13 
REMARK    5  A    between atoms: C_19  and  O_20 
REMARK    6  A    between atoms: O_20  and  C_21 
ROOT
HETATM    1  C   UNL     1     -42.399 -48.906  12.639  1.00  0.00     0.247 C 
HETATM    2  O   UNL     1     -41.318 -48.322  12.594  1.00  0.00    -0.271 OA
HETATM    3  N   UNL     1     -43.488 -48.692  11.817  1.00  0.00    -0.309 N 
HETATM    4  H   UNL     1     -44.203 -49.400  11.802  1.00  0.00     0.170 HD
ENDROOT
BRANCH   3   5
HETATM    5  C   UNL     1     -43.504 -47.673  10.859  1.00  0.00     0.142 A 
HETATM    6  N   UNL     1     -42.433 -46.843  10.865  1.00  0.00    -0.350 N 
HETATM    7  C   UNL     1     -42.370 -45.873   9.931  1.00  0.00     0.090 A 
ATOM      8  HN  UNL     1     -41.692 -46.950  11.558  1.00  0.00     0.166 HD
HETATM    9  C   UNL     1     -43.323 -45.702   8.949  1.00  0.00     0.020 A 
HETATM   10  C   UNL     1     -44.422 -46.551   8.956  1.00  0.00     0.042 A 
HETATM   11  C   UNL     1     -44.558 -47.531   9.948  1.00  0.00     0.119 A 
BRANCH  11  12
HETATM   12  O   UNL     1     -45.676 -48.297   9.778  1.00  0.00    -0.286 OA
BRANCH  12  13
HETATM   13  C   UNL     1     -46.483 -48.095   8.636  1.00  0.00     0.505 C 
HETATM   14  F   UNL     1     -46.755 -49.275   8.026  1.00  0.00    -0.184 F 
HETATM   15  F   UNL     1     -47.668 -47.592   9.061  1.00  0.00    -0.184 F 
ENDBRANCH  12  13
ENDBRANCH  11  12
ENDBRANCH   3   5
BRANCH   1  16
HETATM   16  C   UNL     1     -42.623 -50.089  13.581  1.00  0.00     0.271 C 
BRANCH  16  17
HETATM   17  O   UNL     1     -42.759 -51.342  12.919  1.00  0.00    -0.376 OA
BRANCH  17  18
HETATM   18  C   UNL     1     -43.564 -52.314  13.602  1.00  0.00     0.125 C 
HETATM   19  C   UNL     1     -42.620 -53.405  14.171  1.00  0.00     0.011 C 
HETATM   20  C   UNL     1     -41.711 -54.035  13.108  1.00  0.00     0.012 C 
HETATM   21  C   UNL     1     -43.426 -54.481  14.916  1.00  0.00     0.007 C 
HETATM   22  C   UNL     1     -44.539 -55.085  14.059  1.00  0.00     0.001 C 
HETATM   23  C   UNL     1     -45.444 -54.012  13.468  1.00  0.00     0.002 C 
HETATM   24  C   UNL     1     -44.659 -52.934  12.724  1.00  0.00     0.032 C 
ENDBRANCH  17  18
ENDBRANCH  16  17
ENDBRANCH   1  16
TORSDOF 6
ENDMDL
MODEL 5
REMARK VINA RESULT:      -5.8      2.604      3.490
REMARK  6 active torsions:
REMARK  status: ('A' for Active; 'I' for Inactive)
REMARK    1  A    between atoms: C_7  and  O_8 
REMARK    2  A    between atoms: O_8  and  C_9 
REMARK    3  A    between atoms: C_9  and  C_10 
REMARK       I    between atoms: C_10  and  N_12 
REMARK    4  A    between atoms: N_12  and  C_13 
REMARK    5  A    between atoms: C_19  and  O_20 
REMARK    6  A    between atoms: O_20  and  C_21 
ROOT
HETATM    1  C   UNL     1     -42.180 -49.507  11.861  1.00  0.00     0.247 C 
HETATM    2  O   UNL     1     -43.044 -49.068  12.618  1.00  0.00    -0.271 OA
HETATM    3  N   UNL     1     -41.789 -48.963  10.653  1.00  0.00    -0.309 N 
HETATM    4  H   UNL     1     -40.914 -49.277  10.266  1.00  0.00     0.170 HD
ENDROOT
BRANCH   3   5
HETATM    5  C   UNL     1     -42.431 -47.852  10.097  1.00  0.00     0.142 A 
HETATM    6  N   UNL     1     -43.327 -48.120   9.117  1.00  0.00    -0.350 N 
HETATM    7  C   UNL     1     -44.014 -47.092   8.579  1.00  0.00     0.090 A 
ATOM      8  HN  UNL     1     -43.479 -49.076   8.795  1.00  0.00     0.166 HD
HETATM    9  C   UNL     1     -43.876 -45.785   8.998  1.00  0.00     0.020 A 
HETATM   10  C   UNL     1     -42.948 -45.519   9.997  1.00  0.00     0.042 A 
HETATM   11  C   UNL     1     -42.168 -46.549  10.537  1.00  0.00     0.119 A 
BRANCH  11  12
HETATM   12  O   UNL     1     -41.339 -46.112  11.531  1.00  0.00    -0.286 OA
BRANCH  12  13
HETATM   13  C   UNL     1     -39.943 -46.099  11.311  1.00  0.00     0.505 C 
HETATM   14  F   UNL     1     -39.443 -44.849  11.468  1.00  0.00    -0.184 F 
HETATM   15  F   UNL     1     -39.375 -46.872  12.268  1.00  0.00    -0.184 F 
ENDBRANCH  12  13
ENDBRANCH  11  12
ENDBRANCH   3   5
BRANCH   1  16
HETATM   16  C   UNL     1     -41.308 -50.697  12.257  1.00  0.00     0.271 C 
BRANCH  16  17
HETATM   17  O   UNL     1     -41.871 -51.965  11.934  1.00  0.00    -0.376 OA
BRANCH  17  18
HETATM   18  C   UNL     1     -42.700 -52.547  12.950  1.00  0.00     0.125 C 
HETATM   19  C   UNL     1     -41.797 -53.406  13.873  1.00  0.00     0.011 C 
HETATM   20  C   UNL     1     -40.976 -54.455  13.112  1.00  0.00     0.012 C 
HETATM   21  C   UNL     1     -42.632 -54.060  14.986  1.00  0.00     0.007 C 
HETATM   22  C   UNL     1     -43.816 -54.862  14.444  1.00  0.00     0.001 C 
HETATM   23  C   UNL     1     -44.681 -54.030  13.507  1.00  0.00     0.002 C 
HETATM   24  C   UNL     1     -43.868 -53.372  12.394  1.00  0.00     0.032 C 
ENDBRANCH  17  18
ENDBRANCH  16  17
ENDBRANCH   1  16
TORSDOF 6
ENDMDL
MODEL 6
REMARK VINA RESULT:      -5.8      2.631      3.458
REMARK  6 active torsions:
REMARK  status: ('A' for Active; 'I' for Inactive)
REMARK    1  A    between atoms: C_7  and  O_8 
REMARK    2  A    between atoms: O_8  and  C_9 
REMARK    3  A    between atoms: C_9  and  C_10 
REMARK       I    between atoms: C_10  and  N_12 
REMARK    4  A    between atoms: N_12  and  C_13 
REMARK    5  A    between atoms: C_19  and  O_20 
REMARK    6  A    between atoms: O_20  and  C_21 
ROOT
HETATM    1  C   UNL     1     -42.252 -50.261  12.250  1.00  0.00     0.247 C 
HETATM    2  O   UNL     1     -43.089 -49.701  12.956  1.00  0.00    -0.271 OA
HETATM    3  N   UNL     1     -41.545 -49.699  11.205  1.00  0.00    -0.309 N 
HETATM    4  H   UNL     1     -40.726 -50.189  10.884  1.00  0.00     0.170 HD
ENDROOT
BRANCH   3   5
HETATM    5  C   UNL     1     -41.788 -48.395  10.762  1.00  0.00     0.142 A 
HETATM    6  N   UNL     1     -42.950 -48.209  10.091  1.00  0.00    -0.350 N 
HETATM    7  C   UNL     1     -43.262 -46.963   9.683  1.00  0.00     0.090 A 
ATOM      8  HN  UNL     1     -43.574 -48.993   9.899  1.00  0.00     0.166 HD
HETATM    9  C   UNL     1     -42.475 -45.860   9.943  1.00  0.00     0.020 A 
HETATM   10  C   UNL     1     -41.281 -46.062  10.624  1.00  0.00     0.042 A 
HETATM   11  C   UNL     1     -40.889 -47.350  11.008  1.00  0.00     0.119 A 
BRANCH  11  12
HETATM   12  O   UNL     1     -39.710 -47.355  11.698  1.00  0.00    -0.286 OA
BRANCH  12  13
HETATM   13  C   UNL     1     -39.706 -46.978  13.060  1.00  0.00     0.505 C 
HETATM   14  F   UNL     1     -40.543 -47.765  13.779  1.00  0.00    -0.184 F 
HETATM   15  F   UNL     1     -38.456 -47.197  13.537  1.00  0.00    -0.184 F 
ENDBRANCH  12  13
ENDBRANCH  11  12
ENDBRANCH   3   5
BRANCH   1  16
HETATM   16  C   UNL     1     -41.783 -51.683  12.553  1.00  0.00     0.271 C 
BRANCH  16  17
HETATM   17  O   UNL     1     -42.640 -52.700  12.043  1.00  0.00    -0.376 OA
BRANCH  17  18
HETATM   18  C   UNL     1     -43.134 -53.633  13.015  1.00  0.00     0.125 C 
HETATM   19  C   UNL     1     -44.627 -53.907  12.700  1.00  0.00     0.011 C 
HETATM   20  C   UNL     1     -45.476 -52.631  12.625  1.00  0.00     0.012 C 
HETATM   21  C   UNL     1     -45.217 -54.903  13.712  1.00  0.00     0.007 C 
HETATM   22  C   UNL     1     -45.014 -54.463  15.163  1.00  0.00     0.001 C 
HETATM   23  C   UNL     1     -43.553 -54.156  15.461  1.00  0.00     0.002 C 
HETATM   24  C   UNL     1     -42.950 -53.167  14.465  1.00  0.00     0.032 C 
ENDBRANCH  17  18
ENDBRANCH  16  17
ENDBRANCH   1  16
TORSDOF 6
ENDMDL
MODEL 7
REMARK VINA RESULT:      -5.7      3.615      7.705
REMARK  6 active torsions:
REMARK  status: ('A' for Active; 'I' for Inactive)
REMARK    1  A    between atoms: C_7  and  O_8 
REMARK    2  A    between atoms: O_8  and  C_9 
REMARK    3  A    between atoms: C_9  and  C_10 
REMARK       I    between atoms: C_10  and  N_12 
REMARK    4  A    between atoms: N_12  and  C_13 
REMARK    5  A    between atoms: C_19  and  O_20 
REMARK    6  A    between atoms: O_20  and  C_21 
ROOT
HETATM    1  C   UNL     1     -41.400 -49.955  12.157  1.00  0.00     0.247 C 
HETATM    2  O   UNL     1     -41.782 -49.558  13.256  1.00  0.00    -0.271 OA
HETATM    3  N   UNL     1     -41.628 -51.200  11.605  1.00  0.00    -0.309 N 
HETATM    4  H   UNL     1     -41.478 -51.302  10.615  1.00  0.00     0.170 HD
ENDROOT
BRANCH   3   5
HETATM    5  C   UNL     1     -42.270 -52.220  12.315  1.00  0.00     0.142 A 
HETATM    6  N   UNL     1     -43.618 -52.118  12.400  1.00  0.00    -0.350 N 
HETATM    7  C   UNL     1     -44.295 -53.099  13.030  1.00  0.00     0.090 A 
ATOM      8  HN  UNL     1     -44.109 -51.319  11.998  1.00  0.00     0.166 HD
HETATM    9  C   UNL     1     -43.690 -54.218  13.563  1.00  0.00     0.020 A 
HETATM   10  C   UNL     1     -42.307 -54.309  13.479  1.00  0.00     0.042 A 
HETATM   11  C   UNL     1     -41.560 -53.281  12.890  1.00  0.00     0.119 A 
BRANCH  11  12
HETATM   12  O   UNL     1     -40.223 -53.556  12.861  1.00  0.00    -0.286 OA
BRANCH  12  13
HETATM   13  C   UNL     1     -39.602 -54.088  14.014  1.00  0.00     0.505 C 
HETATM   14  F   UNL     1     -38.949 -55.240  13.719  1.00  0.00    -0.184 F 
HETATM   15  F   UNL     1     -38.663 -53.198  14.416  1.00  0.00    -0.184 F 
ENDBRANCH  12  13
ENDBRANCH  11  12
ENDBRANCH   3   5
BRANCH   1  16
HETATM   16  C   UNL     1     -40.703 -49.016  11.173  1.00  0.00     0.271 C 
BRANCH  16  17
HETATM   17  O   UNL     1     -41.311 -47.733  11.062  1.00  0.00    -0.376 OA
BRANCH  17  18
HETATM   18  C   UNL     1     -40.426 -46.616  11.230  1.00  0.00     0.125 C 
HETATM   19  C   UNL     1     -40.282 -46.342  12.749  1.00  0.00     0.011 C 
HETATM   20  C   UNL     1     -41.627 -46.138  13.459  1.00  0.00     0.012 C 
HETATM   21  C   UNL     1     -39.343 -45.150  12.995  1.00  0.00     0.007 C 
HETATM   22  C   UNL     1     -39.766 -43.895  12.229  1.00  0.00     0.001 C 
HETATM   23  C   UNL     1     -39.945 -44.174  10.743  1.00  0.00     0.002 C 
HETATM   24  C   UNL     1     -40.876 -45.356  10.479  1.00  0.00     0.032 C 
ENDBRANCH  17  18
ENDBRANCH  16  17
ENDBRANCH   1  16
TORSDOF 6
ENDMDL
MODEL 8
REMARK VINA RESULT:      -5.6      3.704      5.117
REMARK  6 active torsions:
REMARK  status: ('A' for Active; 'I' for Inactive)
REMARK    1  A    between atoms: C_7  and  O_8 
REMARK    2  A    between atoms: O_8  and  C_9 
REMARK    3  A    between atoms: C_9  and  C_10 
REMARK       I    between atoms: C_10  and  N_12 
REMARK    4  A    between atoms: N_12  and  C_13 
REMARK    5  A    between atoms: C_19  and  O_20 
REMARK    6  A    between atoms: O_20  and  C_21 
ROOT
HETATM    1  C   UNL     1     -42.978 -51.750  12.699  1.00  0.00     0.247 C 
HETATM    2  O   UNL     1     -43.406 -50.894  13.470  1.00  0.00    -0.271 OA
HETATM    3  N   UNL     1     -41.903 -51.622  11.840  1.00  0.00    -0.309 N 
HETATM    4  H   UNL     1     -41.514 -52.468  11.457  1.00  0.00     0.170 HD
ENDROOT
BRANCH   3   5
HETATM    5  C   UNL     1     -41.216 -50.414  11.687  1.00  0.00     0.142 A 
HETATM    6  N   UNL     1     -41.968 -49.352  11.309  1.00  0.00    -0.350 N 
HETATM    7  C   UNL     1     -41.367 -48.151  11.195  1.00  0.00     0.090 A 
ATOM      8  HN  UNL     1     -42.964 -49.460  11.116  1.00  0.00     0.166 HD
HETATM    9  C   UNL     1     -40.033 -47.939  11.476  1.00  0.00     0.020 A 
HETATM   10  C   UNL     1     -39.269 -49.035  11.854  1.00  0.00     0.042 A 
HETATM   11  C   UNL     1     -39.839 -50.312  11.922  1.00  0.00     0.119 A 
BRANCH  11  12
HETATM   12  O   UNL     1     -38.951 -51.260  12.346  1.00  0.00    -0.286 OA
BRANCH  12  13
HETATM   13  C   UNL     1     -37.930 -50.893  13.251  1.00  0.00     0.505 C 
HETATM   14  F   UNL     1     -38.095 -51.520  14.441  1.00  0.00    -0.184 F 
HETATM   15  F   UNL     1     -36.756 -51.334  12.736  1.00  0.00    -0.184 F 
ENDBRANCH  12  13
ENDBRANCH  11  12
ENDBRANCH   3   5
BRANCH   1  16
HETATM   16  C   UNL     1     -43.539 -53.171  12.699  1.00  0.00     0.271 C 
BRANCH  16  17
HETATM   17  O   UNL     1     -42.630 -54.156  13.178  1.00  0.00    -0.376 OA
BRANCH  17  18
HETATM   18  C   UNL     1     -42.295 -54.059  14.570  1.00  0.00     0.125 C 
HETATM   19  C   UNL     1     -40.823 -53.583  14.678  1.00  0.00     0.011 C 
HETATM   20  C   UNL     1     -39.841 -54.467  13.897  1.00  0.00     0.012 C 
HETATM   21  C   UNL     1     -40.402 -53.461  16.151  1.00  0.00     0.007 C 
HETATM   22  C   UNL     1     -40.643 -54.747  16.944  1.00  0.00     0.001 C 
HETATM   23  C   UNL     1     -42.079 -55.235  16.807  1.00  0.00     0.002 C 
HETATM   24  C   UNL     1     -42.514 -55.363  15.349  1.00  0.00     0.032 C 
ENDBRANCH  17  18
ENDBRANCH  16  17
ENDBRANCH   1  16
TORSDOF 6
ENDMDL
MODEL 9
REMARK VINA RESULT:      -5.6      2.973      6.731
REMARK  6 active torsions:
REMARK  status: ('A' for Active; 'I' for Inactive)
REMARK    1  A    between atoms: C_7  and  O_8 
REMARK    2  A    between atoms: O_8  and  C_9 
REMARK    3  A    between atoms: C_9  and  C_10 
REMARK       I    between atoms: C_10  and  N_12 
REMARK    4  A    between atoms: N_12  and  C_13 
REMARK    5  A    between atoms: C_19  and  O_20 
REMARK    6  A    between atoms: O_20  and  C_21 
ROOT
HETATM    1  C   UNL     1     -43.366 -50.292  13.226  1.00  0.00     0.247 C 
HETATM    2  O   UNL     1     -43.740 -50.165  14.390  1.00  0.00    -0.271 OA
HETATM    3  N   UNL     1     -43.310 -51.466  12.500  1.00  0.00    -0.309 N 
HETATM    4  H   UNL     1     -43.226 -51.389  11.500  1.00  0.00     0.170 HD
ENDROOT
BRANCH   3   5
HETATM    5  C   UNL     1     -43.603 -52.707  13.075  1.00  0.00     0.142 A 
HETATM    6  N   UNL     1     -42.662 -53.202  13.916  1.00  0.00    -0.350 N 
HETATM    7  C   UNL     1     -42.912 -54.372  14.538  1.00  0.00     0.090 A 
ATOM      8  HN  UNL     1     -41.787 -52.702  14.074  1.00  0.00     0.166 HD
HETATM    9  C   UNL     1     -44.090 -55.074  14.389  1.00  0.00     0.020 A 
HETATM   10  C   UNL     1     -45.044 -54.563  13.519  1.00  0.00     0.042 A 
HETATM   11  C   UNL     1     -44.797 -53.385  12.803  1.00  0.00     0.119 A 
BRANCH  11  12
HETATM   12  O   UNL     1     -45.857 -53.012  12.027  1.00  0.00    -0.286 OA
BRANCH  12  13
HETATM   13  C   UNL     1     -46.775 -52.059  12.523  1.00  0.00     0.505 C 
HETATM   14  F   UNL     1     -46.545 -51.809  13.836  1.00  0.00    -0.184 F 
HETATM   15  F   UNL     1     -46.554 -50.899  11.859  1.00  0.00    -0.184 F 
ENDBRANCH  12  13
ENDBRANCH  11  12
ENDBRANCH   3   5
BRANCH   1  16
HETATM   16  C   UNL     1     -43.024 -49.076  12.365  1.00  0.00     0.271 C 
BRANCH  16  17
HETATM   17  O   UNL     1     -41.793 -49.191  11.658  1.00  0.00    -0.376 OA
BRANCH  17  18
HETATM   18  C   UNL     1     -40.630 -49.385  12.475  1.00  0.00     0.125 C 
HETATM   19  C   UNL     1     -40.066 -47.989  12.846  1.00  0.00     0.011 C 
HETATM   20  C   UNL     1     -39.785 -47.104  11.625  1.00  0.00     0.012 C 
HETATM   21  C   UNL     1     -38.811 -48.131  13.724  1.00  0.00     0.007 C 
HETATM   22  C   UNL     1     -37.744 -49.025  13.091  1.00  0.00     0.001 C 
HETATM   23  C   UNL     1     -38.307 -50.382  12.691  1.00  0.00     0.002 C 
HETATM   24  C   UNL     1     -39.555 -50.260  11.818  1.00  0.00     0.032 C 
ENDBRANCH  17  18
ENDBRANCH  16  17
ENDBRANCH   1  16
TORSDOF 6
ENDMDL
