MODEL 1
REMARK VINA RESULT:      -7.3      0.000      0.000
REMARK  3 active torsions:
REMARK  status: ('A' for Active; 'I' for Inactive)
REMARK    1  A    between atoms: S_2  and  C_5 
REMARK    2  A    between atoms: C_8  and  N_9 
REMARK       I    between atoms: N_9  and  C_10 
REMARK       I    between atoms: C_10  and  N_12 
REMARK    3  A    between atoms: N_12  and  C_13 
ROOT
HETATM    1  N   UNL     1     -40.798 -50.656  10.987  1.00  0.00    -0.308 N 
HETATM    2  C   UNL     1     -41.233 -51.451  12.022  1.00  0.00     0.321 C 
HETATM    3  O   UNL     1     -41.731 -51.052  13.070  1.00  0.00    -0.247 OA
HETATM    4  N   UNL     1     -41.026 -52.788  11.780  1.00  0.00    -0.336 N 
HETATM    5  H   UNL     1     -40.584 -51.116  10.116  1.00  0.00     0.170 HD
HETATM    6  H   UNL     1     -40.960 -53.095  10.823  1.00  0.00     0.164 HD
ENDROOT
BRANCH   1   7
HETATM    7  C   UNL     1     -40.716 -49.250  11.021  1.00  0.00     0.051 A 
HETATM    8  C   UNL     1     -39.729 -48.552  11.723  1.00  0.00     0.034 A 
HETATM    9  C   UNL     1     -39.686 -47.161  11.682  1.00  0.00     0.044 A 
HETATM   10  C   UNL     1     -40.653 -46.521  10.931  1.00  0.00     0.128 A 
HETATM   11  N   UNL     1     -41.641 -47.139  10.233  1.00  0.00    -0.355 N 
HETATM   12  C   UNL     1     -41.643 -48.489  10.300  1.00  0.00     0.118 A 
ATOM     13  HN  UNL     1     -42.335 -46.619   9.694  1.00  0.00     0.166 HD
BRANCH  10  14
HETATM   14  S   UNL     1     -40.603 -44.752  10.777  1.00  0.00     0.187 S 
HETATM   15  C   UNL     1     -39.937 -44.177  12.312  1.00  0.00     0.168 C 
HETATM   16  O   UNL     1     -41.979 -44.295  10.687  1.00  0.00    -0.222 OA
HETATM   17  O   UNL     1     -39.645 -44.438   9.730  1.00  0.00    -0.222 OA
ENDBRANCH  10  14
ENDBRANCH   1   7
BRANCH   4  18
HETATM   18  C   UNL     1     -41.441 -53.764  12.778  1.00  0.00     0.121 C 
HETATM   19  C   UNL     1     -40.515 -53.780  14.004  1.00  0.00     0.057 C 
HETATM   20  C   UNL     1     -41.444 -53.751  15.221  1.00  0.00     0.275 C 
HETATM   21  N   UNL     1     -42.744 -54.117  14.676  1.00  0.00     0.095 N 
HETATM   22  C   UNL     1     -43.894 -53.769  15.503  1.00  0.00     0.273 C 
HETATM   23  C   UNL     1     -42.814 -53.462  13.367  1.00  0.00     0.245 C 
HETATM   24  C   UNL     1     -45.182 -54.231  14.804  1.00  0.00     0.030 C 
HETATM   25  C   UNL     1     -45.281 -53.730  13.357  1.00  0.00     0.004 C 
HETATM   26  C   UNL     1     -43.995 -54.022  12.583  1.00  0.00     0.038 C 
ENDBRANCH   4  18
TORSDOF 3
ENDMDL
MODEL 2
REMARK VINA RESULT:      -6.9      1.846      2.866
REMARK  3 active torsions:
REMARK  status: ('A' for Active; 'I' for Inactive)
REMARK    1  A    between atoms: S_2  and  C_5 
REMARK    2  A    between atoms: C_8  and  N_9 
REMARK       I    between atoms: N_9  and  C_10 
REMARK       I    between atoms: C_10  and  N_12 
REMARK    3  A    between atoms: N_12  and  C_13 
ROOT
HETATM    1  N   UNL     1     -43.307 -49.175  11.742  1.00  0.00    -0.308 N 
HETATM    2  C   UNL     1     -43.436 -49.828  12.946  1.00  0.00     0.321 C 
HETATM    3  O   UNL     1     -43.065 -49.402  14.035  1.00  0.00    -0.247 OA
HETATM    4  N   UNL     1     -44.018 -51.066  12.812  1.00  0.00    -0.336 N 
HETATM    5  H   UNL     1     -43.817 -49.554  10.960  1.00  0.00     0.170 HD
HETATM    6  H   UNL     1     -44.612 -51.231  12.015  1.00  0.00     0.164 HD
ENDROOT
BRANCH   1   7
HETATM    7  C   UNL     1     -42.593 -47.977  11.540  1.00  0.00     0.051 A 
HETATM    8  C   UNL     1     -43.011 -46.738  12.033  1.00  0.00     0.034 A 
HETATM    9  C   UNL     1     -42.236 -45.600  11.827  1.00  0.00     0.044 A 
HETATM   10  C   UNL     1     -41.059 -45.756  11.121  1.00  0.00     0.128 A 
HETATM   11  N   UNL     1     -40.600 -46.929  10.610  1.00  0.00    -0.355 N 
HETATM   12  C   UNL     1     -41.384 -48.008  10.836  1.00  0.00     0.118 A 
ATOM     13  HN  UNL     1     -39.724 -46.992  10.092  1.00  0.00     0.166 HD
BRANCH  10  14
HETATM   14  S   UNL     1     -39.989 -44.357  10.893  1.00  0.00     0.187 S 
HETATM   15  C   UNL     1     -41.021 -42.944  11.158  1.00  0.00     0.168 C 
HETATM   16  O   UNL     1     -39.581 -44.357   9.500  1.00  0.00    -0.222 OA
HETATM   17  O   UNL     1     -39.002 -44.393  11.959  1.00  0.00    -0.222 OA
ENDBRANCH  10  14
ENDBRANCH   1   7
BRANCH   4  18
HETATM   18  C   UNL     1     -44.234 -51.883  13.998  1.00  0.00     0.121 C 
HETATM   19  C   UNL     1     -45.597 -52.591  13.981  1.00  0.00     0.057 C 
HETATM   20  C   UNL     1     -45.308 -54.048  14.358  1.00  0.00     0.275 C 
HETATM   21  N   UNL     1     -43.970 -54.000  14.932  1.00  0.00     0.095 N 
HETATM   22  C   UNL     1     -43.266 -55.275  14.995  1.00  0.00     0.273 C 
HETATM   23  C   UNL     1     -43.233 -53.026  14.122  1.00  0.00     0.245 C 
HETATM   24  C   UNL     1     -41.886 -55.063  15.636  1.00  0.00     0.030 C 
HETATM   25  C   UNL     1     -41.085 -53.943  14.959  1.00  0.00     0.004 C 
HETATM   26  C   UNL     1     -41.925 -52.673  14.819  1.00  0.00     0.038 C 
ENDBRANCH   4  18
TORSDOF 3
ENDMDL
MODEL 3
REMARK VINA RESULT:      -6.8      3.640      8.454
REMARK  3 active torsions:
REMARK  status: ('A' for Active; 'I' for Inactive)
REMARK    1  A    between atoms: S_2  and  C_5 
REMARK    2  A    between atoms: C_8  and  N_9 
REMARK       I    between atoms: N_9  and  C_10 
REMARK       I    between atoms: C_10  and  N_12 
REMARK    3  A    between atoms: N_12  and  C_13 
ROOT
HETATM    1  N   UNL     1     -42.183 -51.162  12.641  1.00  0.00    -0.308 N 
HETATM    2  C   UNL     1     -41.507 -50.249  11.864  1.00  0.00     0.321 C 
HETATM    3  O   UNL     1     -40.311 -50.283  11.596  1.00  0.00    -0.247 OA
HETATM    4  N   UNL     1     -42.322 -49.234  11.419  1.00  0.00    -0.336 N 
HETATM    5  H   UNL     1     -43.190 -51.118  12.627  1.00  0.00     0.170 HD
HETATM    6  H   UNL     1     -43.311 -49.413  11.348  1.00  0.00     0.164 HD
ENDROOT
BRANCH   1   7
HETATM    7  C   UNL     1     -41.583 -52.202  13.377  1.00  0.00     0.051 A 
HETATM    8  C   UNL     1     -41.220 -53.431  12.821  1.00  0.00     0.034 A 
HETATM    9  C   UNL     1     -40.597 -54.401  13.602  1.00  0.00     0.044 A 
HETATM   10  C   UNL     1     -40.365 -54.092  14.929  1.00  0.00     0.128 A 
HETATM   11  N   UNL     1     -40.699 -52.921  15.532  1.00  0.00    -0.355 N 
HETATM   12  C   UNL     1     -41.301 -52.009  14.735  1.00  0.00     0.118 A 
ATOM     13  HN  UNL     1     -40.510 -52.742  16.517  1.00  0.00     0.166 HD
BRANCH  10  14
HETATM   14  S   UNL     1     -39.504 -55.258  15.956  1.00  0.00     0.187 S 
HETATM   15  C   UNL     1     -38.814 -54.291  17.267  1.00  0.00     0.168 C 
HETATM   16  O   UNL     1     -38.407 -55.789  15.167  1.00  0.00    -0.222 OA
HETATM   17  O   UNL     1     -40.502 -56.142  16.532  1.00  0.00    -0.222 OA
ENDBRANCH  10  14
ENDBRANCH   1   7
BRANCH   4  18
HETATM   18  C   UNL     1     -41.759 -48.190  10.575  1.00  0.00     0.121 C 
HETATM   19  C   UNL     1     -42.766 -47.667   9.539  1.00  0.00     0.057 C 
HETATM   20  C   UNL     1     -42.685 -46.139   9.622  1.00  0.00     0.275 C 
HETATM   21  N   UNL     1     -41.439 -45.895  10.336  1.00  0.00     0.095 N 
HETATM   22  C   UNL     1     -41.302 -44.569  10.928  1.00  0.00     0.273 C 
HETATM   23  C   UNL     1     -41.365 -46.943  11.358  1.00  0.00     0.245 C 
HETATM   24  C   UNL     1     -39.938 -44.462  11.627  1.00  0.00     0.030 C 
HETATM   25  C   UNL     1     -39.687 -45.613  12.612  1.00  0.00     0.004 C 
HETATM   26  C   UNL     1     -39.965 -46.967  11.959  1.00  0.00     0.038 C 
ENDBRANCH   4  18
TORSDOF 3
ENDMDL
MODEL 4
REMARK VINA RESULT:      -6.7      4.580      6.460
REMARK  3 active torsions:
REMARK  status: ('A' for Active; 'I' for Inactive)
REMARK    1  A    between atoms: S_2  and  C_5 
REMARK    2  A    between atoms: C_8  and  N_9 
REMARK       I    between atoms: N_9  and  C_10 
REMARK       I    between atoms: C_10  and  N_12 
REMARK    3  A    between atoms: N_12  and  C_13 
ROOT
HETATM    1  N   UNL     1     -39.032 -48.214  12.190  1.00  0.00    -0.308 N 
HETATM    2  C   UNL     1     -39.057 -48.543  13.526  1.00  0.00     0.321 C 
HETATM    3  O   UNL     1     -40.065 -48.670  14.213  1.00  0.00    -0.247 OA
HETATM    4  N   UNL     1     -37.796 -48.696  14.052  1.00  0.00    -0.336 N 
HETATM    5  H   UNL     1     -38.153 -48.325  11.708  1.00  0.00     0.170 HD
HETATM    6  H   UNL     1     -37.044 -48.935  13.427  1.00  0.00     0.164 HD
ENDROOT
BRANCH   1   7
HETATM    7  C   UNL     1     -40.151 -47.823  11.429  1.00  0.00     0.051 A 
HETATM    8  C   UNL     1     -40.418 -46.498  11.075  1.00  0.00     0.034 A 
HETATM    9  C   UNL     1     -41.524 -46.188  10.288  1.00  0.00     0.044 A 
HETATM   10  C   UNL     1     -42.329 -47.237   9.888  1.00  0.00     0.128 A 
HETATM   11  N   UNL     1     -42.129 -48.544  10.202  1.00  0.00    -0.355 N 
HETATM   12  C   UNL     1     -41.042 -48.798  10.966  1.00  0.00     0.118 A 
ATOM     13  HN  UNL     1     -42.755 -49.283   9.884  1.00  0.00     0.166 HD
BRANCH  10  14
HETATM   14  S   UNL     1     -43.710 -46.915   8.818  1.00  0.00     0.187 S 
HETATM   15  C   UNL     1     -45.124 -47.500   9.706  1.00  0.00     0.168 C 
HETATM   16  O   UNL     1     -43.542 -47.752   7.644  1.00  0.00    -0.222 OA
HETATM   17  O   UNL     1     -43.829 -45.472   8.694  1.00  0.00    -0.222 OA
ENDBRANCH  10  14
ENDBRANCH   1   7
BRANCH   4  18
HETATM   18  C   UNL     1     -37.651 -49.055  15.456  1.00  0.00     0.121 C 
HETATM   19  C   UNL     1     -36.533 -50.083  15.686  1.00  0.00     0.057 C 
HETATM   20  C   UNL     1     -35.711 -49.541  16.859  1.00  0.00     0.275 C 
HETATM   21  N   UNL     1     -36.579 -48.535  17.458  1.00  0.00     0.095 N 
HETATM   22  C   UNL     1     -35.917 -47.566  18.323  1.00  0.00     0.273 C 
HETATM   23  C   UNL     1     -37.243 -47.875  16.330  1.00  0.00     0.245 C 
HETATM   24  C   UNL     1     -36.960 -46.590  18.886  1.00  0.00     0.030 C 
HETATM   25  C   UNL     1     -37.829 -45.956  17.790  1.00  0.00     0.004 C 
HETATM   26  C   UNL     1     -38.393 -47.021  16.849  1.00  0.00     0.038 C 
ENDBRANCH   4  18
TORSDOF 3
ENDMDL
MODEL 5
REMARK VINA RESULT:      -6.5      1.861      2.157
REMARK  3 active torsions:
REMARK  status: ('A' for Active; 'I' for Inactive)
REMARK    1  A    between atoms: S_2  and  C_5 
REMARK    2  A    between atoms: C_8  and  N_9 
REMARK       I    between atoms: N_9  and  C_10 
REMARK       I    between atoms: C_10  and  N_12 
REMARK    3  A    between atoms: N_12  and  C_13 
ROOT
HETATM    1  N   UNL     1     -41.098 -49.229  13.624  1.00  0.00    -0.308 N 
HETATM    2  C   UNL     1     -41.963 -50.219  13.218  1.00  0.00     0.321 C 
HETATM    3  O   UNL     1     -42.601 -50.226  12.170  1.00  0.00    -0.247 OA
HETATM    4  N   UNL     1     -42.076 -51.230  14.143  1.00  0.00    -0.336 N 
HETATM    5  H   UNL     1     -40.504 -49.436  14.412  1.00  0.00     0.170 HD
HETATM    6  H   UNL     1     -41.314 -51.376  14.785  1.00  0.00     0.164 HD
ENDROOT
BRANCH   1   7
HETATM    7  C   UNL     1     -40.917 -47.992  12.975  1.00  0.00     0.051 A 
HETATM    8  C   UNL     1     -40.096 -47.821  11.858  1.00  0.00     0.034 A 
HETATM    9  C   UNL     1     -39.992 -46.575  11.244  1.00  0.00     0.044 A 
HETATM   10  C   UNL     1     -40.725 -45.539  11.789  1.00  0.00     0.128 A 
HETATM   11  N   UNL     1     -41.535 -45.637  12.876  1.00  0.00    -0.355 N 
HETATM   12  C   UNL     1     -41.606 -46.866  13.438  1.00  0.00     0.118 A 
ATOM     13  HN  UNL     1     -42.055 -44.840  13.243  1.00  0.00     0.166 HD
BRANCH  10  14
HETATM   14  S   UNL     1     -40.696 -43.946  11.004  1.00  0.00     0.187 S 
HETATM   15  C   UNL     1     -40.052 -42.843  12.229  1.00  0.00     0.168 C 
HETATM   16  O   UNL     1     -42.076 -43.573  10.749  1.00  0.00    -0.222 OA
HETATM   17  O   UNL     1     -39.731 -44.019   9.920  1.00  0.00    -0.222 OA
ENDBRANCH  10  14
ENDBRANCH   1   7
BRANCH   4  18
HETATM   18  C   UNL     1     -42.948 -52.360  13.857  1.00  0.00     0.121 C 
HETATM   19  C   UNL     1     -42.362 -53.692  14.349  1.00  0.00     0.057 C 
HETATM   20  C   UNL     1     -43.501 -54.392  15.096  1.00  0.00     0.275 C 
HETATM   21  N   UNL     1     -44.694 -53.675  14.663  1.00  0.00     0.095 N 
HETATM   22  C   UNL     1     -45.868 -53.836  15.513  1.00  0.00     0.273 C 
HETATM   23  C   UNL     1     -44.290 -52.269  14.574  1.00  0.00     0.245 C 
HETATM   24  C   UNL     1     -47.038 -53.037  14.920  1.00  0.00     0.030 C 
HETATM   25  C   UNL     1     -46.672 -51.574  14.634  1.00  0.00     0.004 C 
HETATM   26  C   UNL     1     -45.367 -51.479  13.841  1.00  0.00     0.038 C 
ENDBRANCH   4  18
TORSDOF 3
ENDMDL
MODEL 6
REMARK VINA RESULT:      -6.5      2.433      2.845
REMARK  3 active torsions:
REMARK  status: ('A' for Active; 'I' for Inactive)
REMARK    1  A    between atoms: S_2  and  C_5 
REMARK    2  A    between atoms: C_8  and  N_9 
REMARK       I    between atoms: N_9  and  C_10 
REMARK       I    between atoms: C_10  and  N_12 
REMARK    3  A    between atoms: N_12  and  C_13 
ROOT
HETATM    1  N   UNL     1     -41.773 -48.461  13.382  1.00  0.00    -0.308 N 
HETATM    2  C   UNL     1     -42.570 -49.493  12.942  1.00  0.00     0.321 C 
HETATM    3  O   UNL     1     -43.400 -49.422  12.042  1.00  0.00    -0.247 OA
HETATM    4  N   UNL     1     -42.364 -50.653  13.650  1.00  0.00    -0.336 N 
HETATM    5  H   UNL     1     -41.011 -48.702  13.995  1.00  0.00     0.170 HD
HETATM    6  H   UNL     1     -41.475 -50.782  14.107  1.00  0.00     0.164 HD
ENDROOT
BRANCH   1   7
HETATM    7  C   UNL     1     -41.885 -47.117  12.973  1.00  0.00     0.051 A 
HETATM    8  C   UNL     1     -41.038 -46.523  12.035  1.00  0.00     0.034 A 
HETATM    9  C   UNL     1     -41.230 -45.199  11.651  1.00  0.00     0.044 A 
HETATM   10  C   UNL     1     -42.279 -44.517  12.236  1.00  0.00     0.128 A 
HETATM   11  N   UNL     1     -43.135 -45.033  13.157  1.00  0.00    -0.355 N 
HETATM   12  C   UNL     1     -42.910 -46.322  13.499  1.00  0.00     0.118 A 
ATOM     13  HN  UNL     1     -43.894 -44.486  13.563  1.00  0.00     0.166 HD
BRANCH  10  14
HETATM   14  S   UNL     1     -42.624 -42.850  11.729  1.00  0.00     0.187 S 
HETATM   15  C   UNL     1     -41.053 -42.036  11.732  1.00  0.00     0.168 C 
HETATM   16  O   UNL     1     -43.441 -42.250  12.768  1.00  0.00    -0.222 OA
HETATM   17  O   UNL     1     -43.092 -42.907  10.354  1.00  0.00    -0.222 OA
ENDBRANCH  10  14
ENDBRANCH   1   7
BRANCH   4  18
HETATM   18  C   UNL     1     -43.125 -51.844  13.300  1.00  0.00     0.121 C 
HETATM   19  C   UNL     1     -42.310 -53.134  13.477  1.00  0.00     0.057 C 
HETATM   20  C   UNL     1     -43.224 -54.095  14.243  1.00  0.00     0.275 C 
HETATM   21  N   UNL     1     -44.548 -53.504  14.103  1.00  0.00     0.095 N 
HETATM   22  C   UNL     1     -45.546 -53.958  15.064  1.00  0.00     0.273 C 
HETATM   23  C   UNL     1     -44.339 -52.056  14.197  1.00  0.00     0.245 C 
HETATM   24  C   UNL     1     -46.884 -53.260  14.777  1.00  0.00     0.030 C 
HETATM   25  C   UNL     1     -46.749 -51.733  14.693  1.00  0.00     0.004 C 
HETATM   26  C   UNL     1     -45.606 -51.332  13.759  1.00  0.00     0.038 C 
ENDBRANCH   4  18
TORSDOF 3
ENDMDL
MODEL 7
REMARK VINA RESULT:      -6.2      4.801      5.770
REMARK  3 active torsions:
REMARK  status: ('A' for Active; 'I' for Inactive)
REMARK    1  A    between atoms: S_2  and  C_5 
REMARK    2  A    between atoms: C_8  and  N_9 
REMARK       I    between atoms: N_9  and  C_10 
REMARK       I    between atoms: C_10  and  N_12 
REMARK    3  A    between atoms: N_12  and  C_13 
ROOT
HETATM    1  N   UNL     1     -39.750 -51.794  15.150  1.00  0.00    -0.308 N 
HETATM    2  C   UNL     1     -40.876 -51.352  14.496  1.00  0.00     0.321 C 
HETATM    3  O   UNL     1     -41.136 -50.184  14.227  1.00  0.00    -0.247 OA
HETATM    4  N   UNL     1     -41.736 -52.378  14.181  1.00  0.00    -0.336 N 
HETATM    5  H   UNL     1     -39.575 -52.786  15.141  1.00  0.00     0.170 HD
HETATM    6  H   UNL     1     -41.357 -53.306  14.087  1.00  0.00     0.164 HD
ENDROOT
BRANCH   1   7
HETATM    7  C   UNL     1     -38.782 -50.965  15.751  1.00  0.00     0.051 A 
HETATM    8  C   UNL     1     -38.815 -50.592  17.097  1.00  0.00     0.034 A 
HETATM    9  C   UNL     1     -37.803 -49.799  17.633  1.00  0.00     0.044 A 
HETATM   10  C   UNL     1     -36.789 -49.406  16.781  1.00  0.00     0.128 A 
HETATM   11  N   UNL     1     -36.702 -49.728  15.464  1.00  0.00    -0.355 N 
HETATM   12  C   UNL     1     -37.705 -50.500  14.987  1.00  0.00     0.118 A 
ATOM     13  HN  UNL     1     -35.933 -49.410  14.875  1.00  0.00     0.166 HD
BRANCH  10  14
HETATM   14  S   UNL     1     -35.430 -48.460  17.424  1.00  0.00     0.187 S 
HETATM   15  C   UNL     1     -36.180 -47.093  18.262  1.00  0.00     0.168 C 
HETATM   16  O   UNL     1     -34.699 -47.938  16.284  1.00  0.00    -0.222 OA
HETATM   17  O   UNL     1     -34.767 -49.283  18.421  1.00  0.00    -0.222 OA
ENDBRANCH  10  14
ENDBRANCH   1   7
BRANCH   4  18
HETATM   18  C   UNL     1     -42.974 -52.076  13.475  1.00  0.00     0.121 C 
HETATM   19  C   UNL     1     -43.285 -53.100  12.373  1.00  0.00     0.057 C 
HETATM   20  C   UNL     1     -44.757 -53.477  12.567  1.00  0.00     0.275 C 
HETATM   21  N   UNL     1     -45.277 -52.422  13.428  1.00  0.00     0.095 N 
HETATM   22  C   UNL     1     -46.523 -52.730  14.118  1.00  0.00     0.273 C 
HETATM   23  C   UNL     1     -44.200 -52.132  14.379  1.00  0.00     0.245 C 
HETATM   24  C   UNL     1     -46.946 -51.522  14.968  1.00  0.00     0.030 C 
HETATM   25  C   UNL     1     -45.826 -51.030  15.895  1.00  0.00     0.004 C 
HETATM   26  C   UNL     1     -44.518 -50.843  15.126  1.00  0.00     0.038 C 
ENDBRANCH   4  18
TORSDOF 3
ENDMDL
MODEL 8
REMARK VINA RESULT:      -6.2     15.273     15.960
REMARK  3 active torsions:
REMARK  status: ('A' for Active; 'I' for Inactive)
REMARK    1  A    between atoms: S_2  and  C_5 
REMARK    2  A    between atoms: C_8  and  N_9 
REMARK       I    between atoms: N_9  and  C_10 
REMARK       I    between atoms: C_10  and  N_12 
REMARK    3  A    between atoms: N_12  and  C_13 
ROOT
HETATM    1  N   UNL     1     -47.197 -48.862  -2.686  1.00  0.00    -0.308 N 
HETATM    2  C   UNL     1     -47.661 -49.887  -1.895  1.00  0.00     0.321 C 
HETATM    3  O   UNL     1     -47.046 -50.417  -0.976  1.00  0.00    -0.247 OA
HETATM    4  N   UNL     1     -48.919 -50.303  -2.260  1.00  0.00    -0.336 N 
HETATM    5  H   UNL     1     -47.869 -48.400  -3.278  1.00  0.00     0.170 HD
HETATM    6  H   UNL     1     -49.515 -49.652  -2.746  1.00  0.00     0.164 HD
ENDROOT
BRANCH   1   7
HETATM    7  C   UNL     1     -45.883 -48.353  -2.668  1.00  0.00     0.051 A 
HETATM    8  C   UNL     1     -45.435 -47.407  -1.743  1.00  0.00     0.034 A 
HETATM    9  C   UNL     1     -44.111 -46.976  -1.761  1.00  0.00     0.044 A 
HETATM   10  C   UNL     1     -43.282 -47.518  -2.723  1.00  0.00     0.128 A 
HETATM   11  N   UNL     1     -43.656 -48.435  -3.654  1.00  0.00    -0.355 N 
HETATM   12  C   UNL     1     -44.950 -48.826  -3.598  1.00  0.00     0.118 A 
ATOM     13  HN  UNL     1     -43.006 -48.804  -4.348  1.00  0.00     0.166 HD
BRANCH  10  14
HETATM   14  S   UNL     1     -41.565 -47.067  -2.747  1.00  0.00     0.187 S 
HETATM   15  C   UNL     1     -41.554 -45.321  -3.035  1.00  0.00     0.168 C 
HETATM   16  O   UNL     1     -40.971 -47.715  -3.903  1.00  0.00    -0.222 OA
HETATM   17  O   UNL     1     -41.041 -47.300  -1.412  1.00  0.00    -0.222 OA
ENDBRANCH  10  14
ENDBRANCH   1   7
BRANCH   4  18
HETATM   18  C   UNL     1     -49.558 -51.377  -1.513  1.00  0.00     0.121 C 
HETATM   19  C   UNL     1     -50.969 -51.001  -1.035  1.00  0.00     0.057 C 
HETATM   20  C   UNL     1     -51.858 -52.192  -1.404  1.00  0.00     0.275 C 
HETATM   21  N   UNL     1     -50.911 -53.267  -1.667  1.00  0.00     0.095 N 
HETATM   22  C   UNL     1     -51.431 -54.390  -2.437  1.00  0.00     0.273 C 
HETATM   23  C   UNL     1     -49.782 -52.631  -2.351  1.00  0.00     0.245 C 
HETATM   24  C   UNL     1     -50.324 -55.441  -2.616  1.00  0.00     0.030 C 
HETATM   25  C   UNL     1     -49.028 -54.844  -3.182  1.00  0.00     0.004 C 
HETATM   26  C   UNL     1     -48.607 -53.600  -2.399  1.00  0.00     0.038 C 
ENDBRANCH   4  18
TORSDOF 3
ENDMDL
MODEL 9
REMARK VINA RESULT:      -6.1     15.460     17.544
REMARK  3 active torsions:
REMARK  status: ('A' for Active; 'I' for Inactive)
REMARK    1  A    between atoms: S_2  and  C_5 
REMARK    2  A    between atoms: C_8  and  N_9 
REMARK       I    between atoms: N_9  and  C_10 
REMARK       I    between atoms: C_10  and  N_12 
REMARK    3  A    between atoms: N_12  and  C_13 
ROOT
HETATM    1  N   UNL     1     -49.898 -51.120  -1.804  1.00  0.00    -0.308 N 
HETATM    2  C   UNL     1     -49.995 -50.674  -0.506  1.00  0.00     0.321 C 
HETATM    3  O   UNL     1     -49.858 -51.363   0.500  1.00  0.00    -0.247 OA
HETATM    4  N   UNL     1     -50.301 -49.336  -0.432  1.00  0.00    -0.336 N 
HETATM    5  H   UNL     1     -49.849 -50.418  -2.525  1.00  0.00     0.170 HD
HETATM    6  H   UNL     1     -50.060 -48.747  -1.213  1.00  0.00     0.164 HD
ENDROOT
BRANCH   1   7
HETATM    7  C   UNL     1     -49.774 -52.468  -2.193  1.00  0.00     0.051 A 
HETATM    8  C   UNL     1     -50.828 -53.384  -2.148  1.00  0.00     0.034 A 
HETATM    9  C   UNL     1     -50.642 -54.694  -2.584  1.00  0.00     0.044 A 
HETATM   10  C   UNL     1     -49.386 -55.033  -3.049  1.00  0.00     0.128 A 
HETATM   11  N   UNL     1     -48.319 -54.193  -3.112  1.00  0.00    -0.355 N 
HETATM   12  C   UNL     1     -48.547 -52.932  -2.680  1.00  0.00     0.118 A 
ATOM     13  HN  UNL     1     -47.409 -54.493  -3.462  1.00  0.00     0.166 HD
BRANCH  10  14
HETATM   14  S   UNL     1     -49.108 -56.666  -3.691  1.00  0.00     0.187 S 
HETATM   15  C   UNL     1     -50.572 -57.053  -4.607  1.00  0.00     0.168 C 
HETATM   16  O   UNL     1     -49.043 -57.564  -2.552  1.00  0.00    -0.222 OA
HETATM   17  O   UNL     1     -48.005 -56.575  -4.633  1.00  0.00    -0.222 OA
ENDBRANCH  10  14
ENDBRANCH   1   7
BRANCH   4  18
HETATM   18  C   UNL     1     -50.430 -48.708   0.876  1.00  0.00     0.121 C 
HETATM   19  C   UNL     1     -49.172 -47.921   1.275  1.00  0.00     0.057 C 
HETATM   20  C   UNL     1     -49.677 -46.565   1.776  1.00  0.00     0.275 C 
HETATM   21  N   UNL     1     -51.097 -46.788   2.013  1.00  0.00     0.095 N 
HETATM   22  C   UNL     1     -51.919 -45.586   2.091  1.00  0.00     0.273 C 
HETATM   23  C   UNL     1     -51.540 -47.664   0.925  1.00  0.00     0.245 C 
HETATM   24  C   UNL     1     -53.378 -45.983   2.358  1.00  0.00     0.030 C 
HETATM   25  C   UNL     1     -53.898 -47.030   1.363  1.00  0.00     0.004 C 
HETATM   26  C   UNL     1     -52.928 -48.206   1.243  1.00  0.00     0.038 C 
ENDBRANCH   4  18
TORSDOF 3
ENDMDL
