MODEL 1
REMARK VINA RESULT:      -6.6      0.000      0.000
REMARK  2 active torsions:
REMARK  status: ('A' for Active; 'I' for Inactive)
REMARK    1  A    between atoms: C_7  and  N_8 
REMARK       I    between atoms: N_8  and  C_9 
REMARK       I    between atoms: C_9  and  N_11 
REMARK    2  A    between atoms: N_11  and  C_12 
ROOT
HETATM    1  N   UNL     1     -42.430 -49.401  11.388  1.00  0.00    -0.307 N 
HETATM    2  C   UNL     1     -42.980 -49.663  12.645  1.00  0.00     0.321 C 
HETATM    3  O   UNL     1     -43.350 -48.815  13.434  1.00  0.00    -0.247 OA
HETATM    4  N   UNL     1     -43.012 -51.018  12.894  1.00  0.00    -0.337 N 
HETATM    5  H   UNL     1     -42.738 -50.045  10.666  1.00  0.00     0.170 HD
HETATM    6  H   UNL     1     -42.319 -51.534  12.363  1.00  0.00     0.164 HD
ENDROOT
BRANCH   1   7
HETATM    7  C   UNL     1     -42.118 -48.084  10.936  1.00  0.00     0.061 A 
HETATM    8  C   UNL     1     -40.837 -47.566  11.120  1.00  0.00     0.048 A 
HETATM    9  C   UNL     1     -40.566 -46.296  10.652  1.00  0.00     0.090 A 
HETATM   10  N   UNL     1     -41.471 -45.519  10.023  1.00  0.00    -0.368 N 
HETATM   11  C   UNL     1     -42.728 -46.016   9.863  1.00  0.00     0.029 A 
ATOM     12  HN  UNL     1     -41.222 -44.592   9.678  1.00  0.00     0.165 HD
HETATM   13  C   UNL     1     -43.700 -45.092   9.185  1.00  0.00     0.070 C 
HETATM   14  C   UNL     1     -43.083 -47.300  10.291  1.00  0.00     0.083 A 
HETATM   15 CL   UNL     1     -44.702 -47.889  10.112  1.00  0.00    -0.080 Cl
ENDBRANCH   1   7
BRANCH   4  16
HETATM   16  C   UNL     1     -43.525 -51.615  14.184  1.00  0.00     0.103 C 
HETATM   17  C   UNL     1     -42.935 -53.066  14.502  1.00  0.00     0.041 C 
HETATM   18  C   UNL     1     -43.153 -54.063  15.667  1.00  0.00     0.035 C 
HETATM   19  C   UNL     1     -44.082 -53.586  13.572  1.00  0.00     0.138 C 
HETATM   20  C   UNL     1     -43.477 -55.355  14.913  1.00  0.00     0.168 C 
HETATM   21  O   UNL     1     -44.479 -54.905  13.991  1.00  0.00    -0.385 OA
HETATM   22  C   UNL     1     -44.854 -52.349  14.007  1.00  0.00     0.007 C 
HETATM   23  C   UNL     1     -45.783 -52.324  15.213  1.00  0.00     0.014 C 
HETATM   24  C   UNL     1     -45.961 -51.823  13.126  1.00  0.00     0.014 C 
HETATM   25  C   UNL     1     -46.659 -51.331  14.415  1.00  0.00     0.002 C 
ENDBRANCH   4  16
TORSDOF 2
ENDMDL
MODEL 2
REMARK VINA RESULT:      -6.6      1.249      1.818
REMARK  2 active torsions:
REMARK  status: ('A' for Active; 'I' for Inactive)
REMARK    1  A    between atoms: C_7  and  N_8 
REMARK       I    between atoms: N_8  and  C_9 
REMARK       I    between atoms: C_9  and  N_11 
REMARK    2  A    between atoms: N_11  and  C_12 
ROOT
HETATM    1  N   UNL     1     -42.257 -49.474  11.380  1.00  0.00    -0.307 N 
HETATM    2  C   UNL     1     -42.815 -49.705  12.640  1.00  0.00     0.321 C 
HETATM    3  O   UNL     1     -43.318 -48.852  13.345  1.00  0.00    -0.247 OA
HETATM    4  N   UNL     1     -42.684 -51.029  12.999  1.00  0.00    -0.337 N 
HETATM    5  H   UNL     1     -42.454 -50.207  10.706  1.00  0.00     0.170 HD
HETATM    6  H   UNL     1     -41.911 -51.490  12.531  1.00  0.00     0.164 HD
ENDROOT
BRANCH   1   7
HETATM    7  C   UNL     1     -42.099 -48.167  10.829  1.00  0.00     0.061 A 
HETATM    8  C   UNL     1     -43.098 -47.620  10.026  1.00  0.00     0.048 A 
HETATM    9  C   UNL     1     -42.918 -46.345   9.528  1.00  0.00     0.090 A 
HETATM   10  N   UNL     1     -41.829 -45.589   9.773  1.00  0.00    -0.368 N 
HETATM   11  C   UNL     1     -40.844 -46.132  10.539  1.00  0.00     0.029 A 
ATOM     12  HN  UNL     1     -41.747 -44.645   9.397  1.00  0.00     0.165 HD
HETATM   13  C   UNL     1     -39.641 -45.255  10.750  1.00  0.00     0.070 C 
HETATM   14  C   UNL     1     -40.951 -47.410  11.099  1.00  0.00     0.083 A 
HETATM   15 CL   UNL     1     -39.663 -48.090  12.035  1.00  0.00    -0.080 Cl
ENDBRANCH   1   7
BRANCH   4  16
HETATM   16  C   UNL     1     -43.163 -51.584  14.321  1.00  0.00     0.103 C 
HETATM   17  C   UNL     1     -42.554 -53.018  14.676  1.00  0.00     0.041 C 
HETATM   18  C   UNL     1     -42.738 -53.975  15.880  1.00  0.00     0.035 C 
HETATM   19  C   UNL     1     -43.716 -53.579  13.790  1.00  0.00     0.138 C 
HETATM   20  C   UNL     1     -43.067 -55.295  15.180  1.00  0.00     0.168 C 
HETATM   21  O   UNL     1     -44.093 -54.886  14.264  1.00  0.00    -0.385 OA
HETATM   22  C   UNL     1     -44.489 -52.334  14.198  1.00  0.00     0.007 C 
HETATM   23  C   UNL     1     -45.392 -52.274  15.423  1.00  0.00     0.014 C 
HETATM   24  C   UNL     1     -45.619 -51.848  13.324  1.00  0.00     0.014 C 
HETATM   25  C   UNL     1     -46.294 -51.316  14.610  1.00  0.00     0.002 C 
ENDBRANCH   4  16
TORSDOF 2
ENDMDL
MODEL 3
REMARK VINA RESULT:      -6.5      2.520      7.616
REMARK  2 active torsions:
REMARK  status: ('A' for Active; 'I' for Inactive)
REMARK    1  A    between atoms: C_7  and  N_8 
REMARK       I    between atoms: N_8  and  C_9 
REMARK       I    between atoms: C_9  and  N_11 
REMARK    2  A    between atoms: N_11  and  C_12 
ROOT
HETATM    1  N   UNL     1     -44.634 -50.634  12.831  1.00  0.00    -0.307 N 
HETATM    2  C   UNL     1     -43.469 -50.053  13.339  1.00  0.00     0.321 C 
HETATM    3  O   UNL     1     -42.887 -50.423  14.341  1.00  0.00    -0.247 OA
HETATM    4  N   UNL     1     -43.084 -48.974  12.574  1.00  0.00    -0.337 N 
HETATM    5  H   UNL     1     -44.650 -50.695  11.818  1.00  0.00     0.170 HD
HETATM    6  H   UNL     1     -43.855 -48.555  12.066  1.00  0.00     0.164 HD
ENDROOT
BRANCH   1   7
HETATM    7  C   UNL     1     -45.353 -51.659  13.515  1.00  0.00     0.061 A 
HETATM    8  C   UNL     1     -46.361 -51.325  14.417  1.00  0.00     0.048 A 
HETATM    9  C   UNL     1     -47.048 -52.345  15.045  1.00  0.00     0.090 A 
HETATM   10  N   UNL     1     -46.804 -53.654  14.836  1.00  0.00    -0.368 N 
HETATM   11  C   UNL     1     -45.804 -53.980  13.972  1.00  0.00     0.029 A 
ATOM     12  HN  UNL     1     -47.349 -54.374  15.310  1.00  0.00     0.165 HD
HETATM   13  C   UNL     1     -45.557 -55.453  13.807  1.00  0.00     0.070 C 
HETATM   14  C   UNL     1     -45.069 -53.011  13.280  1.00  0.00     0.083 A 
HETATM   15 CL   UNL     1     -43.775 -53.455  12.219  1.00  0.00    -0.080 Cl
ENDBRANCH   1   7
BRANCH   4  16
HETATM   16  C   UNL     1     -41.877 -48.120  12.888  1.00  0.00     0.103 C 
HETATM   17  C   UNL     1     -42.023 -46.600  12.418  1.00  0.00     0.041 C 
HETATM   18  C   UNL     1     -41.084 -45.372  12.507  1.00  0.00     0.035 C 
HETATM   19  C   UNL     1     -41.540 -47.126  11.026  1.00  0.00     0.138 C 
HETATM   20  C   UNL     1     -41.093 -44.869  11.062  1.00  0.00     0.168 C 
HETATM   21  O   UNL     1     -40.833 -46.079  10.336  1.00  0.00    -0.385 OA
HETATM   22  C   UNL     1     -40.800 -48.203  11.806  1.00  0.00     0.007 C 
HETATM   23  C   UNL     1     -39.366 -48.046  12.293  1.00  0.00     0.014 C 
HETATM   24  C   UNL     1     -40.439 -49.496  11.116  1.00  0.00     0.014 C 
HETATM   25  C   UNL     1     -39.200 -49.562  12.040  1.00  0.00     0.002 C 
ENDBRANCH   4  16
TORSDOF 2
ENDMDL
MODEL 4
REMARK VINA RESULT:      -6.4      3.690      7.590
REMARK  2 active torsions:
REMARK  status: ('A' for Active; 'I' for Inactive)
REMARK    1  A    between atoms: C_7  and  N_8 
REMARK       I    between atoms: N_8  and  C_9 
REMARK       I    between atoms: C_9  and  N_11 
REMARK    2  A    between atoms: N_11  and  C_12 
ROOT
HETATM    1  N   UNL     1     -41.736 -51.032  12.568  1.00  0.00    -0.307 N 
HETATM    2  C   UNL     1     -41.197 -50.125  11.652  1.00  0.00     0.321 C 
HETATM    3  O   UNL     1     -40.040 -50.121  11.276  1.00  0.00    -0.247 OA
HETATM    4  N   UNL     1     -42.142 -49.204  11.258  1.00  0.00    -0.337 N 
HETATM    5  H   UNL     1     -42.677 -51.334  12.336  1.00  0.00     0.170 HD
HETATM    6  H   UNL     1     -42.883 -49.082  11.940  1.00  0.00     0.164 HD
ENDROOT
BRANCH   1   7
HETATM    7  C   UNL     1     -40.945 -51.988  13.272  1.00  0.00     0.061 A 
HETATM    8  C   UNL     1     -40.848 -53.297  12.804  1.00  0.00     0.048 A 
HETATM    9  C   UNL     1     -40.057 -54.189  13.499  1.00  0.00     0.090 A 
HETATM   10  N   UNL     1     -39.365 -53.870  14.612  1.00  0.00    -0.368 N 
HETATM   11  C   UNL     1     -39.477 -52.598  15.081  1.00  0.00     0.029 A 
ATOM     12  HN  UNL     1     -38.779 -54.558  15.084  1.00  0.00     0.165 HD
HETATM   13  C   UNL     1     -38.710 -52.311  16.341  1.00  0.00     0.070 C 
HETATM   14  C   UNL     1     -40.243 -51.625  14.429  1.00  0.00     0.083 A 
HETATM   15 CL   UNL     1     -40.400 -50.025  15.073  1.00  0.00    -0.080 Cl
ENDBRANCH   1   7
BRANCH   4  16
HETATM   16  C   UNL     1     -41.854 -48.075  10.295  1.00  0.00     0.103 C 
HETATM   17  C   UNL     1     -41.085 -46.842  10.959  1.00  0.00     0.041 C 
HETATM   18  C   UNL     1     -40.585 -45.486  10.402  1.00  0.00     0.035 C 
HETATM   19  C   UNL     1     -42.509 -46.368  11.402  1.00  0.00     0.138 C 
HETATM   20  C   UNL     1     -41.164 -44.501  11.420  1.00  0.00     0.168 C 
HETATM   21  O   UNL     1     -42.532 -44.931  11.489  1.00  0.00    -0.385 OA
HETATM   22  C   UNL     1     -43.022 -47.097  10.168  1.00  0.00     0.007 C 
HETATM   23  C   UNL     1     -43.176 -46.431   8.808  1.00  0.00     0.014 C 
HETATM   24  C   UNL     1     -44.461 -47.550  10.125  1.00  0.00     0.014 C 
HETATM   25  C   UNL     1     -44.409 -47.339   8.594  1.00  0.00     0.002 C 
ENDBRANCH   4  16
TORSDOF 2
ENDMDL
MODEL 5
REMARK VINA RESULT:      -6.0      2.925      7.591
REMARK  2 active torsions:
REMARK  status: ('A' for Active; 'I' for Inactive)
REMARK    1  A    between atoms: C_7  and  N_8 
REMARK       I    between atoms: N_8  and  C_9 
REMARK       I    between atoms: C_9  and  N_11 
REMARK    2  A    between atoms: N_11  and  C_12 
ROOT
HETATM    1  N   UNL     1     -44.515 -50.653  12.922  1.00  0.00    -0.307 N 
HETATM    2  C   UNL     1     -43.543 -49.942  13.630  1.00  0.00     0.321 C 
HETATM    3  O   UNL     1     -43.177 -50.202  14.761  1.00  0.00    -0.247 OA
HETATM    4  N   UNL     1     -43.076 -48.878  12.891  1.00  0.00    -0.337 N 
HETATM    5  H   UNL     1     -44.296 -50.772  11.938  1.00  0.00     0.170 HD
HETATM    6  H   UNL     1     -43.742 -48.559  12.195  1.00  0.00     0.164 HD
ENDROOT
BRANCH   1   7
HETATM    7  C   UNL     1     -45.291 -51.699  13.504  1.00  0.00     0.061 A 
HETATM    8  C   UNL     1     -46.404 -51.394  14.286  1.00  0.00     0.048 A 
HETATM    9  C   UNL     1     -47.142 -52.433  14.816  1.00  0.00     0.090 A 
HETATM   10  N   UNL     1     -46.851 -53.735  14.623  1.00  0.00    -0.368 N 
HETATM   11  C   UNL     1     -45.752 -54.033  13.879  1.00  0.00     0.029 A 
ATOM     12  HN  UNL     1     -47.435 -54.470  15.021  1.00  0.00     0.165 HD
HETATM   13  C   UNL     1     -45.460 -55.500  13.727  1.00  0.00     0.070 C 
HETATM   14  C   UNL     1     -44.958 -53.043  13.290  1.00  0.00     0.083 A 
HETATM   15 CL   UNL     1     -43.540 -53.451  12.383  1.00  0.00    -0.080 Cl
ENDBRANCH   1   7
BRANCH   4  16
HETATM   16  C   UNL     1     -42.039 -47.902  13.399  1.00  0.00     0.103 C 
HETATM   17  C   UNL     1     -42.591 -46.894  14.509  1.00  0.00     0.041 C 
HETATM   18  C   UNL     1     -41.935 -45.740  15.308  1.00  0.00     0.035 C 
HETATM   19  C   UNL     1     -43.088 -46.043  13.292  1.00  0.00     0.138 C 
HETATM   20  C   UNL     1     -42.930 -44.600  15.079  1.00  0.00     0.168 C 
HETATM   21  O   UNL     1     -43.099 -44.649  13.654  1.00  0.00    -0.385 OA
HETATM   22  C   UNL     1     -41.926 -46.654  12.523  1.00  0.00     0.007 C 
HETATM   23  C   UNL     1     -40.543 -46.022  12.457  1.00  0.00     0.014 C 
HETATM   24  C   UNL     1     -41.988 -46.710  11.017  1.00  0.00     0.014 C 
HETATM   25  C   UNL     1     -40.448 -46.578  11.017  1.00  0.00     0.002 C 
ENDBRANCH   4  16
TORSDOF 2
ENDMDL
MODEL 6
REMARK VINA RESULT:      -5.8      3.281      4.623
REMARK  2 active torsions:
REMARK  status: ('A' for Active; 'I' for Inactive)
REMARK    1  A    between atoms: C_7  and  N_8 
REMARK       I    between atoms: N_8  and  C_9 
REMARK       I    between atoms: C_9  and  N_11 
REMARK    2  A    between atoms: N_11  and  C_12 
ROOT
HETATM    1  N   UNL     1     -41.920 -50.566  14.034  1.00  0.00    -0.307 N 
HETATM    2  C   UNL     1     -43.145 -51.178  13.756  1.00  0.00     0.321 C 
HETATM    3  O   UNL     1     -43.431 -51.716  12.704  1.00  0.00    -0.247 OA
HETATM    4  N   UNL     1     -44.006 -51.058  14.825  1.00  0.00    -0.337 N 
HETATM    5  H   UNL     1     -41.587 -50.729  14.978  1.00  0.00     0.170 HD
HETATM    6  H   UNL     1     -43.792 -50.264  15.418  1.00  0.00     0.164 HD
ENDROOT
BRANCH   1   7
HETATM    7  C   UNL     1     -40.901 -50.388  13.051  1.00  0.00     0.061 A 
HETATM    8  C   UNL     1     -41.190 -49.738  11.852  1.00  0.00     0.048 A 
HETATM    9  C   UNL     1     -40.174 -49.567  10.933  1.00  0.00     0.090 A 
HETATM   10  N   UNL     1     -38.908 -49.990  11.126  1.00  0.00    -0.368 N 
HETATM   11  C   UNL     1     -38.631 -50.644  12.287  1.00  0.00     0.029 A 
ATOM     12  HN  UNL     1     -38.185 -49.827  10.426  1.00  0.00     0.165 HD
HETATM   13  C   UNL     1     -37.213 -51.121  12.429  1.00  0.00     0.070 C 
HETATM   14  C   UNL     1     -39.597 -50.846  13.279  1.00  0.00     0.083 A 
HETATM   15 CL   UNL     1     -39.225 -51.718  14.729  1.00  0.00    -0.080 Cl
ENDBRANCH   1   7
BRANCH   4  16
HETATM   16  C   UNL     1     -45.420 -51.594  14.818  1.00  0.00     0.103 C 
HETATM   17  C   UNL     1     -46.291 -51.128  16.074  1.00  0.00     0.041 C 
HETATM   18  C   UNL     1     -47.751 -51.409  16.509  1.00  0.00     0.035 C 
HETATM   19  C   UNL     1     -45.623 -52.337  16.812  1.00  0.00     0.138 C 
HETATM   20  C   UNL     1     -47.561 -51.862  17.958  1.00  0.00     0.168 C 
HETATM   21  O   UNL     1     -46.521 -52.840  17.819  1.00  0.00    -0.385 OA
HETATM   22  C   UNL     1     -45.525 -52.986  15.439  1.00  0.00     0.007 C 
HETATM   23  C   UNL     1     -46.609 -53.883  14.859  1.00  0.00     0.014 C 
HETATM   24  C   UNL     1     -44.491 -54.061  15.205  1.00  0.00     0.014 C 
HETATM   25  C   UNL     1     -45.472 -54.685  14.185  1.00  0.00     0.002 C 
ENDBRANCH   4  16
TORSDOF 2
ENDMDL
MODEL 7
REMARK VINA RESULT:      -5.8      1.716      2.816
REMARK  2 active torsions:
REMARK  status: ('A' for Active; 'I' for Inactive)
REMARK    1  A    between atoms: C_7  and  N_8 
REMARK       I    between atoms: N_8  and  C_9 
REMARK       I    between atoms: C_9  and  N_11 
REMARK    2  A    between atoms: N_11  and  C_12 
ROOT
HETATM    1  N   UNL     1     -41.967 -49.689  13.289  1.00  0.00    -0.307 N 
HETATM    2  C   UNL     1     -42.034 -51.049  12.974  1.00  0.00     0.321 C 
HETATM    3  O   UNL     1     -41.529 -51.562  11.994  1.00  0.00    -0.247 OA
HETATM    4  N   UNL     1     -42.786 -51.731  13.905  1.00  0.00    -0.337 N 
HETATM    5  H   UNL     1     -41.842 -49.506  14.279  1.00  0.00     0.170 HD
HETATM    6  H   UNL     1     -43.453 -51.138  14.385  1.00  0.00     0.164 HD
ENDROOT
BRANCH   1   7
HETATM    7  C   UNL     1     -41.398 -48.717  12.412  1.00  0.00     0.061 A 
HETATM    8  C   UNL     1     -40.024 -48.485  12.421  1.00  0.00     0.048 A 
HETATM    9  C   UNL     1     -39.508 -47.551  11.545  1.00  0.00     0.090 A 
HETATM   10  N   UNL     1     -40.256 -46.845  10.673  1.00  0.00    -0.368 N 
HETATM   11  C   UNL     1     -41.601 -47.055  10.680  1.00  0.00     0.029 A 
ATOM     12  HN  UNL     1     -39.830 -46.177  10.032  1.00  0.00     0.165 HD
HETATM   13  C   UNL     1     -42.385 -46.216   9.712  1.00  0.00     0.070 C 
HETATM   14  C   UNL     1     -42.205 -47.995  11.523  1.00  0.00     0.083 A 
HETATM   15 CL   UNL     1     -43.924 -48.211  11.539  1.00  0.00    -0.080 Cl
ENDBRANCH   1   7
BRANCH   4  16
HETATM   16  C   UNL     1     -43.068 -53.214  13.822  1.00  0.00     0.103 C 
HETATM   17  C   UNL     1     -44.621 -53.570  13.709  1.00  0.00     0.041 C 
HETATM   18  C   UNL     1     -45.393 -54.909  13.608  1.00  0.00     0.035 C 
HETATM   19  C   UNL     1     -44.621 -53.453  15.271  1.00  0.00     0.138 C 
HETATM   20  C   UNL     1     -46.440 -54.749  14.713  1.00  0.00     0.168 C 
HETATM   21  O   UNL     1     -45.627 -54.326  15.817  1.00  0.00    -0.385 OA
HETATM   22  C   UNL     1     -43.160 -53.874  15.198  1.00  0.00     0.007 C 
HETATM   23  C   UNL     1     -42.703 -55.324  15.263  1.00  0.00     0.014 C 
HETATM   24  C   UNL     1     -42.234 -53.517  16.334  1.00  0.00     0.014 C 
HETATM   25  C   UNL     1     -41.452 -54.812  16.013  1.00  0.00     0.002 C 
ENDBRANCH   4  16
TORSDOF 2
ENDMDL
MODEL 8
REMARK VINA RESULT:      -5.8      4.032      7.397
REMARK  2 active torsions:
REMARK  status: ('A' for Active; 'I' for Inactive)
REMARK    1  A    between atoms: C_7  and  N_8 
REMARK       I    between atoms: N_8  and  C_9 
REMARK       I    between atoms: C_9  and  N_11 
REMARK    2  A    between atoms: N_11  and  C_12 
ROOT
HETATM    1  N   UNL     1     -42.880 -51.192  14.488  1.00  0.00    -0.307 N 
HETATM    2  C   UNL     1     -41.625 -51.333  13.890  1.00  0.00     0.321 C 
HETATM    3  O   UNL     1     -41.410 -51.933  12.854  1.00  0.00    -0.247 OA
HETATM    4  N   UNL     1     -40.648 -50.731  14.652  1.00  0.00    -0.337 N 
HETATM    5  H   UNL     1     -43.039 -50.274  14.889  1.00  0.00     0.170 HD
HETATM    6  H   UNL     1     -40.901 -50.658  15.631  1.00  0.00     0.164 HD
ENDROOT
BRANCH   1   7
HETATM    7  C   UNL     1     -44.047 -51.859  14.008  1.00  0.00     0.061 A 
HETATM    8  C   UNL     1     -45.047 -51.139  13.358  1.00  0.00     0.048 A 
HETATM    9  C   UNL     1     -46.152 -51.822  12.890  1.00  0.00     0.090 A 
HETATM   10  N   UNL     1     -46.325 -53.152  13.023  1.00  0.00    -0.368 N 
HETATM   11  C   UNL     1     -45.359 -53.852  13.679  1.00  0.00     0.029 A 
ATOM     12  HN  UNL     1     -47.151 -53.618  12.647  1.00  0.00     0.165 HD
HETATM   13  C   UNL     1     -45.623 -55.324  13.825  1.00  0.00     0.070 C 
HETATM   14  C   UNL     1     -44.198 -53.243  14.169  1.00  0.00     0.083 A 
HETATM   15 CL   UNL     1     -43.006 -54.152  15.036  1.00  0.00    -0.080 Cl
ENDBRANCH   1   7
BRANCH   4  16
HETATM   16  C   UNL     1     -39.182 -50.739  14.283  1.00  0.00     0.103 C 
HETATM   17  C   UNL     1     -38.224 -50.192  15.439  1.00  0.00     0.041 C 
HETATM   18  C   UNL     1     -36.689 -50.003  15.539  1.00  0.00     0.035 C 
HETATM   19  C   UNL     1     -38.567 -48.777  14.866  1.00  0.00     0.138 C 
HETATM   20  C   UNL     1     -36.586 -48.553  16.016  1.00  0.00     0.168 C 
HETATM   21  O   UNL     1     -37.459 -47.885  15.094  1.00  0.00    -0.385 OA
HETATM   22  C   UNL     1     -38.757 -49.479  13.529  1.00  0.00     0.007 C 
HETATM   23  C   UNL     1     -37.637 -49.667  12.516  1.00  0.00     0.014 C 
HETATM   24  C   UNL     1     -39.622 -48.833  12.474  1.00  0.00     0.014 C 
HETATM   25  C   UNL     1     -38.713 -49.503  11.418  1.00  0.00     0.002 C 
ENDBRANCH   4  16
TORSDOF 2
ENDMDL
MODEL 9
REMARK VINA RESULT:      -5.8      2.638      7.617
REMARK  2 active torsions:
REMARK  status: ('A' for Active; 'I' for Inactive)
REMARK    1  A    between atoms: C_7  and  N_8 
REMARK       I    between atoms: N_8  and  C_9 
REMARK       I    between atoms: C_9  and  N_11 
REMARK    2  A    between atoms: N_11  and  C_12 
ROOT
HETATM    1  N   UNL     1     -42.653 -51.757  12.406  1.00  0.00    -0.307 N 
HETATM    2  C   UNL     1     -43.108 -50.455  12.626  1.00  0.00     0.321 C 
HETATM    3  O   UNL     1     -43.956 -50.142  13.441  1.00  0.00    -0.247 OA
HETATM    4  N   UNL     1     -42.496 -49.569  11.767  1.00  0.00    -0.337 N 
HETATM    5  H   UNL     1     -41.654 -51.816  12.239  1.00  0.00     0.170 HD
HETATM    6  H   UNL     1     -42.163 -50.010  10.917  1.00  0.00     0.164 HD
ENDROOT
BRANCH   1   7
HETATM    7  C   UNL     1     -43.235 -52.900  13.033  1.00  0.00     0.061 A 
HETATM    8  C   UNL     1     -44.470 -53.380  12.604  1.00  0.00     0.048 A 
HETATM    9  C   UNL     1     -44.992 -54.500  13.221  1.00  0.00     0.090 A 
HETATM   10  N   UNL     1     -44.376 -55.163  14.220  1.00  0.00    -0.368 N 
HETATM   11  C   UNL     1     -43.180 -54.680  14.654  1.00  0.00     0.029 A 
ATOM     12  HN  UNL     1     -44.791 -55.996  14.636  1.00  0.00     0.165 HD
HETATM   13  C   UNL     1     -42.558 -55.440  15.791  1.00  0.00     0.070 C 
HETATM   14  C   UNL     1     -42.570 -53.562  14.074  1.00  0.00     0.083 A 
HETATM   15 CL   UNL     1     -41.068 -52.945  14.676  1.00  0.00    -0.080 Cl
ENDBRANCH   1   7
BRANCH   4  16
HETATM   16  C   UNL     1     -42.802 -48.089  11.740  1.00  0.00     0.103 C 
HETATM   17  C   UNL     1     -41.940 -47.272  10.672  1.00  0.00     0.041 C 
HETATM   18  C   UNL     1     -41.887 -45.774  10.281  1.00  0.00     0.035 C 
HETATM   19  C   UNL     1     -40.846 -47.230  11.791  1.00  0.00     0.138 C 
HETATM   20  C   UNL     1     -40.386 -45.486  10.361  1.00  0.00     0.168 C 
HETATM   21  O   UNL     1     -40.057 -46.034  11.645  1.00  0.00    -0.385 OA
HETATM   22  C   UNL     1     -42.001 -47.303  12.778  1.00  0.00     0.007 C 
HETATM   23  C   UNL     1     -42.694 -46.073  13.348  1.00  0.00     0.014 C 
HETATM   24  C   UNL     1     -41.747 -47.823  14.172  1.00  0.00     0.014 C 
HETATM   25  C   UNL     1     -42.874 -46.880  14.655  1.00  0.00     0.002 C 
ENDBRANCH   4  16
TORSDOF 2
ENDMDL
