MODEL 1
REMARK VINA RESULT:      -7.0      0.000      0.000
REMARK  10 active torsions:
REMARK  status: ('A' for Active; 'I' for Inactive)
REMARK    1  A    between atoms: N_2  and  C_14 
REMARK    2  A    between atoms: C_3  and  N_7 
REMARK    3  A    between atoms: N_7  and  C_9 
REMARK    4  A    between atoms: N_7  and  C_18 
REMARK    5  A    between atoms: C_14  and  C_20 
REMARK    6  A    between atoms: C_15  and  C_18 
REMARK       I    between atoms: C_15  and  N_21 
REMARK    7  A    between atoms: C_19  and  N_21 
REMARK    8  A    between atoms: C_20  and  C_27 
REMARK    9  A    between atoms: C_20  and  C_28 
REMARK   10  A    between atoms: C_28  and  O_30 
ROOT
HETATM    1  C   UNL     1     -41.909 -50.255  12.217  1.00  0.00     0.117 A 
HETATM    2  N   UNL     1     -41.798 -52.348  12.814  1.00  0.00    -0.327 N 
HETATM    3  C   UNL     1     -41.381 -49.039  11.744  1.00  0.00     0.115 A 
HETATM    4  C   UNL     1     -41.038 -51.326  12.320  1.00  0.00     0.140 A 
HETATM    5  N   UNL     1     -43.179 -50.617  12.623  1.00  0.00    -0.346 N 
ATOM      6  HN  UNL     1     -44.013 -50.030  12.652  1.00  0.00     0.167 HD
HETATM    7  C   UNL     1     -43.078 -51.884  12.962  1.00  0.00     0.185 A 
HETATM    8  N   UNL     1     -40.048 -49.015  11.442  1.00  0.00    -0.341 N 
ATOM      9  HN  UNL     1     -39.611 -48.156  11.106  1.00  0.00     0.167 HD
HETATM   10  N   UNL     1     -39.729 -51.347  12.025  1.00  0.00    -0.336 N 
ATOM     11  HN  UNL     1     -39.128 -52.167  12.115  1.00  0.00     0.168 HD
HETATM   12  C   UNL     1     -39.317 -50.140  11.595  1.00  0.00     0.183 A 
ENDROOT
BRANCH   3  13
HETATM   13  N   UNL     1     -42.189 -47.877  11.577  1.00  0.00    -0.254 NA
BRANCH  13  14
HETATM   14  C   UNL     1     -41.963 -46.833  12.620  1.00  0.00     0.065 A 
HETATM   15  C   UNL     1     -41.824 -47.173  14.078  1.00  0.00     0.022 A 
HETATM   16  C   UNL     1     -43.065 -46.490  13.584  1.00  0.00     0.022 A 
ENDBRANCH  13  14
BRANCH  13  17
HETATM   17  C   UNL     1     -41.951 -47.345  10.206  1.00  0.00     0.200 C 
BRANCH  17  18
HETATM   18  C   UNL     1     -43.183 -47.052   9.348  1.00  0.00     0.231 C 
HETATM   19  N   UNL     1     -44.306 -47.835   9.488  1.00  0.00    -0.355 N 
HETATM   20  H   UNL     1     -44.220 -48.705  10.017  1.00  0.00     0.162 HD
HETATM   21  O   UNL     1     -43.137 -46.129   8.523  1.00  0.00    -0.272 OA
BRANCH  19  22
HETATM   22  C   UNL     1     -45.448 -47.646   8.640  1.00  0.00     0.084 A 
HETATM   23  C   UNL     1     -46.733 -47.038   9.129  1.00  0.00     0.027 A 
HETATM   24  C   UNL     1     -46.675 -48.503   8.813  1.00  0.00     0.027 A 
ENDBRANCH  19  22
ENDBRANCH  17  18
ENDBRANCH  13  17
ENDBRANCH   3  13
BRANCH   2  25
HETATM   25  C   UNL     1     -41.333 -53.679  13.143  1.00  0.00     0.138 C 
BRANCH  25  26
HETATM   26  C   UNL     1     -40.808 -53.839  14.587  1.00  0.00     0.034 C 
BRANCH  26  27
HETATM   27  C   UNL     1     -41.850 -54.542  15.508  1.00  0.00     0.019 C 
HETATM   28  C   UNL     1     -43.075 -55.122  14.805  1.00  0.00     0.172 C 
HETATM   29  O   UNL     1     -44.201 -54.357  15.236  1.00  0.00    -0.391 OA
HETATM   30  C   UNL     1     -43.918 -53.915  16.563  1.00  0.00     0.168 C 
HETATM   31  C   UNL     1     -42.428 -53.655  16.603  1.00  0.00     0.033 C 
ENDBRANCH  26  27
BRANCH  26  32
HETATM   32  C   UNL     1     -39.427 -54.513  14.498  1.00  0.00     0.170 C 
BRANCH  32  33
HETATM   33  O   UNL     1     -38.673 -54.083  13.382  1.00  0.00    -0.400 OA
HETATM   34  H   UNL     1     -39.046 -53.245  13.060  1.00  0.00     0.209 HD
ENDBRANCH  32  33
ENDBRANCH  26  32
ENDBRANCH  25  26
ENDBRANCH   2  25
TORSDOF 10
ENDMDL
MODEL 2
REMARK VINA RESULT:      -6.8      1.774      2.231
REMARK  10 active torsions:
REMARK  status: ('A' for Active; 'I' for Inactive)
REMARK    1  A    between atoms: N_2  and  C_14 
REMARK    2  A    between atoms: C_3  and  N_7 
REMARK    3  A    between atoms: N_7  and  C_9 
REMARK    4  A    between atoms: N_7  and  C_18 
REMARK    5  A    between atoms: C_14  and  C_20 
REMARK    6  A    between atoms: C_15  and  C_18 
REMARK       I    between atoms: C_15  and  N_21 
REMARK    7  A    between atoms: C_19  and  N_21 
REMARK    8  A    between atoms: C_20  and  C_27 
REMARK    9  A    between atoms: C_20  and  C_28 
REMARK   10  A    between atoms: C_28  and  O_30 
ROOT
HETATM    1  C   UNL     1     -41.295 -48.906  12.390  1.00  0.00     0.117 A 
HETATM    2  N   UNL     1     -42.285 -50.846  12.472  1.00  0.00    -0.327 N 
HETATM    3  C   UNL     1     -40.216 -48.040  12.132  1.00  0.00     0.115 A 
HETATM    4  C   UNL     1     -41.109 -50.250  12.115  1.00  0.00     0.140 A 
HETATM    5  N   UNL     1     -42.565 -48.680  12.886  1.00  0.00    -0.346 N 
ATOM      6  HN  UNL     1     -42.972 -47.790  13.172  1.00  0.00     0.167 HD
HETATM    7  C   UNL     1     -43.135 -49.865  12.910  1.00  0.00     0.185 A 
HETATM    8  N   UNL     1     -39.068 -48.603  11.650  1.00  0.00    -0.341 N 
ATOM      9  HN  UNL     1     -38.251 -48.023  11.456  1.00  0.00     0.167 HD
HETATM   10  N   UNL     1     -40.005 -50.840  11.633  1.00  0.00    -0.336 N 
ATOM     11  HN  UNL     1     -39.917 -51.839  11.443  1.00  0.00     0.168 HD
HETATM   12  C   UNL     1     -39.028 -49.935  11.432  1.00  0.00     0.183 A 
ENDROOT
BRANCH   3  13
HETATM   13  N   UNL     1     -40.303 -46.635  12.356  1.00  0.00    -0.254 NA
BRANCH  13  14
HETATM   14  C   UNL     1     -39.246 -46.105  13.267  1.00  0.00     0.065 A 
HETATM   15  C   UNL     1     -39.011 -46.673  14.639  1.00  0.00     0.022 A 
HETATM   16  C   UNL     1     -39.637 -45.318  14.488  1.00  0.00     0.022 A 
ENDBRANCH  13  14
BRANCH  13  17
HETATM   17  C   UNL     1     -40.277 -45.956  11.030  1.00  0.00     0.200 C 
BRANCH  17  18
HETATM   18  C   UNL     1     -41.618 -45.762  10.319  1.00  0.00     0.231 C 
HETATM   19  N   UNL     1     -42.133 -46.787   9.558  1.00  0.00    -0.355 N 
HETATM   20  H   UNL     1     -41.519 -47.571   9.331  1.00  0.00     0.162 HD
HETATM   21  O   UNL     1     -42.202 -44.676  10.423  1.00  0.00    -0.272 OA
BRANCH  19  22
HETATM   22  C   UNL     1     -43.343 -46.611   8.808  1.00  0.00     0.084 A 
HETATM   23  C   UNL     1     -44.635 -47.286   9.175  1.00  0.00     0.027 A 
HETATM   24  C   UNL     1     -43.882 -47.732   7.957  1.00  0.00     0.027 A 
ENDBRANCH  19  22
ENDBRANCH  17  18
ENDBRANCH  13  17
ENDBRANCH   3  13
BRANCH   2  25
HETATM   25  C   UNL     1     -42.578 -52.262  12.416  1.00  0.00     0.138 C 
BRANCH  25  26
HETATM   26  C   UNL     1     -42.155 -53.057  13.672  1.00  0.00     0.034 C 
BRANCH  26  27
HETATM   27  C   UNL     1     -43.385 -53.512  14.512  1.00  0.00     0.019 C 
HETATM   28  C   UNL     1     -43.299 -54.913  15.112  1.00  0.00     0.172 C 
HETATM   29  O   UNL     1     -44.290 -55.707  14.459  1.00  0.00    -0.391 OA
HETATM   30  C   UNL     1     -45.357 -54.828  14.105  1.00  0.00     0.168 C 
HETATM   31  C   UNL     1     -44.706 -53.508  13.753  1.00  0.00     0.033 C 
ENDBRANCH  26  27
BRANCH  26  32
HETATM   32  C   UNL     1     -41.208 -54.178  13.205  1.00  0.00     0.170 C 
BRANCH  32  33
HETATM   33  O   UNL     1     -40.580 -53.892  11.971  1.00  0.00    -0.400 OA
HETATM   34  H   UNL     1     -39.656 -53.643  12.142  1.00  0.00     0.209 HD
ENDBRANCH  32  33
ENDBRANCH  26  32
ENDBRANCH  25  26
ENDBRANCH   2  25
TORSDOF 10
ENDMDL
MODEL 3
REMARK VINA RESULT:      -6.5      2.360      4.011
REMARK  10 active torsions:
REMARK  status: ('A' for Active; 'I' for Inactive)
REMARK    1  A    between atoms: N_2  and  C_14 
REMARK    2  A    between atoms: C_3  and  N_7 
REMARK    3  A    between atoms: N_7  and  C_9 
REMARK    4  A    between atoms: N_7  and  C_18 
REMARK    5  A    between atoms: C_14  and  C_20 
REMARK    6  A    between atoms: C_15  and  C_18 
REMARK       I    between atoms: C_15  and  N_21 
REMARK    7  A    between atoms: C_19  and  N_21 
REMARK    8  A    between atoms: C_20  and  C_27 
REMARK    9  A    between atoms: C_20  and  C_28 
REMARK   10  A    between atoms: C_28  and  O_30 
ROOT
HETATM    1  C   UNL     1     -41.738 -51.171  13.728  1.00  0.00     0.117 A 
HETATM    2  N   UNL     1     -43.146 -52.156  15.067  1.00  0.00    -0.327 N 
HETATM    3  C   UNL     1     -40.836 -51.117  12.648  1.00  0.00     0.115 A 
HETATM    4  C   UNL     1     -42.358 -52.383  13.975  1.00  0.00     0.140 A 
HETATM    5  N   UNL     1     -42.150 -50.216  14.638  1.00  0.00    -0.346 N 
ATOM      6  HN  UNL     1     -41.857 -49.241  14.692  1.00  0.00     0.167 HD
HETATM    7  C   UNL     1     -43.005 -50.840  15.419  1.00  0.00     0.185 A 
HETATM    8  N   UNL     1     -40.635 -52.272  11.946  1.00  0.00    -0.341 N 
ATOM      9  HN  UNL     1     -39.984 -52.292  11.162  1.00  0.00     0.167 HD
HETATM   10  N   UNL     1     -42.198 -53.535  13.305  1.00  0.00    -0.336 N 
ATOM     11  HN  UNL     1     -42.683 -54.405  13.525  1.00  0.00     0.168 HD
HETATM   12  C   UNL     1     -41.310 -53.386  12.304  1.00  0.00     0.183 A 
ENDROOT
BRANCH   3  13
HETATM   13  N   UNL     1     -40.157 -49.916  12.289  1.00  0.00    -0.254 NA
BRANCH  13  14
HETATM   14  C   UNL     1     -38.676 -50.072  12.179  1.00  0.00     0.065 A 
HETATM   15  C   UNL     1     -37.846 -50.645  13.294  1.00  0.00     0.022 A 
HETATM   16  C   UNL     1     -37.769 -49.180  12.982  1.00  0.00     0.022 A 
ENDBRANCH  13  14
BRANCH  13  17
HETATM   17  C   UNL     1     -40.752 -49.414  11.019  1.00  0.00     0.200 C 
BRANCH  17  18
HETATM   18  C   UNL     1     -41.977 -48.505  11.134  1.00  0.00     0.231 C 
HETATM   19  N   UNL     1     -42.708 -48.211  10.005  1.00  0.00    -0.355 N 
HETATM   20  H   UNL     1     -42.303 -48.446   9.097  1.00  0.00     0.162 HD
HETATM   21  O   UNL     1     -42.272 -48.031  12.238  1.00  0.00    -0.272 OA
BRANCH  19  22
HETATM   22  C   UNL     1     -43.809 -47.292  10.059  1.00  0.00     0.084 A 
HETATM   23  C   UNL     1     -45.046 -47.455   9.220  1.00  0.00     0.027 A 
HETATM   24  C   UNL     1     -44.075 -46.354   8.911  1.00  0.00     0.027 A 
ENDBRANCH  19  22
ENDBRANCH  17  18
ENDBRANCH  13  17
ENDBRANCH   3  13
BRANCH   2  25
HETATM   25  C   UNL     1     -43.969 -53.134  15.747  1.00  0.00     0.138 C 
BRANCH  25  26
HETATM   26  C   UNL     1     -45.446 -52.719  15.927  1.00  0.00     0.034 C 
BRANCH  26  27
HETATM   27  C   UNL     1     -46.285 -52.986  14.642  1.00  0.00     0.019 C 
HETATM   28  C   UNL     1     -45.772 -54.100  13.733  1.00  0.00     0.172 C 
HETATM   29  O   UNL     1     -45.342 -53.481  12.520  1.00  0.00    -0.391 OA
HETATM   30  C   UNL     1     -46.158 -52.326  12.333  1.00  0.00     0.168 C 
HETATM   31  C   UNL     1     -46.431 -51.783  13.719  1.00  0.00     0.033 C 
ENDBRANCH  26  27
BRANCH  26  32
HETATM   32  C   UNL     1     -45.955 -53.392  17.215  1.00  0.00     0.170 C 
BRANCH  32  33
HETATM   33  O   UNL     1     -45.350 -54.646  17.458  1.00  0.00    -0.400 OA
HETATM   34  H   UNL     1     -45.614 -54.953  18.342  1.00  0.00     0.209 HD
ENDBRANCH  32  33
ENDBRANCH  26  32
ENDBRANCH  25  26
ENDBRANCH   2  25
TORSDOF 10
ENDMDL
MODEL 4
REMARK VINA RESULT:      -6.1      2.590      3.682
REMARK  10 active torsions:
REMARK  status: ('A' for Active; 'I' for Inactive)
REMARK    1  A    between atoms: N_2  and  C_14 
REMARK    2  A    between atoms: C_3  and  N_7 
REMARK    3  A    between atoms: N_7  and  C_9 
REMARK    4  A    between atoms: N_7  and  C_18 
REMARK    5  A    between atoms: C_14  and  C_20 
REMARK    6  A    between atoms: C_15  and  C_18 
REMARK       I    between atoms: C_15  and  N_21 
REMARK    7  A    between atoms: C_19  and  N_21 
REMARK    8  A    between atoms: C_20  and  C_27 
REMARK    9  A    between atoms: C_20  and  C_28 
REMARK   10  A    between atoms: C_28  and  O_30 
ROOT
HETATM    1  C   UNL     1     -42.286 -50.868  12.803  1.00  0.00     0.117 A 
HETATM    2  N   UNL     1     -44.196 -51.884  13.061  1.00  0.00    -0.327 N 
HETATM    3  C   UNL     1     -40.913 -50.801  12.502  1.00  0.00     0.115 A 
HETATM    4  C   UNL     1     -42.898 -52.105  12.698  1.00  0.00     0.140 A 
HETATM    5  N   UNL     1     -43.194 -49.906  13.204  1.00  0.00    -0.346 N 
ATOM      6  HN  UNL     1     -43.018 -48.913  13.362  1.00  0.00     0.167 HD
HETATM    7  C   UNL     1     -44.333 -50.549  13.337  1.00  0.00     0.185 A 
HETATM    8  N   UNL     1     -40.296 -51.967  12.148  1.00  0.00    -0.341 N 
ATOM      9  HN  UNL     1     -39.299 -51.979  11.930  1.00  0.00     0.167 HD
HETATM   10  N   UNL     1     -42.333 -53.269  12.345  1.00  0.00    -0.336 N 
ATOM     11  HN  UNL     1     -42.829 -54.158  12.278  1.00  0.00     0.168 HD
HETATM   12  C   UNL     1     -41.021 -53.105  12.090  1.00  0.00     0.183 A 
ENDROOT
BRANCH   3  13
HETATM   13  N   UNL     1     -40.185 -49.576  12.555  1.00  0.00    -0.254 NA
BRANCH  13  14
HETATM   14  C   UNL     1     -38.822 -49.712  13.148  1.00  0.00     0.065 A 
HETATM   15  C   UNL     1     -38.609 -50.070  14.593  1.00  0.00     0.022 A 
HETATM   16  C   UNL     1     -38.322 -48.676  14.118  1.00  0.00     0.022 A 
ENDBRANCH  13  14
BRANCH  13  17
HETATM   17  C   UNL     1     -40.131 -49.014  11.176  1.00  0.00     0.200 C 
BRANCH  17  18
HETATM   18  C   UNL     1     -41.173 -47.955  10.814  1.00  0.00     0.231 C 
HETATM   19  N   UNL     1     -42.274 -48.317  10.071  1.00  0.00    -0.355 N 
HETATM   20  H   UNL     1     -42.267 -49.234   9.619  1.00  0.00     0.162 HD
HETATM   21  O   UNL     1     -40.993 -46.784  11.174  1.00  0.00    -0.272 OA
BRANCH  19  22
HETATM   22  C   UNL     1     -43.227 -47.336   9.637  1.00  0.00     0.084 A 
HETATM   23  C   UNL     1     -44.711 -47.526   9.776  1.00  0.00     0.027 A 
HETATM   24  C   UNL     1     -44.076 -47.586   8.418  1.00  0.00     0.027 A 
ENDBRANCH  19  22
ENDBRANCH  17  18
ENDBRANCH  13  17
ENDBRANCH   3  13
BRANCH   2  25
HETATM   25  C   UNL     1     -45.239 -52.883  13.157  1.00  0.00     0.138 C 
BRANCH  25  26
HETATM   26  C   UNL     1     -45.116 -53.828  14.373  1.00  0.00     0.034 C 
BRANCH  26  27
HETATM   27  C   UNL     1     -45.910 -53.296  15.603  1.00  0.00     0.019 C 
HETATM   28  C   UNL     1     -47.086 -52.375  15.288  1.00  0.00     0.172 C 
HETATM   29  O   UNL     1     -46.745 -51.082  15.788  1.00  0.00    -0.391 OA
HETATM   30  C   UNL     1     -45.901 -51.284  16.920  1.00  0.00     0.168 C 
HETATM   31  C   UNL     1     -45.073 -52.511  16.605  1.00  0.00     0.033 C 
ENDBRANCH  26  27
BRANCH  26  32
HETATM   32  C   UNL     1     -45.491 -55.242  13.891  1.00  0.00     0.170 C 
BRANCH  32  33
HETATM   33  O   UNL     1     -46.775 -55.650  14.321  1.00  0.00    -0.400 OA
HETATM   34  H   UNL     1     -46.709 -55.972  15.236  1.00  0.00     0.209 HD
ENDBRANCH  32  33
ENDBRANCH  26  32
ENDBRANCH  25  26
ENDBRANCH   2  25
TORSDOF 10
ENDMDL
MODEL 5
REMARK VINA RESULT:      -6.1      2.991      4.555
REMARK  10 active torsions:
REMARK  status: ('A' for Active; 'I' for Inactive)
REMARK    1  A    between atoms: N_2  and  C_14 
REMARK    2  A    between atoms: C_3  and  N_7 
REMARK    3  A    between atoms: N_7  and  C_9 
REMARK    4  A    between atoms: N_7  and  C_18 
REMARK    5  A    between atoms: C_14  and  C_20 
REMARK    6  A    between atoms: C_15  and  C_18 
REMARK       I    between atoms: C_15  and  N_21 
REMARK    7  A    between atoms: C_19  and  N_21 
REMARK    8  A    between atoms: C_20  and  C_27 
REMARK    9  A    between atoms: C_20  and  C_28 
REMARK   10  A    between atoms: C_28  and  O_30 
ROOT
HETATM    1  C   UNL     1     -41.627 -51.162  13.522  1.00  0.00     0.117 A 
HETATM    2  N   UNL     1     -42.828 -52.290  14.946  1.00  0.00    -0.327 N 
HETATM    3  C   UNL     1     -40.955 -50.966  12.300  1.00  0.00     0.115 A 
HETATM    4  C   UNL     1     -42.297 -52.361  13.690  1.00  0.00     0.140 A 
HETATM    5  N   UNL     1     -41.760 -50.365  14.643  1.00  0.00    -0.346 N 
ATOM      6  HN  UNL     1     -41.371 -49.434  14.794  1.00  0.00     0.167 HD
HETATM    7  C   UNL     1     -42.499 -51.069  15.473  1.00  0.00     0.185 A 
HETATM    8  N   UNL     1     -41.006 -51.984  11.391  1.00  0.00    -0.341 N 
ATOM      9  HN  UNL     1     -40.527 -51.900  10.495  1.00  0.00     0.167 HD
HETATM   10  N   UNL     1     -42.381 -53.380  12.822  1.00  0.00    -0.336 N 
ATOM     11  HN  UNL     1     -42.892 -54.246  12.992  1.00  0.00     0.168 HD
HETATM   12  C   UNL     1     -41.698 -53.103  11.694  1.00  0.00     0.183 A 
ENDROOT
BRANCH   3  13
HETATM   13  N   UNL     1     -40.250 -49.761  12.009  1.00  0.00    -0.254 NA
BRANCH  13  14
HETATM   14  C   UNL     1     -38.789 -49.959  11.778  1.00  0.00     0.065 A 
HETATM   15  C   UNL     1     -37.927 -50.746  12.726  1.00  0.00     0.022 A 
HETATM   16  C   UNL     1     -37.791 -49.254  12.655  1.00  0.00     0.022 A 
ENDBRANCH  13  14
BRANCH  13  17
HETATM   17  C   UNL     1     -40.909 -49.115  10.839  1.00  0.00     0.200 C 
BRANCH  17  18
HETATM   18  C   UNL     1     -41.221 -47.622  10.950  1.00  0.00     0.231 C 
HETATM   19  N   UNL     1     -40.289 -46.704  10.521  1.00  0.00    -0.355 N 
HETATM   20  H   UNL     1     -39.344 -47.037  10.323  1.00  0.00     0.162 HD
HETATM   21  O   UNL     1     -42.297 -47.267  11.449  1.00  0.00    -0.272 OA
BRANCH  19  22
HETATM   22  C   UNL     1     -40.510 -45.296  10.690  1.00  0.00     0.084 A 
HETATM   23  C   UNL     1     -39.566 -44.255  10.156  1.00  0.00     0.027 A 
HETATM   24  C   UNL     1     -39.647 -44.498  11.634  1.00  0.00     0.027 A 
ENDBRANCH  19  22
ENDBRANCH  17  18
ENDBRANCH  13  17
ENDBRANCH   3  13
BRANCH   2  25
HETATM   25  C   UNL     1     -43.589 -53.326  15.613  1.00  0.00     0.138 C 
BRANCH  25  26
HETATM   26  C   UNL     1     -45.015 -52.906  16.036  1.00  0.00     0.034 C 
BRANCH  26  27
HETATM   27  C   UNL     1     -46.048 -53.127  14.891  1.00  0.00     0.019 C 
HETATM   28  C   UNL     1     -45.672 -54.180  13.851  1.00  0.00     0.172 C 
HETATM   29  O   UNL     1     -45.455 -53.489  12.620  1.00  0.00    -0.391 OA
HETATM   30  C   UNL     1     -46.308 -52.346  12.631  1.00  0.00     0.168 C 
HETATM   31  C   UNL     1     -46.360 -51.881  14.071  1.00  0.00     0.033 C 
ENDBRANCH  26  27
BRANCH  26  32
HETATM   32  C   UNL     1     -45.324 -53.618  17.366  1.00  0.00     0.170 C 
BRANCH  32  33
HETATM   33  O   UNL     1     -46.150 -54.754  17.206  1.00  0.00    -0.400 OA
HETATM   34  H   UNL     1     -45.603 -55.494  16.893  1.00  0.00     0.209 HD
ENDBRANCH  32  33
ENDBRANCH  26  32
ENDBRANCH  25  26
ENDBRANCH   2  25
TORSDOF 10
ENDMDL
MODEL 6
REMARK VINA RESULT:      -6.0      2.679      7.469
REMARK  10 active torsions:
REMARK  status: ('A' for Active; 'I' for Inactive)
REMARK    1  A    between atoms: N_2  and  C_14 
REMARK    2  A    between atoms: C_3  and  N_7 
REMARK    3  A    between atoms: N_7  and  C_9 
REMARK    4  A    between atoms: N_7  and  C_18 
REMARK    5  A    between atoms: C_14  and  C_20 
REMARK    6  A    between atoms: C_15  and  C_18 
REMARK       I    between atoms: C_15  and  N_21 
REMARK    7  A    between atoms: C_19  and  N_21 
REMARK    8  A    between atoms: C_20  and  C_27 
REMARK    9  A    between atoms: C_20  and  C_28 
REMARK   10  A    between atoms: C_28  and  O_30 
ROOT
HETATM    1  C   UNL     1     -42.819 -51.362  13.060  1.00  0.00     0.117 A 
HETATM    2  N   UNL     1     -41.769 -49.665  12.186  1.00  0.00    -0.327 N 
HETATM    3  C   UNL     1     -43.084 -52.731  13.250  1.00  0.00     0.115 A 
HETATM    4  C   UNL     1     -41.790 -51.030  12.196  1.00  0.00     0.140 A 
HETATM    5  N   UNL     1     -43.405 -50.225  13.583  1.00  0.00    -0.346 N 
ATOM      6  HN  UNL     1     -44.182 -50.172  14.241  1.00  0.00     0.167 HD
HETATM    7  C   UNL     1     -42.740 -49.225  13.046  1.00  0.00     0.185 A 
HETATM    8  N   UNL     1     -42.315 -53.617  12.551  1.00  0.00    -0.341 N 
ATOM      9  HN  UNL     1     -42.471 -54.621  12.642  1.00  0.00     0.167 HD
HETATM   10  N   UNL     1     -41.005 -51.867  11.500  1.00  0.00    -0.336 N 
ATOM     11  HN  UNL     1     -40.254 -51.572  10.876  1.00  0.00     0.168 HD
HETATM   12  C   UNL     1     -41.344 -53.148  11.738  1.00  0.00     0.183 A 
ENDROOT
BRANCH   3  13
HETATM   13  N   UNL     1     -44.106 -53.189  14.133  1.00  0.00    -0.254 NA
BRANCH  13  14
HETATM   14  C   UNL     1     -45.419 -53.424  13.463  1.00  0.00     0.065 A 
HETATM   15  C   UNL     1     -46.023 -52.427  12.513  1.00  0.00     0.022 A 
HETATM   16  C   UNL     1     -46.622 -52.620  13.875  1.00  0.00     0.022 A 
ENDBRANCH  13  14
BRANCH  13  17
HETATM   17  C   UNL     1     -43.609 -54.418  14.813  1.00  0.00     0.200 C 
BRANCH  17  18
HETATM   18  C   UNL     1     -42.470 -54.245  15.820  1.00  0.00     0.231 C 
HETATM   19  N   UNL     1     -41.319 -54.984  15.672  1.00  0.00    -0.355 N 
HETATM   20  H   UNL     1     -41.332 -55.765  15.012  1.00  0.00     0.162 HD
HETATM   21  O   UNL     1     -42.617 -53.460  16.766  1.00  0.00    -0.272 OA
BRANCH  19  22
HETATM   22  C   UNL     1     -40.267 -54.914  16.645  1.00  0.00     0.084 A 
HETATM   23  C   UNL     1     -38.945 -54.255  16.367  1.00  0.00     0.027 A 
HETATM   24  C   UNL     1     -39.022 -55.748  16.482  1.00  0.00     0.027 A 
ENDBRANCH  19  22
ENDBRANCH  17  18
ENDBRANCH  13  17
ENDBRANCH   3  13
BRANCH   2  25
HETATM   25  C   UNL     1     -40.892 -48.828  11.395  1.00  0.00     0.138 C 
BRANCH  25  26
HETATM   26  C   UNL     1     -39.923 -47.951  12.219  1.00  0.00     0.034 C 
BRANCH  26  27
HETATM   27  C   UNL     1     -38.600 -48.703  12.551  1.00  0.00     0.019 C 
HETATM   28  C   UNL     1     -38.117 -49.697  11.498  1.00  0.00     0.172 C 
HETATM   29  O   UNL     1     -38.222 -50.998  12.076  1.00  0.00    -0.391 OA
HETATM   30  C   UNL     1     -38.023 -50.845  13.480  1.00  0.00     0.168 C 
HETATM   31  C   UNL     1     -38.639 -49.511  13.843  1.00  0.00     0.033 C 
ENDBRANCH  26  27
BRANCH  26  32
HETATM   32  C   UNL     1     -39.767 -46.615  11.468  1.00  0.00     0.170 C 
BRANCH  32  33
HETATM   33  O   UNL     1     -40.506 -46.569  10.264  1.00  0.00    -0.400 OA
HETATM   34  H   UNL     1     -40.456 -47.439   9.835  1.00  0.00     0.209 HD
ENDBRANCH  32  33
ENDBRANCH  26  32
ENDBRANCH  25  26
ENDBRANCH   2  25
TORSDOF 10
ENDMDL
MODEL 7
REMARK VINA RESULT:      -5.9      1.642      2.424
REMARK  10 active torsions:
REMARK  status: ('A' for Active; 'I' for Inactive)
REMARK    1  A    between atoms: N_2  and  C_14 
REMARK    2  A    between atoms: C_3  and  N_7 
REMARK    3  A    between atoms: N_7  and  C_9 
REMARK    4  A    between atoms: N_7  and  C_18 
REMARK    5  A    between atoms: C_14  and  C_20 
REMARK    6  A    between atoms: C_15  and  C_18 
REMARK       I    between atoms: C_15  and  N_21 
REMARK    7  A    between atoms: C_19  and  N_21 
REMARK    8  A    between atoms: C_20  and  C_27 
REMARK    9  A    between atoms: C_20  and  C_28 
REMARK   10  A    between atoms: C_28  and  O_30 
ROOT
HETATM    1  C   UNL     1     -40.607 -49.310  12.665  1.00  0.00     0.117 A 
HETATM    2  N   UNL     1     -40.423 -51.481  12.630  1.00  0.00    -0.327 N 
HETATM    3  C   UNL     1     -41.298 -48.096  12.839  1.00  0.00     0.115 A 
HETATM    4  C   UNL     1     -41.315 -50.479  12.886  1.00  0.00     0.140 A 
HETATM    5  N   UNL     1     -39.303 -49.589  12.302  1.00  0.00    -0.346 N 
ATOM      6  HN  UNL     1     -38.563 -48.923  12.081  1.00  0.00     0.167 HD
HETATM    7  C   UNL     1     -39.225 -50.902  12.304  1.00  0.00     0.185 A 
HETATM    8  N   UNL     1     -42.616 -48.175  13.191  1.00  0.00    -0.341 N 
ATOM      9  HN  UNL     1     -43.168 -47.326  13.319  1.00  0.00     0.167 HD
HETATM   10  N   UNL     1     -42.603 -50.600  13.242  1.00  0.00    -0.336 N 
ATOM     11  HN  UNL     1     -43.080 -51.488  13.396  1.00  0.00     0.168 HD
HETATM   12  C   UNL     1     -43.179 -49.389  13.370  1.00  0.00     0.183 A 
ENDROOT
BRANCH   3  13
HETATM   13  N   UNL     1     -40.664 -46.832  12.661  1.00  0.00    -0.254 NA
BRANCH  13  14
HETATM   14  C   UNL     1     -39.440 -46.650  13.496  1.00  0.00     0.065 A 
HETATM   15  C   UNL     1     -39.480 -46.700  14.998  1.00  0.00     0.022 A 
HETATM   16  C   UNL     1     -39.263 -45.391  14.299  1.00  0.00     0.022 A 
ENDBRANCH  13  14
BRANCH  13  17
HETATM   17  C   UNL     1     -40.369 -46.666  11.210  1.00  0.00     0.200 C 
BRANCH  17  18
HETATM   18  C   UNL     1     -41.539 -46.292  10.299  1.00  0.00     0.231 C 
HETATM   19  N   UNL     1     -42.173 -47.276   9.575  1.00  0.00    -0.355 N 
HETATM   20  H   UNL     1     -41.724 -48.193   9.517  1.00  0.00     0.162 HD
HETATM   21  O   UNL     1     -41.877 -45.105  10.210  1.00  0.00    -0.272 OA
BRANCH  19  22
HETATM   22  C   UNL     1     -43.216 -46.952   8.645  1.00  0.00     0.084 A 
HETATM   23  C   UNL     1     -44.584 -47.573   8.706  1.00  0.00     0.027 A 
HETATM   24  C   UNL     1     -43.644 -47.951   7.601  1.00  0.00     0.027 A 
ENDBRANCH  19  22
ENDBRANCH  17  18
ENDBRANCH  13  17
ENDBRANCH   3  13
BRANCH   2  25
HETATM   25  C   UNL     1     -40.695 -52.902  12.678  1.00  0.00     0.138 C 
BRANCH  25  26
HETATM   26  C   UNL     1     -40.820 -53.487  14.102  1.00  0.00     0.034 C 
BRANCH  26  27
HETATM   27  C   UNL     1     -42.216 -54.134  14.343  1.00  0.00     0.019 C 
HETATM   28  C   UNL     1     -43.209 -54.023  13.188  1.00  0.00     0.172 C 
HETATM   29  O   UNL     1     -44.266 -53.172  13.631  1.00  0.00    -0.391 OA
HETATM   30  C   UNL     1     -44.380 -53.353  15.041  1.00  0.00     0.168 C 
HETATM   31  C   UNL     1     -42.972 -53.581  15.545  1.00  0.00     0.033 C 
ENDBRANCH  26  27
BRANCH  26  32
HETATM   32  C   UNL     1     -39.605 -54.406  14.326  1.00  0.00     0.170 C 
BRANCH  32  33
HETATM   33  O   UNL     1     -38.579 -54.207  13.374  1.00  0.00    -0.400 OA
HETATM   34  H   UNL     1     -38.578 -54.956  12.756  1.00  0.00     0.209 HD
ENDBRANCH  32  33
ENDBRANCH  26  32
ENDBRANCH  25  26
ENDBRANCH   2  25
TORSDOF 10
ENDMDL
MODEL 8
REMARK VINA RESULT:      -5.8      3.431      8.515
REMARK  10 active torsions:
REMARK  status: ('A' for Active; 'I' for Inactive)
REMARK    1  A    between atoms: N_2  and  C_14 
REMARK    2  A    between atoms: C_3  and  N_7 
REMARK    3  A    between atoms: N_7  and  C_9 
REMARK    4  A    between atoms: N_7  and  C_18 
REMARK    5  A    between atoms: C_14  and  C_20 
REMARK    6  A    between atoms: C_15  and  C_18 
REMARK       I    between atoms: C_15  and  N_21 
REMARK    7  A    between atoms: C_19  and  N_21 
REMARK    8  A    between atoms: C_20  and  C_27 
REMARK    9  A    between atoms: C_20  and  C_28 
REMARK   10  A    between atoms: C_28  and  O_30 
ROOT
HETATM    1  C   UNL     1     -40.984 -47.241  11.826  1.00  0.00     0.117 A 
HETATM    2  N   UNL     1     -40.922 -45.072  11.626  1.00  0.00    -0.327 N 
HETATM    3  C   UNL     1     -41.360 -48.542  11.443  1.00  0.00     0.115 A 
HETATM    4  C   UNL     1     -41.400 -46.197  11.017  1.00  0.00     0.140 A 
HETATM    5  N   UNL     1     -40.251 -46.767  12.897  1.00  0.00    -0.346 N 
ATOM      6  HN  UNL     1     -39.825 -47.311  13.648  1.00  0.00     0.167 HD
HETATM    7  C   UNL     1     -40.223 -45.462  12.737  1.00  0.00     0.185 A 
HETATM    8  N   UNL     1     -42.120 -48.663  10.314  1.00  0.00    -0.341 N 
ATOM      9  HN  UNL     1     -42.430 -49.582   9.996  1.00  0.00     0.167 HD
HETATM   10  N   UNL     1     -42.136 -46.274   9.898  1.00  0.00    -0.336 N 
ATOM     11  HN  UNL     1     -42.414 -45.472   9.332  1.00  0.00     0.168 HD
HETATM   12  C   UNL     1     -42.455 -47.552   9.623  1.00  0.00     0.183 A 
ENDROOT
BRANCH   3  13
HETATM   13  N   UNL     1     -40.970 -49.693  12.188  1.00  0.00    -0.254 NA
BRANCH  13  14
HETATM   14  C   UNL     1     -39.537 -49.683  12.604  1.00  0.00     0.065 A 
HETATM   15  C   UNL     1     -38.415 -49.861  11.619  1.00  0.00     0.022 A 
HETATM   16  C   UNL     1     -38.744 -50.960  12.585  1.00  0.00     0.022 A 
ENDBRANCH  13  14
BRANCH  13  17
HETATM   17  C   UNL     1     -41.882 -49.812  13.360  1.00  0.00     0.200 C 
BRANCH  17  18
HETATM   18  C   UNL     1     -42.900 -50.954  13.339  1.00  0.00     0.231 C 
HETATM   19  N   UNL     1     -44.225 -50.673  13.094  1.00  0.00    -0.355 N 
HETATM   20  H   UNL     1     -44.522 -49.695  13.127  1.00  0.00     0.162 HD
HETATM   21  O   UNL     1     -42.515 -52.108  13.568  1.00  0.00    -0.272 OA
BRANCH  19  22
HETATM   22  C   UNL     1     -45.220 -51.705  13.153  1.00  0.00     0.084 A 
HETATM   23  C   UNL     1     -46.547 -51.596  12.455  1.00  0.00     0.027 A 
HETATM   24  C   UNL     1     -46.483 -51.500  13.950  1.00  0.00     0.027 A 
ENDBRANCH  19  22
ENDBRANCH  17  18
ENDBRANCH  13  17
ENDBRANCH   3  13
BRANCH   2  25
HETATM   25  C   UNL     1     -41.129 -43.708  11.188  1.00  0.00     0.138 C 
BRANCH  25  26
HETATM   26  C   UNL     1     -42.270 -42.964  11.918  1.00  0.00     0.034 C 
BRANCH  26  27
HETATM   27  C   UNL     1     -41.731 -41.795  12.795  1.00  0.00     0.019 C 
HETATM   28  C   UNL     1     -42.174 -40.394  12.381  1.00  0.00     0.172 C 
HETATM   29  O   UNL     1     -41.008 -39.707  11.926  1.00  0.00    -0.391 OA
HETATM   30  C   UNL     1     -39.903 -40.238  12.657  1.00  0.00     0.168 C 
HETATM   31  C   UNL     1     -40.211 -41.705  12.865  1.00  0.00     0.033 C 
ENDBRANCH  26  27
BRANCH  26  32
HETATM   32  C   UNL     1     -43.317 -42.580  10.856  1.00  0.00     0.170 C 
BRANCH  32  33
HETATM   33  O   UNL     1     -43.712 -43.671  10.050  1.00  0.00    -0.400 OA
HETATM   34  H   UNL     1     -43.333 -43.556   9.162  1.00  0.00     0.209 HD
ENDBRANCH  32  33
ENDBRANCH  26  32
ENDBRANCH  25  26
ENDBRANCH   2  25
TORSDOF 10
ENDMDL
MODEL 9
REMARK VINA RESULT:      -5.7      1.956      2.281
REMARK  10 active torsions:
REMARK  status: ('A' for Active; 'I' for Inactive)
REMARK    1  A    between atoms: N_2  and  C_14 
REMARK    2  A    between atoms: C_3  and  N_7 
REMARK    3  A    between atoms: N_7  and  C_9 
REMARK    4  A    between atoms: N_7  and  C_18 
REMARK    5  A    between atoms: C_14  and  C_20 
REMARK    6  A    between atoms: C_15  and  C_18 
REMARK       I    between atoms: C_15  and  N_21 
REMARK    7  A    between atoms: C_19  and  N_21 
REMARK    8  A    between atoms: C_20  and  C_27 
REMARK    9  A    between atoms: C_20  and  C_28 
REMARK   10  A    between atoms: C_28  and  O_30 
ROOT
HETATM    1  C   UNL     1     -40.033 -49.411  13.292  1.00  0.00     0.117 A 
HETATM    2  N   UNL     1     -39.964 -51.459  14.032  1.00  0.00    -0.327 N 
HETATM    3  C   UNL     1     -39.650 -48.351  12.448  1.00  0.00     0.115 A 
HETATM    4  C   UNL     1     -39.433 -50.640  13.078  1.00  0.00     0.140 A 
HETATM    5  N   UNL     1     -40.927 -49.480  14.344  1.00  0.00    -0.346 N 
ATOM      6  HN  UNL     1     -41.506 -48.728  14.718  1.00  0.00     0.167 HD
HETATM    7  C   UNL     1     -40.869 -50.728  14.755  1.00  0.00     0.185 A 
HETATM    8  N   UNL     1     -38.704 -48.621  11.500  1.00  0.00    -0.341 N 
ATOM      9  HN  UNL     1     -38.382 -47.887  10.869  1.00  0.00     0.167 HD
HETATM   10  N   UNL     1     -38.510 -50.949  12.154  1.00  0.00    -0.336 N 
ATOM     11  HN  UNL     1     -38.099 -51.875  12.033  1.00  0.00     0.168 HD
HETATM   12  C   UNL     1     -38.202 -49.871  11.408  1.00  0.00     0.183 A 
ENDROOT
BRANCH   3  13
HETATM   13  N   UNL     1     -40.219 -47.049  12.564  1.00  0.00    -0.254 NA
BRANCH  13  14
HETATM   14  C   UNL     1     -39.320 -46.057  13.226  1.00  0.00     0.065 A 
HETATM   15  C   UNL     1     -38.616 -46.353  14.521  1.00  0.00     0.022 A 
HETATM   16  C   UNL     1     -39.760 -45.383  14.496  1.00  0.00     0.022 A 
ENDBRANCH  13  14
BRANCH  13  17
HETATM   17  C   UNL     1     -40.622 -46.601  11.201  1.00  0.00     0.200 C 
BRANCH  17  18
HETATM   18  C   UNL     1     -41.783 -47.344  10.538  1.00  0.00     0.231 C 
HETATM   19  N   UNL     1     -42.981 -46.695  10.351  1.00  0.00    -0.355 N 
HETATM   20  H   UNL     1     -43.125 -45.805  10.833  1.00  0.00     0.162 HD
HETATM   21  O   UNL     1     -41.629 -48.527  10.205  1.00  0.00    -0.272 OA
BRANCH  19  22
HETATM   22  C   UNL     1     -44.118 -47.386   9.813  1.00  0.00     0.084 A 
HETATM   23  C   UNL     1     -44.301 -47.630   8.342  1.00  0.00     0.027 A 
HETATM   24  C   UNL     1     -45.174 -46.634   9.045  1.00  0.00     0.027 A 
ENDBRANCH  19  22
ENDBRANCH  17  18
ENDBRANCH  13  17
ENDBRANCH   3  13
BRANCH   2  25
HETATM   25  C   UNL     1     -39.622 -52.848  14.255  1.00  0.00     0.138 C 
BRANCH  25  26
HETATM   26  C   UNL     1     -40.622 -53.862  13.658  1.00  0.00     0.034 C 
BRANCH  26  27
HETATM   27  C   UNL     1     -41.601 -54.415  14.736  1.00  0.00     0.019 C 
HETATM   28  C   UNL     1     -43.024 -53.864  14.688  1.00  0.00     0.172 C 
HETATM   29  O   UNL     1     -43.208 -53.090  15.874  1.00  0.00    -0.391 OA
HETATM   30  C   UNL     1     -42.392 -53.679  16.885  1.00  0.00     0.168 C 
HETATM   31  C   UNL     1     -41.154 -54.184  16.174  1.00  0.00     0.033 C 
ENDBRANCH  26  27
BRANCH  26  32
HETATM   32  C   UNL     1     -41.277 -53.191  12.437  1.00  0.00     0.170 C 
BRANCH  32  33
HETATM   33  O   UNL     1     -40.533 -53.362  11.247  1.00  0.00    -0.400 OA
HETATM   34  H   UNL     1     -40.768 -54.219  10.854  1.00  0.00     0.209 HD
ENDBRANCH  32  33
ENDBRANCH  26  32
ENDBRANCH  25  26
ENDBRANCH   2  25
TORSDOF 10
ENDMDL
