MODEL 1
REMARK VINA RESULT:      -6.1      0.000      0.000
REMARK  7 active torsions:
REMARK  status: ('A' for Active; 'I' for Inactive)
REMARK    1  A    between atoms: C_2  and  N_3 
REMARK    2  A    between atoms: C_2  and  C_13 
REMARK    3  A    between atoms: N_3  and  C_4 
REMARK    4  A    between atoms: C_4  and  C_5 
REMARK    5  A    between atoms: C_5  and  N_6 
REMARK       I    between atoms: C_13  and  N_15 
REMARK    6  A    between atoms: N_15  and  C_16 
REMARK    7  A    between atoms: C_16  and  C_17 
ROOT
HETATM    1  C   UNL     1     -43.223 -48.229  12.458  1.00  0.00     0.053 C 
HETATM    2  C   UNL     1     -42.284 -48.128  11.259  1.00  0.00     0.307 C 
ENDROOT
BRANCH   2   3
HETATM    3  N   UNL     1     -41.653 -49.440  10.997  1.00  0.00     0.098 N 
HETATM    4  H   UNL     1     -40.658 -49.262  10.819  1.00  0.00     0.317 HD
BRANCH   3   5
HETATM    5  C   UNL     1     -41.728 -50.367  12.149  1.00  0.00     0.292 C 
BRANCH   5   6
HETATM    6  C   UNL     1     -41.367 -51.818  11.823  1.00  0.00     0.178 C 
BRANCH   6   7
HETATM    7  N   UNL     1     -42.259 -52.751  12.484  1.00  0.00    -0.302 N 
HETATM    8  C   UNL     1     -42.014 -53.442  13.634  1.00  0.00     0.118 A 
HETATM    9  C   UNL     1     -43.134 -54.212  13.868  1.00  0.00    -0.028 A 
HETATM   10  C   UNL     1     -43.388 -55.140  14.990  1.00  0.00     0.051 C 
HETATM   11  C   UNL     1     -43.990 -53.913  12.785  1.00  0.00     0.115 A 
HETATM   12  N   UNL     1     -43.457 -53.029  11.939  1.00  0.00    -0.310 N 
ATOM     13  HN  UNL     1     -43.862 -52.653  11.082  1.00  0.00     0.186 HD
ENDBRANCH   6   7
ENDBRANCH   5   6
ENDBRANCH   3   5
ENDBRANCH   2   3
BRANCH   2  14
HETATM   14  C   UNL     1     -43.095 -47.646  10.042  1.00  0.00     0.250 C 
HETATM   15  O   UNL     1     -42.583 -47.128   9.054  1.00  0.00    -0.271 OA
HETATM   16  N   UNL     1     -44.455 -47.838  10.159  1.00  0.00    -0.351 N 
HETATM   17  H   UNL     1     -44.805 -48.457  10.882  1.00  0.00     0.162 HD
BRANCH  16  18
HETATM   18  C   UNL     1     -45.350 -47.478   9.060  1.00  0.00     0.240 C 
BRANCH  18  19
HETATM   19  C   UNL     1     -46.596 -48.360   8.906  1.00  0.00     0.403 C 
HETATM   20  F   UNL     1     -46.686 -49.294   9.881  1.00  0.00    -0.169 F 
HETATM   21  F   UNL     1     -47.716 -47.598   8.991  1.00  0.00    -0.169 F 
HETATM   22  F   UNL     1     -46.630 -48.992   7.715  1.00  0.00    -0.169 F 
ENDBRANCH  18  19
ENDBRANCH  16  18
ENDBRANCH   2  14
TORSDOF 7
ENDMDL
MODEL 2
REMARK VINA RESULT:      -6.0      2.458      2.976
REMARK  7 active torsions:
REMARK  status: ('A' for Active; 'I' for Inactive)
REMARK    1  A    between atoms: C_2  and  N_3 
REMARK    2  A    between atoms: C_2  and  C_13 
REMARK    3  A    between atoms: N_3  and  C_4 
REMARK    4  A    between atoms: C_4  and  C_5 
REMARK    5  A    between atoms: C_5  and  N_6 
REMARK       I    between atoms: C_13  and  N_15 
REMARK    6  A    between atoms: N_15  and  C_16 
REMARK    7  A    between atoms: C_16  and  C_17 
ROOT
HETATM    1  C   UNL     1     -43.060 -49.582  13.317  1.00  0.00     0.053 C 
HETATM    2  C   UNL     1     -41.859 -49.978  12.462  1.00  0.00     0.307 C 
ENDROOT
BRANCH   2   3
HETATM    3  N   UNL     1     -42.103 -51.288  11.820  1.00  0.00     0.098 N 
HETATM    4  H   UNL     1     -41.265 -51.510  11.269  1.00  0.00     0.317 HD
BRANCH   3   5
HETATM    5  C   UNL     1     -42.290 -52.390  12.790  1.00  0.00     0.292 C 
BRANCH   5   6
HETATM    6  C   UNL     1     -43.524 -53.258  12.535  1.00  0.00     0.178 C 
BRANCH   6   7
HETATM    7  N   UNL     1     -44.733 -52.625  13.028  1.00  0.00    -0.302 N 
HETATM    8  C   UNL     1     -45.099 -52.467  14.333  1.00  0.00     0.118 A 
HETATM    9  C   UNL     1     -46.322 -51.830  14.314  1.00  0.00    -0.028 A 
HETATM   10  C   UNL     1     -47.155 -51.417  15.464  1.00  0.00     0.051 C 
HETATM   11  C   UNL     1     -46.604 -51.663  12.941  1.00  0.00     0.115 A 
HETATM   12  N   UNL     1     -45.641 -52.150  12.156  1.00  0.00    -0.310 N 
ATOM     13  HN  UNL     1     -45.602 -52.161  11.137  1.00  0.00     0.186 HD
ENDBRANCH   6   7
ENDBRANCH   5   6
ENDBRANCH   3   5
ENDBRANCH   2   3
BRANCH   2  14
HETATM   14  C   UNL     1     -41.623 -48.876  11.412  1.00  0.00     0.250 C 
HETATM   15  O   UNL     1     -40.546 -48.306  11.265  1.00  0.00    -0.271 OA
HETATM   16  N   UNL     1     -42.732 -48.575  10.652  1.00  0.00    -0.351 N 
HETATM   17  H   UNL     1     -43.522 -49.211  10.659  1.00  0.00     0.162 HD
BRANCH  16  18
HETATM   18  C   UNL     1     -42.646 -47.586   9.578  1.00  0.00     0.240 C 
BRANCH  18  19
HETATM   19  C   UNL     1     -43.893 -47.461   8.692  1.00  0.00     0.403 C 
HETATM   20  F   UNL     1     -45.013 -47.882   9.324  1.00  0.00    -0.169 F 
HETATM   21  F   UNL     1     -44.097 -46.161   8.361  1.00  0.00    -0.169 F 
HETATM   22  F   UNL     1     -43.773 -48.156   7.542  1.00  0.00    -0.169 F 
ENDBRANCH  18  19
ENDBRANCH  16  18
ENDBRANCH   2  14
TORSDOF 7
ENDMDL
MODEL 3
REMARK VINA RESULT:      -5.9      2.221      2.784
REMARK  7 active torsions:
REMARK  status: ('A' for Active; 'I' for Inactive)
REMARK    1  A    between atoms: C_2  and  N_3 
REMARK    2  A    between atoms: C_2  and  C_13 
REMARK    3  A    between atoms: N_3  and  C_4 
REMARK    4  A    between atoms: C_4  and  C_5 
REMARK    5  A    between atoms: C_5  and  N_6 
REMARK       I    between atoms: C_13  and  N_15 
REMARK    6  A    between atoms: N_15  and  C_16 
REMARK    7  A    between atoms: C_16  and  C_17 
ROOT
HETATM    1  C   UNL     1     -39.482 -49.089  12.621  1.00  0.00     0.053 C 
HETATM    2  C   UNL     1     -40.063 -49.244  11.218  1.00  0.00     0.307 C 
ENDROOT
BRANCH   2   3
HETATM    3  N   UNL     1     -40.662 -50.588  11.063  1.00  0.00     0.098 N 
HETATM    4  H   UNL     1     -39.950 -51.182  10.622  1.00  0.00     0.317 HD
BRANCH   3   5
HETATM    5  C   UNL     1     -41.020 -51.222  12.351  1.00  0.00     0.292 C 
BRANCH   5   6
HETATM    6  C   UNL     1     -41.639 -52.616  12.224  1.00  0.00     0.178 C 
BRANCH   6   7
HETATM    7  N   UNL     1     -43.050 -52.606  12.561  1.00  0.00    -0.302 N 
HETATM    8  C   UNL     1     -43.716 -51.644  13.263  1.00  0.00     0.118 A 
HETATM    9  C   UNL     1     -45.025 -52.069  13.350  1.00  0.00    -0.028 A 
HETATM   10  C   UNL     1     -46.165 -51.389  14.002  1.00  0.00     0.051 C 
HETATM   11  C   UNL     1     -45.032 -53.309  12.674  1.00  0.00     0.115 A 
HETATM   12  N   UNL     1     -43.830 -53.640  12.198  1.00  0.00    -0.310 N 
ATOM     13  HN  UNL     1     -43.565 -54.478  11.681  1.00  0.00     0.186 HD
ENDBRANCH   6   7
ENDBRANCH   5   6
ENDBRANCH   3   5
ENDBRANCH   2   3
BRANCH   2  14
HETATM   14  C   UNL     1     -41.111 -48.137  10.998  1.00  0.00     0.250 C 
HETATM   15  O   UNL     1     -40.993 -47.000  11.444  1.00  0.00    -0.271 OA
HETATM   16  N   UNL     1     -42.206 -48.536  10.262  1.00  0.00    -0.351 N 
HETATM   17  H   UNL     1     -42.159 -49.403   9.740  1.00  0.00     0.162 HD
BRANCH  16  18
HETATM   18  C   UNL     1     -43.260 -47.580   9.927  1.00  0.00     0.240 C 
BRANCH  18  19
HETATM   19  C   UNL     1     -43.578 -47.442   8.432  1.00  0.00     0.403 C 
HETATM   20  F   UNL     1     -42.909 -48.348   7.682  1.00  0.00    -0.169 F 
HETATM   21  F   UNL     1     -44.901 -47.659   8.219  1.00  0.00    -0.169 F 
HETATM   22  F   UNL     1     -43.290 -46.212   7.961  1.00  0.00    -0.169 F 
ENDBRANCH  18  19
ENDBRANCH  16  18
ENDBRANCH   2  14
TORSDOF 7
ENDMDL
MODEL 4
REMARK VINA RESULT:      -5.7      1.770      2.158
REMARK  7 active torsions:
REMARK  status: ('A' for Active; 'I' for Inactive)
REMARK    1  A    between atoms: C_2  and  N_3 
REMARK    2  A    between atoms: C_2  and  C_13 
REMARK    3  A    between atoms: N_3  and  C_4 
REMARK    4  A    between atoms: C_4  and  C_5 
REMARK    5  A    between atoms: C_5  and  N_6 
REMARK       I    between atoms: C_13  and  N_15 
REMARK    6  A    between atoms: N_15  and  C_16 
REMARK    7  A    between atoms: C_16  and  C_17 
ROOT
HETATM    1  C   UNL     1     -42.991 -46.978  11.996  1.00  0.00     0.053 C 
HETATM    2  C   UNL     1     -42.255 -46.407  10.788  1.00  0.00     0.307 C 
ENDROOT
BRANCH   2   3
HETATM    3  N   UNL     1     -41.106 -47.272  10.437  1.00  0.00     0.098 N 
HETATM    4  H   UNL     1     -40.276 -46.669  10.416  1.00  0.00     0.317 HD
BRANCH   3   5
HETATM    5  C   UNL     1     -40.848 -48.334  11.434  1.00  0.00     0.292 C 
BRANCH   5   6
HETATM    6  C   UNL     1     -40.446 -49.684  10.836  1.00  0.00     0.178 C 
BRANCH   6   7
HETATM    7  N   UNL     1     -40.645 -50.767  11.781  1.00  0.00    -0.302 N 
HETATM    8  C   UNL     1     -39.793 -51.152  12.775  1.00  0.00     0.118 A 
HETATM    9  C   UNL     1     -40.392 -52.225  13.400  1.00  0.00    -0.028 A 
HETATM   10  C   UNL     1     -39.889 -53.011  14.548  1.00  0.00     0.051 C 
HETATM   11  C   UNL     1     -41.599 -52.409  12.692  1.00  0.00     0.115 A 
HETATM   12  N   UNL     1     -41.753 -51.526  11.703  1.00  0.00    -0.310 N 
ATOM     13  HN  UNL     1     -42.527 -51.445  11.044  1.00  0.00     0.186 HD
ENDBRANCH   6   7
ENDBRANCH   5   6
ENDBRANCH   3   5
ENDBRANCH   2   3
BRANCH   2  14
HETATM   14  C   UNL     1     -43.249 -46.298   9.616  1.00  0.00     0.250 C 
HETATM   15  O   UNL     1     -42.960 -45.799   8.532  1.00  0.00    -0.271 OA
HETATM   16  N   UNL     1     -44.502 -46.801   9.892  1.00  0.00    -0.351 N 
HETATM   17  H   UNL     1     -44.628 -47.389  10.708  1.00  0.00     0.162 HD
BRANCH  16  18
HETATM   18  C   UNL     1     -45.537 -46.814   8.859  1.00  0.00     0.240 C 
BRANCH  18  19
HETATM   19  C   UNL     1     -46.484 -48.021   8.887  1.00  0.00     0.403 C 
HETATM   20  F   UNL     1     -46.207 -48.864   9.908  1.00  0.00    -0.169 F 
HETATM   21  F   UNL     1     -47.763 -47.601   9.064  1.00  0.00    -0.169 F 
HETATM   22  F   UNL     1     -46.447 -48.725   7.738  1.00  0.00    -0.169 F 
ENDBRANCH  18  19
ENDBRANCH  16  18
ENDBRANCH   2  14
TORSDOF 7
ENDMDL
MODEL 5
REMARK VINA RESULT:      -5.5      1.728      2.254
REMARK  7 active torsions:
REMARK  status: ('A' for Active; 'I' for Inactive)
REMARK    1  A    between atoms: C_2  and  N_3 
REMARK    2  A    between atoms: C_2  and  C_13 
REMARK    3  A    between atoms: N_3  and  C_4 
REMARK    4  A    between atoms: C_4  and  C_5 
REMARK    5  A    between atoms: C_5  and  N_6 
REMARK       I    between atoms: C_13  and  N_15 
REMARK    6  A    between atoms: N_15  and  C_16 
REMARK    7  A    between atoms: C_16  and  C_17 
ROOT
HETATM    1  C   UNL     1     -43.200 -49.744  13.123  1.00  0.00     0.053 C 
HETATM    2  C   UNL     1     -41.868 -49.887  12.394  1.00  0.00     0.307 C 
ENDROOT
BRANCH   2   3
HETATM    3  N   UNL     1     -41.776 -51.222  11.762  1.00  0.00     0.098 N 
HETATM    4  H   UNL     1     -41.474 -51.072  10.793  1.00  0.00     0.317 HD
BRANCH   3   5
HETATM    5  C   UNL     1     -40.772 -52.103  12.399  1.00  0.00     0.292 C 
BRANCH   5   6
HETATM    6  C   UNL     1     -41.225 -53.552  12.587  1.00  0.00     0.178 C 
BRANCH   6   7
HETATM    7  N   UNL     1     -42.578 -53.624  13.106  1.00  0.00    -0.302 N 
HETATM    8  C   UNL     1     -42.969 -53.437  14.400  1.00  0.00     0.118 A 
HETATM    9  C   UNL     1     -44.336 -53.619  14.419  1.00  0.00    -0.028 A 
HETATM   10  C   UNL     1     -45.255 -53.521  15.573  1.00  0.00     0.051 C 
HETATM   11  C   UNL     1     -44.663 -53.924  13.080  1.00  0.00     0.115 A 
HETATM   12  N   UNL     1     -43.594 -53.933  12.280  1.00  0.00    -0.310 N 
ATOM     13  HN  UNL     1     -43.556 -54.128  11.280  1.00  0.00     0.186 HD
ENDBRANCH   6   7
ENDBRANCH   5   6
ENDBRANCH   3   5
ENDBRANCH   2   3
BRANCH   2  14
HETATM   14  C   UNL     1     -41.761 -48.765  11.345  1.00  0.00     0.250 C 
HETATM   15  O   UNL     1     -40.724 -48.146  11.124  1.00  0.00    -0.271 OA
HETATM   16  N   UNL     1     -42.938 -48.504  10.677  1.00  0.00    -0.351 N 
HETATM   17  H   UNL     1     -43.696 -49.173  10.735  1.00  0.00     0.162 HD
BRANCH  16  18
HETATM   18  C   UNL     1     -42.978 -47.500   9.614  1.00  0.00     0.240 C 
BRANCH  18  19
HETATM   19  C   UNL     1     -44.328 -47.344   8.902  1.00  0.00     0.403 C 
HETATM   20  F   UNL     1     -44.610 -46.051   8.619  1.00  0.00    -0.169 F 
HETATM   21  F   UNL     1     -44.306 -48.006   7.718  1.00  0.00    -0.169 F 
HETATM   22  F   UNL     1     -45.348 -47.848   9.626  1.00  0.00    -0.169 F 
ENDBRANCH  18  19
ENDBRANCH  16  18
ENDBRANCH   2  14
TORSDOF 7
ENDMDL
MODEL 6
REMARK VINA RESULT:      -5.4      2.703      4.008
REMARK  7 active torsions:
REMARK  status: ('A' for Active; 'I' for Inactive)
REMARK    1  A    between atoms: C_2  and  N_3 
REMARK    2  A    between atoms: C_2  and  C_13 
REMARK    3  A    between atoms: N_3  and  C_4 
REMARK    4  A    between atoms: C_4  and  C_5 
REMARK    5  A    between atoms: C_5  and  N_6 
REMARK       I    between atoms: C_13  and  N_15 
REMARK    6  A    between atoms: N_15  and  C_16 
REMARK    7  A    between atoms: C_16  and  C_17 
ROOT
HETATM    1  C   UNL     1     -42.957 -47.317  12.588  1.00  0.00     0.053 C 
HETATM    2  C   UNL     1     -42.288 -47.728  11.280  1.00  0.00     0.307 C 
ENDROOT
BRANCH   2   3
HETATM    3  N   UNL     1     -42.122 -49.197  11.234  1.00  0.00     0.098 N 
HETATM    4  H   UNL     1     -42.633 -49.529  10.407  1.00  0.00     0.317 HD
BRANCH   3   5
HETATM    5  C   UNL     1     -40.714 -49.623  11.075  1.00  0.00     0.292 C 
BRANCH   5   6
HETATM    6  C   UNL     1     -40.255 -50.688  12.073  1.00  0.00     0.178 C 
BRANCH   6   7
HETATM    7  N   UNL     1     -39.305 -50.150  13.029  1.00  0.00    -0.302 N 
HETATM    8  C   UNL     1     -38.770 -48.895  13.031  1.00  0.00     0.118 A 
HETATM    9  C   UNL     1     -37.913 -48.845  14.110  1.00  0.00    -0.028 A 
HETATM   10  C   UNL     1     -37.086 -47.707  14.568  1.00  0.00     0.051 C 
HETATM   11  C   UNL     1     -38.002 -50.132  14.683  1.00  0.00     0.115 A 
HETATM   12  N   UNL     1     -38.845 -50.930  14.024  1.00  0.00    -0.310 N 
ATOM     13  HN  UNL     1     -39.083 -51.900  14.226  1.00  0.00     0.186 HD
ENDBRANCH   6   7
ENDBRANCH   5   6
ENDBRANCH   3   5
ENDBRANCH   2   3
BRANCH   2  14
HETATM   14  C   UNL     1     -43.154 -47.227  10.109  1.00  0.00     0.250 C 
HETATM   15  O   UNL     1     -42.838 -46.279   9.395  1.00  0.00    -0.271 OA
HETATM   16  N   UNL     1     -44.326 -47.929   9.934  1.00  0.00    -0.351 N 
HETATM   17  H   UNL     1     -44.439 -48.823  10.399  1.00  0.00     0.162 HD
BRANCH  16  18
HETATM   18  C   UNL     1     -45.227 -47.603   8.830  1.00  0.00     0.240 C 
BRANCH  18  19
HETATM   19  C   UNL     1     -46.581 -48.324   8.844  1.00  0.00     0.403 C 
HETATM   20  F   UNL     1     -46.828 -48.970   7.680  1.00  0.00    -0.169 F 
HETATM   21  F   UNL     1     -46.594 -49.264   9.822  1.00  0.00    -0.169 F 
HETATM   22  F   UNL     1     -47.606 -47.481   9.082  1.00  0.00    -0.169 F 
ENDBRANCH  18  19
ENDBRANCH  16  18
ENDBRANCH   2  14
TORSDOF 7
ENDMDL
MODEL 7
REMARK VINA RESULT:      -5.4      4.466      6.856
REMARK  7 active torsions:
REMARK  status: ('A' for Active; 'I' for Inactive)
REMARK    1  A    between atoms: C_2  and  N_3 
REMARK    2  A    between atoms: C_2  and  C_13 
REMARK    3  A    between atoms: N_3  and  C_4 
REMARK    4  A    between atoms: C_4  and  C_5 
REMARK    5  A    between atoms: C_5  and  N_6 
REMARK       I    between atoms: C_13  and  N_15 
REMARK    6  A    between atoms: N_15  and  C_16 
REMARK    7  A    between atoms: C_16  and  C_17 
ROOT
HETATM    1  C   UNL     1     -42.944 -46.798  11.920  1.00  0.00     0.053 C 
HETATM    2  C   UNL     1     -42.341 -46.199  10.653  1.00  0.00     0.307 C 
ENDROOT
BRANCH   2   3
HETATM    3  N   UNL     1     -41.071 -46.883  10.323  1.00  0.00     0.098 N 
HETATM    4  H   UNL     1     -40.999 -46.900   9.299  1.00  0.00     0.317 HD
BRANCH   3   5
HETATM    5  C   UNL     1     -39.875 -46.174  10.831  1.00  0.00     0.292 C 
BRANCH   5   6
HETATM    6  C   UNL     1     -39.831 -44.681  10.496  1.00  0.00     0.178 C 
BRANCH   6   7
HETATM    7  N   UNL     1     -40.014 -43.864  11.681  1.00  0.00    -0.302 N 
HETATM    8  C   UNL     1     -40.419 -42.562  11.722  1.00  0.00     0.118 A 
HETATM    9  C   UNL     1     -40.431 -42.204  13.054  1.00  0.00    -0.028 A 
HETATM   10  C   UNL     1     -40.803 -40.902  13.647  1.00  0.00     0.051 C 
HETATM   11  C   UNL     1     -40.002 -43.368  13.728  1.00  0.00     0.115 A 
HETATM   12  N   UNL     1     -39.743 -44.378  12.895  1.00  0.00    -0.310 N 
ATOM     13  HN  UNL     1     -39.417 -45.317  13.123  1.00  0.00     0.186 HD
ENDBRANCH   6   7
ENDBRANCH   5   6
ENDBRANCH   3   5
ENDBRANCH   2   3
BRANCH   2  14
HETATM   14  C   UNL     1     -43.364 -46.341   9.510  1.00  0.00     0.250 C 
HETATM   15  O   UNL     1     -43.780 -45.389   8.857  1.00  0.00    -0.271 OA
HETATM   16  N   UNL     1     -43.784 -47.635   9.288  1.00  0.00    -0.351 N 
HETATM   17  H   UNL     1     -43.260 -48.400   9.696  1.00  0.00     0.162 HD
BRANCH  16  18
HETATM   18  C   UNL     1     -44.715 -47.933   8.201  1.00  0.00     0.240 C 
BRANCH  18  19
HETATM   19  C   UNL     1     -46.170 -48.180   8.624  1.00  0.00     0.403 C 
HETATM   20  F   UNL     1     -46.256 -48.743   9.851  1.00  0.00    -0.169 F 
HETATM   21  F   UNL     1     -46.840 -47.002   8.687  1.00  0.00    -0.169 F 
HETATM   22  F   UNL     1     -46.828 -48.971   7.752  1.00  0.00    -0.169 F 
ENDBRANCH  18  19
ENDBRANCH  16  18
ENDBRANCH   2  14
TORSDOF 7
ENDMDL
MODEL 8
REMARK VINA RESULT:      -5.1      4.453      5.692
REMARK  7 active torsions:
REMARK  status: ('A' for Active; 'I' for Inactive)
REMARK    1  A    between atoms: C_2  and  N_3 
REMARK    2  A    between atoms: C_2  and  C_13 
REMARK    3  A    between atoms: N_3  and  C_4 
REMARK    4  A    between atoms: C_4  and  C_5 
REMARK    5  A    between atoms: C_5  and  N_6 
REMARK       I    between atoms: C_13  and  N_15 
REMARK    6  A    between atoms: N_15  and  C_16 
REMARK    7  A    between atoms: C_16  and  C_17 
ROOT
HETATM    1  C   UNL     1     -43.639 -47.475   8.446  1.00  0.00     0.053 C 
HETATM    2  C   UNL     1     -43.329 -47.231   9.920  1.00  0.00     0.307 C 
ENDROOT
BRANCH   2   3
HETATM    3  N   UNL     1     -42.645 -48.410  10.496  1.00  0.00     0.098 N 
HETATM    4  H   UNL     1     -41.639 -48.209  10.476  1.00  0.00     0.317 HD
BRANCH   3   5
HETATM    5  C   UNL     1     -43.010 -48.666  11.907  1.00  0.00     0.292 C 
BRANCH   5   6
HETATM    6  C   UNL     1     -41.871 -48.453  12.907  1.00  0.00     0.178 C 
BRANCH   6   7
HETATM    7  N   UNL     1     -40.712 -49.260  12.576  1.00  0.00    -0.302 N 
HETATM    8  C   UNL     1     -39.538 -48.822  12.036  1.00  0.00     0.118 A 
HETATM    9  C   UNL     1     -38.744 -49.939  11.883  1.00  0.00    -0.028 A 
HETATM   10  C   UNL     1     -37.368 -50.016  11.347  1.00  0.00     0.051 C 
HETATM   11  C   UNL     1     -39.548 -51.001  12.354  1.00  0.00     0.115 A 
HETATM   12  N   UNL     1     -40.747 -50.590  12.771  1.00  0.00    -0.310 N 
ATOM     13  HN  UNL     1     -41.510 -51.152  13.149  1.00  0.00     0.186 HD
ENDBRANCH   6   7
ENDBRANCH   5   6
ENDBRANCH   3   5
ENDBRANCH   2   3
BRANCH   2  14
HETATM   14  C   UNL     1     -42.455 -45.968  10.033  1.00  0.00     0.250 C 
HETATM   15  O   UNL     1     -42.908 -44.828   9.974  1.00  0.00    -0.271 OA
HETATM   16  N   UNL     1     -41.111 -46.225  10.197  1.00  0.00    -0.351 N 
HETATM   17  H   UNL     1     -40.816 -47.160  10.454  1.00  0.00     0.162 HD
BRANCH  16  18
HETATM   18  C   UNL     1     -40.163 -45.125  10.372  1.00  0.00     0.240 C 
BRANCH  18  19
HETATM   19  C   UNL     1     -39.986 -44.626  11.812  1.00  0.00     0.403 C 
HETATM   20  F   UNL     1     -40.269 -45.586  12.723  1.00  0.00    -0.169 F 
HETATM   21  F   UNL     1     -38.697 -44.260  12.019  1.00  0.00    -0.169 F 
HETATM   22  F   UNL     1     -40.758 -43.553  12.079  1.00  0.00    -0.169 F 
ENDBRANCH  18  19
ENDBRANCH  16  18
ENDBRANCH   2  14
TORSDOF 7
ENDMDL
MODEL 9
REMARK VINA RESULT:      -5.1      3.680      5.315
REMARK  7 active torsions:
REMARK  status: ('A' for Active; 'I' for Inactive)
REMARK    1  A    between atoms: C_2  and  N_3 
REMARK    2  A    between atoms: C_2  and  C_13 
REMARK    3  A    between atoms: N_3  and  C_4 
REMARK    4  A    between atoms: C_4  and  C_5 
REMARK    5  A    between atoms: C_5  and  N_6 
REMARK       I    between atoms: C_13  and  N_15 
REMARK    6  A    between atoms: N_15  and  C_16 
REMARK    7  A    between atoms: C_16  and  C_17 
ROOT
HETATM    1  C   UNL     1     -40.558 -54.246  13.316  1.00  0.00     0.053 C 
HETATM    2  C   UNL     1     -41.361 -53.274  12.456  1.00  0.00     0.307 C 
ENDROOT
BRANCH   2   3
HETATM    3  N   UNL     1     -42.658 -52.977  13.104  1.00  0.00     0.098 N 
HETATM    4  H   UNL     1     -42.813 -51.967  13.008  1.00  0.00     0.317 HD
BRANCH   3   5
HETATM    5  C   UNL     1     -43.804 -53.656  12.460  1.00  0.00     0.292 C 
BRANCH   5   6
HETATM    6  C   UNL     1     -44.847 -54.207  13.435  1.00  0.00     0.178 C 
BRANCH   6   7
HETATM    7  N   UNL     1     -45.666 -53.148  13.994  1.00  0.00    -0.302 N 
HETATM    8  C   UNL     1     -46.142 -53.070  15.270  1.00  0.00     0.118 A 
HETATM    9  C   UNL     1     -46.879 -51.906  15.335  1.00  0.00    -0.028 A 
HETATM   10  C   UNL     1     -47.603 -51.346  16.496  1.00  0.00     0.051 C 
HETATM   11  C   UNL     1     -46.789 -51.367  14.033  1.00  0.00     0.115 A 
HETATM   12  N   UNL     1     -46.056 -52.124  13.214  1.00  0.00    -0.310 N 
ATOM     13  HN  UNL     1     -45.841 -51.964  12.230  1.00  0.00     0.186 HD
ENDBRANCH   6   7
ENDBRANCH   5   6
ENDBRANCH   3   5
ENDBRANCH   2   3
BRANCH   2  14
HETATM   14  C   UNL     1     -40.529 -51.993  12.258  1.00  0.00     0.250 C 
HETATM   15  O   UNL     1     -39.459 -51.791  12.825  1.00  0.00    -0.271 OA
HETATM   16  N   UNL     1     -41.095 -51.082  11.393  1.00  0.00    -0.351 N 
HETATM   17  H   UNL     1     -41.855 -51.380  10.792  1.00  0.00     0.162 HD
BRANCH  16  18
HETATM   18  C   UNL     1     -40.395 -49.841  11.065  1.00  0.00     0.240 C 
BRANCH  18  19
HETATM   19  C   UNL     1     -41.178 -48.549  11.334  1.00  0.00     0.403 C 
HETATM   20  F   UNL     1     -40.571 -47.463  10.801  1.00  0.00    -0.169 F 
HETATM   21  F   UNL     1     -42.408 -48.626  10.767  1.00  0.00    -0.169 F 
HETATM   22  F   UNL     1     -41.356 -48.325  12.652  1.00  0.00    -0.169 F 
ENDBRANCH  18  19
ENDBRANCH  16  18
ENDBRANCH   2  14
TORSDOF 7
ENDMDL
