MODEL 1
REMARK VINA RESULT:      -5.8      0.000      0.000
REMARK  7 active torsions:
REMARK  status: ('A' for Active; 'I' for Inactive)
REMARK    1  A    between atoms: C_7  and  O_8 
REMARK    2  A    between atoms: O_8  and  C_9 
REMARK    3  A    between atoms: C_9  and  C_10 
REMARK    4  A    between atoms: C_10  and  N_11 
REMARK    5  A    between atoms: N_11  and  C_12 
REMARK    6  A    between atoms: C_12  and  C_13 
REMARK    7  A    between atoms: C_13  and  N_14 
ROOT
HETATM    1  C   UNL     1     -42.336 -51.265  12.717  1.00  0.00     0.295 C 
ENDROOT
BRANCH   1   2
HETATM    2  C   UNL     1     -42.520 -52.702  12.246  1.00  0.00     0.198 C 
BRANCH   2   3
HETATM    3  O   UNL     1     -43.915 -53.010  12.237  1.00  0.00    -0.384 OA
BRANCH   3   4
HETATM    4  C   UNL     1     -44.595 -52.546  13.408  1.00  0.00     0.125 C 
HETATM    5  C   UNL     1     -44.829 -53.679  14.431  1.00  0.00     0.010 C 
HETATM    6  C   UNL     1     -45.459 -54.926  13.795  1.00  0.00     0.012 C 
HETATM    7  C   UNL     1     -45.647 -53.163  15.619  1.00  0.00     0.007 C 
HETATM    8  C   UNL     1     -46.960 -52.516  15.191  1.00  0.00     0.001 C 
HETATM    9  C   UNL     1     -46.741 -51.421  14.150  1.00  0.00     0.002 C 
HETATM   10  C   UNL     1     -45.915 -51.906  12.962  1.00  0.00     0.032 C 
ENDBRANCH   3   4
ENDBRANCH   2   3
ENDBRANCH   1   2
BRANCH   1  11
HETATM   11  N   UNL     1     -41.772 -50.442  11.640  1.00  0.00     0.087 N 
HETATM   12  H   UNL     1     -42.170 -50.755  10.750  1.00  0.00     0.316 HD
BRANCH  11  13
HETATM   13  C   UNL     1     -42.103 -49.021  11.816  1.00  0.00     0.291 C 
BRANCH  13  14
HETATM   14  C   UNL     1     -41.690 -48.155  10.625  1.00  0.00     0.178 C 
BRANCH  14  15
HETATM   15  N   UNL     1     -42.821 -47.856   9.774  1.00  0.00    -0.302 N 
HETATM   16  C   UNL     1     -44.043 -47.398  10.169  1.00  0.00     0.111 A 
HETATM   17  C   UNL     1     -44.796 -47.300   9.024  1.00  0.00     0.037 A 
HETATM   18  C   UNL     1     -43.934 -47.716   7.993  1.00  0.00     0.108 A 
HETATM   19  N   UNL     1     -42.723 -48.046   8.447  1.00  0.00    -0.310 N 
ATOM     20  HN  UNL     1     -41.916 -48.367   7.914  1.00  0.00     0.186 HD
ENDBRANCH  14  15
ENDBRANCH  13  14
ENDBRANCH  11  13
ENDBRANCH   1  11
TORSDOF 7
ENDMDL
MODEL 2
REMARK VINA RESULT:      -5.5      1.338      2.297
REMARK  7 active torsions:
REMARK  status: ('A' for Active; 'I' for Inactive)
REMARK    1  A    between atoms: C_7  and  O_8 
REMARK    2  A    between atoms: O_8  and  C_9 
REMARK    3  A    between atoms: C_9  and  C_10 
REMARK    4  A    between atoms: C_10  and  N_11 
REMARK    5  A    between atoms: N_11  and  C_12 
REMARK    6  A    between atoms: C_12  and  C_13 
REMARK    7  A    between atoms: C_13  and  N_14 
ROOT
HETATM    1  C   UNL     1     -41.129 -53.065  13.001  1.00  0.00     0.295 C 
ENDROOT
BRANCH   1   2
HETATM    2  C   UNL     1     -42.508 -53.705  12.905  1.00  0.00     0.198 C 
BRANCH   2   3
HETATM    3  O   UNL     1     -43.394 -52.798  12.246  1.00  0.00    -0.384 OA
BRANCH   3   4
HETATM    4  C   UNL     1     -44.732 -52.860  12.751  1.00  0.00     0.125 C 
HETATM    5  C   UNL     1     -45.222 -51.489  13.265  1.00  0.00     0.010 C 
HETATM    6  C   UNL     1     -44.222 -50.827  14.223  1.00  0.00     0.012 C 
HETATM    7  C   UNL     1     -46.615 -51.622  13.889  1.00  0.00     0.007 C 
HETATM    8  C   UNL     1     -46.669 -52.681  14.984  1.00  0.00     0.001 C 
HETATM    9  C   UNL     1     -46.149 -54.031  14.495  1.00  0.00     0.002 C 
HETATM   10  C   UNL     1     -44.768 -53.923  13.855  1.00  0.00     0.032 C 
ENDBRANCH   3   4
ENDBRANCH   2   3
ENDBRANCH   1   2
BRANCH   1  11
HETATM   11  N   UNL     1     -40.909 -52.151  11.874  1.00  0.00     0.087 N 
HETATM   12  H   UNL     1     -41.791 -52.048  11.362  1.00  0.00     0.316 HD
BRANCH  11  13
HETATM   13  C   UNL     1     -40.487 -50.820  12.331  1.00  0.00     0.291 C 
BRANCH  13  14
HETATM   14  C   UNL     1     -40.270 -49.830  11.186  1.00  0.00     0.178 C 
BRANCH  14  15
HETATM   15  N   UNL     1     -41.428 -48.983  10.995  1.00  0.00    -0.302 N 
HETATM   16  C   UNL     1     -42.388 -48.692  11.918  1.00  0.00     0.111 A 
HETATM   17  C   UNL     1     -43.297 -47.888  11.274  1.00  0.00     0.037 A 
HETATM   18  C   UNL     1     -42.790 -47.750   9.968  1.00  0.00     0.108 A 
HETATM   19  N   UNL     1     -41.642 -48.410   9.799  1.00  0.00    -0.310 N 
ATOM     20  HN  UNL     1     -41.065 -48.466   8.960  1.00  0.00     0.186 HD
ENDBRANCH  14  15
ENDBRANCH  13  14
ENDBRANCH  11  13
ENDBRANCH   1  11
TORSDOF 7
ENDMDL
MODEL 3
REMARK VINA RESULT:      -5.4      1.524      2.459
REMARK  7 active torsions:
REMARK  status: ('A' for Active; 'I' for Inactive)
REMARK    1  A    between atoms: C_7  and  O_8 
REMARK    2  A    between atoms: O_8  and  C_9 
REMARK    3  A    between atoms: C_9  and  C_10 
REMARK    4  A    between atoms: C_10  and  N_11 
REMARK    5  A    between atoms: N_11  and  C_12 
REMARK    6  A    between atoms: C_12  and  C_13 
REMARK    7  A    between atoms: C_13  and  N_14 
ROOT
HETATM    1  C   UNL     1     -40.073 -50.646  11.948  1.00  0.00     0.295 C 
ENDROOT
BRANCH   1   2
HETATM    2  C   UNL     1     -40.752 -52.008  12.013  1.00  0.00     0.198 C 
BRANCH   2   3
HETATM    3  O   UNL     1     -41.681 -52.010  13.098  1.00  0.00    -0.384 OA
BRANCH   3   4
HETATM    4  C   UNL     1     -42.464 -53.207  13.158  1.00  0.00     0.125 C 
HETATM    5  C   UNL     1     -43.932 -52.963  12.746  1.00  0.00     0.010 C 
HETATM    6  C   UNL     1     -44.558 -51.768  13.479  1.00  0.00     0.012 C 
HETATM    7  C   UNL     1     -44.754 -54.242  12.923  1.00  0.00     0.007 C 
HETATM    8  C   UNL     1     -44.658 -54.813  14.333  1.00  0.00     0.001 C 
HETATM    9  C   UNL     1     -43.208 -55.021  14.764  1.00  0.00     0.002 C 
HETATM   10  C   UNL     1     -42.362 -53.763  14.584  1.00  0.00     0.032 C 
ENDBRANCH   3   4
ENDBRANCH   2   3
ENDBRANCH   1   2
BRANCH   1  11
HETATM   11  N   UNL     1     -40.418 -49.961  10.696  1.00  0.00     0.087 N 
HETATM   12  H   UNL     1     -41.161 -50.492  10.231  1.00  0.00     0.316 HD
BRANCH  11  13
HETATM   13  C   UNL     1     -40.914 -48.601  10.944  1.00  0.00     0.291 C 
BRANCH  13  14
HETATM   14  C   UNL     1     -42.419 -48.548  11.214  1.00  0.00     0.178 C 
BRANCH  14  15
HETATM   15  N   UNL     1     -43.132 -47.947  10.108  1.00  0.00    -0.302 N 
HETATM   16  C   UNL     1     -44.264 -47.190  10.181  1.00  0.00     0.111 A 
HETATM   17  C   UNL     1     -44.591 -46.876   8.884  1.00  0.00     0.037 A 
HETATM   18  C   UNL     1     -43.591 -47.488   8.106  1.00  0.00     0.108 A 
HETATM   19  N   UNL     1     -42.692 -48.134   8.852  1.00  0.00    -0.310 N 
ATOM     20  HN  UNL     1     -41.868 -48.648   8.543  1.00  0.00     0.186 HD
ENDBRANCH  14  15
ENDBRANCH  13  14
ENDBRANCH  11  13
ENDBRANCH   1  11
TORSDOF 7
ENDMDL
MODEL 4
REMARK VINA RESULT:      -5.1      3.458      4.352
REMARK  7 active torsions:
REMARK  status: ('A' for Active; 'I' for Inactive)
REMARK    1  A    between atoms: C_7  and  O_8 
REMARK    2  A    between atoms: O_8  and  C_9 
REMARK    3  A    between atoms: C_9  and  C_10 
REMARK    4  A    between atoms: C_10  and  N_11 
REMARK    5  A    between atoms: N_11  and  C_12 
REMARK    6  A    between atoms: C_12  and  C_13 
REMARK    7  A    between atoms: C_13  and  N_14 
ROOT
HETATM    1  C   UNL     1     -41.482 -54.204  13.354  1.00  0.00     0.295 C 
ENDROOT
BRANCH   1   2
HETATM    2  C   UNL     1     -43.004 -54.221  13.294  1.00  0.00     0.198 C 
BRANCH   2   3
HETATM    3  O   UNL     1     -43.520 -54.051  14.616  1.00  0.00    -0.384 OA
BRANCH   3   4
HETATM    4  C   UNL     1     -44.367 -52.903  14.739  1.00  0.00     0.125 C 
HETATM    5  C   UNL     1     -45.698 -53.237  15.446  1.00  0.00     0.010 C 
HETATM    6  C   UNL     1     -46.393 -54.466  14.842  1.00  0.00     0.012 C 
HETATM    7  C   UNL     1     -46.613 -52.009  15.465  1.00  0.00     0.007 C 
HETATM    8  C   UNL     1     -46.849 -51.431  14.074  1.00  0.00     0.001 C 
HETATM    9  C   UNL     1     -45.537 -51.134  13.353  1.00  0.00     0.002 C 
HETATM   10  C   UNL     1     -44.600 -52.338  13.333  1.00  0.00     0.032 C 
ENDBRANCH   3   4
ENDBRANCH   2   3
ENDBRANCH   1   2
BRANCH   1  11
HETATM   11  N   UNL     1     -40.925 -53.729  12.082  1.00  0.00     0.087 N 
HETATM   12  H   UNL     1     -41.337 -54.279  11.322  1.00  0.00     0.316 HD
BRANCH  11  13
HETATM   13  C   UNL     1     -41.243 -52.314  11.847  1.00  0.00     0.291 C 
BRANCH  13  14
HETATM   14  C   UNL     1     -40.699 -51.386  12.934  1.00  0.00     0.178 C 
BRANCH  14  15
HETATM   15  N   UNL     1     -39.344 -50.970  12.642  1.00  0.00    -0.302 N 
HETATM   16  C   UNL     1     -38.953 -50.057  11.708  1.00  0.00     0.111 A 
HETATM   17  C   UNL     1     -37.581 -50.021  11.768  1.00  0.00     0.037 A 
HETATM   18  C   UNL     1     -37.244 -50.945  12.775  1.00  0.00     0.108 A 
HETATM   19  N   UNL     1     -38.320 -51.518  13.318  1.00  0.00    -0.310 N 
ATOM     20  HN  UNL     1     -38.356 -52.209  14.067  1.00  0.00     0.186 HD
ENDBRANCH  14  15
ENDBRANCH  13  14
ENDBRANCH  11  13
ENDBRANCH   1  11
TORSDOF 7
ENDMDL
MODEL 5
REMARK VINA RESULT:      -5.1      1.511      1.992
REMARK  7 active torsions:
REMARK  status: ('A' for Active; 'I' for Inactive)
REMARK    1  A    between atoms: C_7  and  O_8 
REMARK    2  A    between atoms: O_8  and  C_9 
REMARK    3  A    between atoms: C_9  and  C_10 
REMARK    4  A    between atoms: C_10  and  N_11 
REMARK    5  A    between atoms: N_11  and  C_12 
REMARK    6  A    between atoms: C_12  and  C_13 
REMARK    7  A    between atoms: C_13  and  N_14 
ROOT
HETATM    1  C   UNL     1     -42.364 -49.396  12.092  1.00  0.00     0.295 C 
ENDROOT
BRANCH   1   2
HETATM    2  C   UNL     1     -43.241 -49.653  13.310  1.00  0.00     0.198 C 
BRANCH   2   3
HETATM    3  O   UNL     1     -44.332 -50.491  12.925  1.00  0.00    -0.384 OA
BRANCH   3   4
HETATM    4  C   UNL     1     -44.783 -51.340  13.986  1.00  0.00     0.125 C 
HETATM    5  C   UNL     1     -44.157 -52.749  13.909  1.00  0.00     0.010 C 
HETATM    6  C   UNL     1     -44.283 -53.373  12.511  1.00  0.00     0.012 C 
HETATM    7  C   UNL     1     -44.743 -53.652  14.997  1.00  0.00     0.007 C 
HETATM    8  C   UNL     1     -46.265 -53.715  14.953  1.00  0.00     0.001 C 
HETATM    9  C   UNL     1     -46.892 -52.323  14.989  1.00  0.00     0.002 C 
HETATM   10  C   UNL     1     -46.314 -51.398  13.922  1.00  0.00     0.032 C 
ENDBRANCH   3   4
ENDBRANCH   2   3
ENDBRANCH   1   2
BRANCH   1  11
HETATM   11  N   UNL     1     -42.647 -48.071  11.526  1.00  0.00     0.087 N 
HETATM   12  H   UNL     1     -42.045 -47.385  11.993  1.00  0.00     0.316 HD
BRANCH  11  13
HETATM   13  C   UNL     1     -42.362 -48.026  10.086  1.00  0.00     0.291 C 
BRANCH  13  14
HETATM   14  C   UNL     1     -43.202 -46.989   9.339  1.00  0.00     0.178 C 
BRANCH  14  15
HETATM   15  N   UNL     1     -44.468 -47.545   8.913  1.00  0.00    -0.302 N 
HETATM   16  C   UNL     1     -45.650 -47.498   9.592  1.00  0.00     0.111 A 
HETATM   17  C   UNL     1     -46.555 -48.186   8.820  1.00  0.00     0.037 A 
HETATM   18  C   UNL     1     -45.819 -48.603   7.695  1.00  0.00     0.108 A 
HETATM   19  N   UNL     1     -44.547 -48.203   7.745  1.00  0.00    -0.310 N 
ATOM     20  HN  UNL     1     -43.809 -48.360   7.058  1.00  0.00     0.186 HD
ENDBRANCH  14  15
ENDBRANCH  13  14
ENDBRANCH  11  13
ENDBRANCH   1  11
TORSDOF 7
ENDMDL
MODEL 6
REMARK VINA RESULT:      -5.0      3.156      5.323
REMARK  7 active torsions:
REMARK  status: ('A' for Active; 'I' for Inactive)
REMARK    1  A    between atoms: C_7  and  O_8 
REMARK    2  A    between atoms: O_8  and  C_9 
REMARK    3  A    between atoms: C_9  and  C_10 
REMARK    4  A    between atoms: C_10  and  N_11 
REMARK    5  A    between atoms: N_11  and  C_12 
REMARK    6  A    between atoms: C_12  and  C_13 
REMARK    7  A    between atoms: C_13  and  N_14 
ROOT
HETATM    1  C   UNL     1     -42.212 -50.498  13.032  1.00  0.00     0.295 C 
ENDROOT
BRANCH   1   2
HETATM    2  C   UNL     1     -41.581 -51.643  12.249  1.00  0.00     0.198 C 
BRANCH   2   3
HETATM    3  O   UNL     1     -40.205 -51.340  12.016  1.00  0.00    -0.384 OA
BRANCH   3   4
HETATM    4  C   UNL     1     -39.585 -50.680  13.124  1.00  0.00     0.125 C 
HETATM    5  C   UNL     1     -38.548 -49.630  12.669  1.00  0.00     0.010 C 
HETATM    6  C   UNL     1     -37.557 -50.190  11.640  1.00  0.00     0.012 C 
HETATM    7  C   UNL     1     -37.838 -49.023  13.882  1.00  0.00     0.007 C 
HETATM    8  C   UNL     1     -37.205 -50.078  14.782  1.00  0.00     0.001 C 
HETATM    9  C   UNL     1     -38.214 -51.143  15.205  1.00  0.00     0.002 C 
HETATM   10  C   UNL     1     -38.947 -51.754  14.014  1.00  0.00     0.032 C 
ENDBRANCH   3   4
ENDBRANCH   2   3
ENDBRANCH   1   2
BRANCH   1  11
HETATM   11  N   UNL     1     -42.880 -49.561  12.121  1.00  0.00     0.087 N 
HETATM   12  H   UNL     1     -43.840 -49.417  12.451  1.00  0.00     0.316 HD
BRANCH  11  13
HETATM   13  C   UNL     1     -42.205 -48.257  12.096  1.00  0.00     0.291 C 
BRANCH  13  14
HETATM   14  C   UNL     1     -41.514 -47.961  10.764  1.00  0.00     0.178 C 
BRANCH  14  15
HETATM   15  N   UNL     1     -42.454 -47.463   9.783  1.00  0.00    -0.302 N 
HETATM   16  C   UNL     1     -43.133 -46.281   9.830  1.00  0.00     0.111 A 
HETATM   17  C   UNL     1     -43.929 -46.261   8.709  1.00  0.00     0.037 A 
HETATM   18  C   UNL     1     -43.650 -47.474   8.052  1.00  0.00     0.108 A 
HETATM   19  N   UNL     1     -42.742 -48.205   8.701  1.00  0.00    -0.310 N 
ATOM     20  HN  UNL     1     -42.357 -49.112   8.437  1.00  0.00     0.186 HD
ENDBRANCH  14  15
ENDBRANCH  13  14
ENDBRANCH  11  13
ENDBRANCH   1  11
TORSDOF 7
ENDMDL
MODEL 7
REMARK VINA RESULT:      -4.9      2.043      2.855
REMARK  7 active torsions:
REMARK  status: ('A' for Active; 'I' for Inactive)
REMARK    1  A    between atoms: C_7  and  O_8 
REMARK    2  A    between atoms: O_8  and  C_9 
REMARK    3  A    between atoms: C_9  and  C_10 
REMARK    4  A    between atoms: C_10  and  N_11 
REMARK    5  A    between atoms: N_11  and  C_12 
REMARK    6  A    between atoms: C_12  and  C_13 
REMARK    7  A    between atoms: C_13  and  N_14 
ROOT
HETATM    1  C   UNL     1     -41.981 -49.736  13.208  1.00  0.00     0.295 C 
ENDROOT
BRANCH   1   2
HETATM    2  C   UNL     1     -43.328 -49.664  13.916  1.00  0.00     0.198 C 
BRANCH   2   3
HETATM    3  O   UNL     1     -44.230 -50.575  13.287  1.00  0.00    -0.384 OA
BRANCH   3   4
HETATM    4  C   UNL     1     -44.805 -51.512  14.205  1.00  0.00     0.125 C 
HETATM    5  C   UNL     1     -44.276 -52.945  13.979  1.00  0.00     0.010 C 
HETATM    6  C   UNL     1     -44.359 -53.378  12.509  1.00  0.00     0.012 C 
HETATM    7  C   UNL     1     -44.991 -53.928  14.911  1.00  0.00     0.007 C 
HETATM    8  C   UNL     1     -46.508 -53.866  14.779  1.00  0.00     0.001 C 
HETATM    9  C   UNL     1     -47.036 -52.445  14.961  1.00  0.00     0.002 C 
HETATM   10  C   UNL     1     -46.330 -51.442  14.054  1.00  0.00     0.032 C 
ENDBRANCH   3   4
ENDBRANCH   2   3
ENDBRANCH   1   2
BRANCH   1  11
HETATM   11  N   UNL     1     -42.171 -49.881  11.760  1.00  0.00     0.087 N 
HETATM   12  H   UNL     1     -43.111 -49.549  11.521  1.00  0.00     0.316 HD
BRANCH  11  13
HETATM   13  C   UNL     1     -41.197 -49.082  11.004  1.00  0.00     0.291 C 
BRANCH  13  14
HETATM   14  C   UNL     1     -41.766 -47.753  10.506  1.00  0.00     0.178 C 
BRANCH  14  15
HETATM   15  N   UNL     1     -40.915 -46.643  10.878  1.00  0.00    -0.302 N 
HETATM   16  C   UNL     1     -40.583 -46.256  12.142  1.00  0.00     0.111 A 
HETATM   17  C   UNL     1     -39.793 -45.141  11.999  1.00  0.00     0.037 A 
HETATM   18  C   UNL     1     -39.706 -44.942  10.608  1.00  0.00     0.108 A 
HETATM   19  N   UNL     1     -40.382 -45.865   9.921  1.00  0.00    -0.310 N 
ATOM     20  HN  UNL     1     -40.472 -45.957   8.909  1.00  0.00     0.186 HD
ENDBRANCH  14  15
ENDBRANCH  13  14
ENDBRANCH  11  13
ENDBRANCH   1  11
TORSDOF 7
ENDMDL
MODEL 8
REMARK VINA RESULT:      -4.9      1.438      1.933
REMARK  7 active torsions:
REMARK  status: ('A' for Active; 'I' for Inactive)
REMARK    1  A    between atoms: C_7  and  O_8 
REMARK    2  A    between atoms: O_8  and  C_9 
REMARK    3  A    between atoms: C_9  and  C_10 
REMARK    4  A    between atoms: C_10  and  N_11 
REMARK    5  A    between atoms: N_11  and  C_12 
REMARK    6  A    between atoms: C_12  and  C_13 
REMARK    7  A    between atoms: C_13  and  N_14 
ROOT
HETATM    1  C   UNL     1     -41.541 -52.258  11.848  1.00  0.00     0.295 C 
ENDROOT
BRANCH   1   2
HETATM    2  C   UNL     1     -42.166 -52.447  13.225  1.00  0.00     0.198 C 
BRANCH   2   3
HETATM    3  O   UNL     1     -43.431 -53.092  13.073  1.00  0.00    -0.384 OA
BRANCH   3   4
HETATM    4  C   UNL     1     -44.376 -52.707  14.077  1.00  0.00     0.125 C 
HETATM    5  C   UNL     1     -44.972 -53.927  14.813  1.00  0.00     0.010 C 
HETATM    6  C   UNL     1     -45.488 -55.002  13.846  1.00  0.00     0.012 C 
HETATM    7  C   UNL     1     -46.049 -53.478  15.803  1.00  0.00     0.007 C 
HETATM    8  C   UNL     1     -47.137 -52.636  15.146  1.00  0.00     0.001 C 
HETATM    9  C   UNL     1     -46.555 -51.449  14.384  1.00  0.00     0.002 C 
HETATM   10  C   UNL     1     -45.467 -51.869  13.399  1.00  0.00     0.032 C 
ENDBRANCH   3   4
ENDBRANCH   2   3
ENDBRANCH   1   2
BRANCH   1  11
HETATM   11  N   UNL     1     -40.136 -51.851  11.975  1.00  0.00     0.087 N 
HETATM   12  H   UNL     1     -39.670 -52.012  11.076  1.00  0.00     0.316 HD
BRANCH  11  13
HETATM   13  C   UNL     1     -40.014 -50.425  12.305  1.00  0.00     0.291 C 
BRANCH  13  14
HETATM   14  C   UNL     1     -40.358 -49.504  11.135  1.00  0.00     0.178 C 
BRANCH  14  15
HETATM   15  N   UNL     1     -41.514 -48.685  11.430  1.00  0.00    -0.302 N 
HETATM   16  C   UNL     1     -41.777 -48.035  12.600  1.00  0.00     0.111 A 
HETATM   17  C   UNL     1     -42.996 -47.425  12.425  1.00  0.00     0.037 A 
HETATM   18  C   UNL     1     -43.380 -47.765  11.115  1.00  0.00     0.108 A 
HETATM   19  N   UNL     1     -42.471 -48.526  10.501  1.00  0.00    -0.310 N 
ATOM     20  HN  UNL     1     -42.497 -48.898   9.552  1.00  0.00     0.186 HD
ENDBRANCH  14  15
ENDBRANCH  13  14
ENDBRANCH  11  13
ENDBRANCH   1  11
TORSDOF 7
ENDMDL
MODEL 9
REMARK VINA RESULT:      -4.8      2.875      3.965
REMARK  7 active torsions:
REMARK  status: ('A' for Active; 'I' for Inactive)
REMARK    1  A    between atoms: C_7  and  O_8 
REMARK    2  A    between atoms: O_8  and  C_9 
REMARK    3  A    between atoms: C_9  and  C_10 
REMARK    4  A    between atoms: C_10  and  N_11 
REMARK    5  A    between atoms: N_11  and  C_12 
REMARK    6  A    between atoms: C_12  and  C_13 
REMARK    7  A    between atoms: C_13  and  N_14 
ROOT
HETATM    1  C   UNL     1     -41.434 -50.630  12.417  1.00  0.00     0.295 C 
ENDROOT
BRANCH   1   2
HETATM    2  C   UNL     1     -40.095 -51.356  12.401  1.00  0.00     0.198 C 
BRANCH   2   3
HETATM    3  O   UNL     1     -40.329 -52.761  12.512  1.00  0.00    -0.384 OA
BRANCH   3   4
HETATM    4  C   UNL     1     -41.083 -53.109  13.678  1.00  0.00     0.125 C 
HETATM    5  C   UNL     1     -40.180 -53.623  14.821  1.00  0.00     0.010 C 
HETATM    6  C   UNL     1     -39.208 -54.716  14.356  1.00  0.00     0.012 C 
HETATM    7  C   UNL     1     -41.033 -54.078  16.008  1.00  0.00     0.007 C 
HETATM    8  C   UNL     1     -42.081 -55.113  15.616  1.00  0.00     0.001 C 
HETATM    9  C   UNL     1     -42.954 -54.629  14.461  1.00  0.00     0.002 C 
HETATM   10  C   UNL     1     -42.127 -54.155  13.269  1.00  0.00     0.032 C 
ENDBRANCH   3   4
ENDBRANCH   2   3
ENDBRANCH   1   2
BRANCH   1  11
HETATM   11  N   UNL     1     -41.619 -49.869  11.176  1.00  0.00     0.087 N 
HETATM   12  H   UNL     1     -42.299 -50.364  10.591  1.00  0.00     0.316 HD
BRANCH  11  13
HETATM   13  C   UNL     1     -42.140 -48.521  11.441  1.00  0.00     0.291 C 
BRANCH  13  14
HETATM   14  C   UNL     1     -42.070 -47.598  10.224  1.00  0.00     0.178 C 
BRANCH  14  15
HETATM   15  N   UNL     1     -41.396 -46.358  10.541  1.00  0.00    -0.302 N 
HETATM   16  C   UNL     1     -41.953 -45.245  11.101  1.00  0.00     0.111 A 
HETATM   17  C   UNL     1     -40.943 -44.317  11.175  1.00  0.00     0.037 A 
HETATM   18  C   UNL     1     -39.818 -44.969  10.639  1.00  0.00     0.108 A 
HETATM   19  N   UNL     1     -40.089 -46.220  10.261  1.00  0.00    -0.310 N 
ATOM     20  HN  UNL     1     -39.455 -46.908   9.855  1.00  0.00     0.186 HD
ENDBRANCH  14  15
ENDBRANCH  13  14
ENDBRANCH  11  13
ENDBRANCH   1  11
TORSDOF 7
ENDMDL
