MODEL 1
REMARK VINA RESULT:      -7.2      0.000      0.000
REMARK  5 active torsions:
REMARK  status: ('A' for Active; 'I' for Inactive)
REMARK    1  A    between atoms: N_5  and  C_6 
REMARK    2  A    between atoms: C_6  and  C_7 
REMARK       I    between atoms: N_11  and  C_13 
REMARK       I    between atoms: C_13  and  N_15 
REMARK    3  A    between atoms: N_15  and  C_16 
REMARK    4  A    between atoms: C_16  and  C_17 
REMARK    5  A    between atoms: C_17  and  C_18 
ROOT
HETATM    1  C   UNL     1     -41.333 -53.881  13.719  1.00  0.00     0.032 C 
HETATM    2  C   UNL     1     -40.403 -54.248  14.886  1.00  0.00     0.009 C 
HETATM    3  C   UNL     1     -39.572 -53.067  15.388  1.00  0.00     0.020 C 
HETATM    4  C   UNL     1     -38.889 -52.304  14.256  1.00  0.00     0.127 C 
HETATM    5  N   UNL     1     -39.802 -51.990  13.163  1.00  0.00    -0.334 N 
HETATM    6  C   UNL     1     -40.561 -53.120  12.636  1.00  0.00     0.134 C 
HETATM    7  C   UNL     1     -39.740 -50.735  12.577  1.00  0.00     0.318 C 
HETATM    8  O   UNL     1     -39.135 -49.786  13.067  1.00  0.00    -0.247 OA
HETATM    9  N   UNL     1     -40.432 -50.621  11.398  1.00  0.00    -0.343 N 
HETATM   10  H   UNL     1     -40.393 -51.436  10.806  1.00  0.00     0.164 HD
ENDROOT
BRANCH   1  11
HETATM   11  C   UNL     1     -42.611 -53.106  14.149  1.00  0.00     0.278 C 
BRANCH  11  12
HETATM   12  N   UNL     1     -43.364 -52.512  13.023  1.00  0.00     0.088 N 
HETATM   13  C   UNL     1     -43.948 -51.194  13.311  1.00  0.00     0.272 C 
HETATM   14  C   UNL     1     -45.189 -51.246  14.204  1.00  0.00     0.034 C 
HETATM   15  C   UNL     1     -46.290 -52.097  13.567  1.00  0.00    -0.015 C 
HETATM   16  C   UNL     1     -46.890 -51.406  12.340  1.00  0.00     0.010 C 
HETATM   17  C   UNL     1     -45.716 -53.482  13.242  1.00  0.00     0.034 C 
HETATM   18  C   UNL     1     -44.384 -53.425  12.474  1.00  0.00     0.272 C 
ENDBRANCH  11  12
ENDBRANCH   1  11
BRANCH   9  19
HETATM   19  C   UNL     1     -40.515 -49.356  10.696  1.00  0.00     0.130 C 
BRANCH  19  20
HETATM   20  C   UNL     1     -41.579 -48.427  11.288  1.00  0.00     0.076 C 
BRANCH  20  21
HETATM   21  C   UNL     1     -42.698 -48.070  10.339  1.00  0.00     0.010 A 
HETATM   22  C   UNL     1     -43.961 -47.726  10.815  1.00  0.00     0.025 A 
HETATM   23  C   UNL     1     -44.955 -47.382   9.903  1.00  0.00     0.003 A 
HETATM   24  C   UNL     1     -44.663 -47.375   8.545  1.00  0.00     0.017 A 
HETATM   25  C   UNL     1     -43.382 -47.720   8.154  1.00  0.00     0.088 A 
HETATM   26  N   UNL     1     -42.399 -48.071   9.015  1.00  0.00    -0.369 N 
ATOM     27  HN  UNL     1     -41.469 -48.326   8.683  1.00  0.00     0.165 HD
ENDBRANCH  20  21
ENDBRANCH  19  20
ENDBRANCH   9  19
TORSDOF 5
ENDMDL
MODEL 2
REMARK VINA RESULT:      -7.1      1.685      2.350
REMARK  5 active torsions:
REMARK  status: ('A' for Active; 'I' for Inactive)
REMARK    1  A    between atoms: N_5  and  C_6 
REMARK    2  A    between atoms: C_6  and  C_7 
REMARK       I    between atoms: N_11  and  C_13 
REMARK       I    between atoms: C_13  and  N_15 
REMARK    3  A    between atoms: N_15  and  C_16 
REMARK    4  A    between atoms: C_16  and  C_17 
REMARK    5  A    between atoms: C_17  and  C_18 
ROOT
HETATM    1  C   UNL     1     -43.460 -53.335  13.444  1.00  0.00     0.032 C 
HETATM    2  C   UNL     1     -42.733 -54.529  14.083  1.00  0.00     0.009 C 
HETATM    3  C   UNL     1     -41.260 -54.248  14.379  1.00  0.00     0.020 C 
HETATM    4  C   UNL     1     -40.528 -53.627  13.193  1.00  0.00     0.127 C 
HETATM    5  N   UNL     1     -41.259 -52.509  12.608  1.00  0.00    -0.334 N 
HETATM    6  C   UNL     1     -42.652 -52.781  12.266  1.00  0.00     0.134 C 
HETATM    7  C   UNL     1     -40.559 -51.373  12.232  1.00  0.00     0.318 C 
HETATM    8  O   UNL     1     -39.403 -51.144  12.574  1.00  0.00    -0.247 OA
HETATM    9  N   UNL     1     -41.270 -50.497  11.452  1.00  0.00    -0.343 N 
HETATM   10  H   UNL     1     -41.885 -50.931  10.783  1.00  0.00     0.164 HD
ENDROOT
BRANCH   1  11
HETATM   11  C   UNL     1     -43.832 -52.209  14.451  1.00  0.00     0.278 C 
BRANCH  11  12
HETATM   12  N   UNL     1     -44.635 -52.671  15.604  1.00  0.00     0.088 N 
HETATM   13  C   UNL     1     -46.032 -52.993  15.281  1.00  0.00     0.272 C 
HETATM   14  C   UNL     1     -46.919 -51.765  15.066  1.00  0.00     0.034 C 
HETATM   15  C   UNL     1     -46.938 -50.876  16.312  1.00  0.00    -0.015 C 
HETATM   16  C   UNL     1     -47.700 -51.541  17.462  1.00  0.00     0.010 C 
HETATM   17  C   UNL     1     -45.493 -50.524  16.688  1.00  0.00     0.034 C 
HETATM   18  C   UNL     1     -44.565 -51.750  16.754  1.00  0.00     0.272 C 
ENDBRANCH  11  12
ENDBRANCH   1  11
BRANCH   9  19
HETATM   19  C   UNL     1     -40.698 -49.233  11.031  1.00  0.00     0.130 C 
BRANCH  19  20
HETATM   20  C   UNL     1     -41.630 -48.049  11.299  1.00  0.00     0.076 C 
BRANCH  20  21
HETATM   21  C   UNL     1     -42.754 -47.898  10.303  1.00  0.00     0.010 A 
HETATM   22  C   UNL     1     -44.062 -47.667  10.724  1.00  0.00     0.025 A 
HETATM   23  C   UNL     1     -45.061 -47.511   9.767  1.00  0.00     0.003 A 
HETATM   24  C   UNL     1     -44.732 -47.574   8.419  1.00  0.00     0.017 A 
HETATM   25  C   UNL     1     -43.409 -47.796   8.083  1.00  0.00     0.088 A 
HETATM   26  N   UNL     1     -42.419 -47.964   8.989  1.00  0.00    -0.369 N 
ATOM     27  HN  UNL     1     -41.456 -48.133   8.697  1.00  0.00     0.165 HD
ENDBRANCH  20  21
ENDBRANCH  19  20
ENDBRANCH   9  19
TORSDOF 5
ENDMDL
MODEL 3
REMARK VINA RESULT:      -6.8      1.928      2.284
REMARK  5 active torsions:
REMARK  status: ('A' for Active; 'I' for Inactive)
REMARK    1  A    between atoms: N_5  and  C_6 
REMARK    2  A    between atoms: C_6  and  C_7 
REMARK       I    between atoms: N_11  and  C_13 
REMARK       I    between atoms: C_13  and  N_15 
REMARK    3  A    between atoms: N_15  and  C_16 
REMARK    4  A    between atoms: C_16  and  C_17 
REMARK    5  A    between atoms: C_17  and  C_18 
ROOT
HETATM    1  C   UNL     1     -41.154 -53.922  12.925  1.00  0.00     0.032 C 
HETATM    2  C   UNL     1     -39.884 -54.248  13.728  1.00  0.00     0.009 C 
HETATM    3  C   UNL     1     -39.295 -53.032  14.442  1.00  0.00     0.020 C 
HETATM    4  C   UNL     1     -39.167 -51.817  13.528  1.00  0.00     0.127 C 
HETATM    5  N   UNL     1     -40.386 -51.553  12.774  1.00  0.00    -0.334 N 
HETATM    6  C   UNL     1     -40.929 -52.692  12.040  1.00  0.00     0.134 C 
HETATM    7  C   UNL     1     -40.819 -50.243  12.635  1.00  0.00     0.318 C 
HETATM    8  O   UNL     1     -40.380 -49.309  13.301  1.00  0.00    -0.247 OA
HETATM    9  N   UNL     1     -41.803 -50.063  11.697  1.00  0.00    -0.343 N 
HETATM   10  H   UNL     1     -41.708 -50.633  10.872  1.00  0.00     0.164 HD
ENDROOT
BRANCH   1  11
HETATM   11  C   UNL     1     -42.430 -53.761  13.799  1.00  0.00     0.278 C 
BRANCH  11  12
HETATM   12  N   UNL     1     -43.357 -52.709  13.328  1.00  0.00     0.088 N 
HETATM   13  C   UNL     1     -43.705 -51.706  14.345  1.00  0.00     0.272 C 
HETATM   14  C   UNL     1     -44.698 -52.207  15.395  1.00  0.00     0.034 C 
HETATM   15  C   UNL     1     -46.006 -52.661  14.744  1.00  0.00    -0.015 C 
HETATM   16  C   UNL     1     -46.798 -51.472  14.192  1.00  0.00     0.010 C 
HETATM   17  C   UNL     1     -45.684 -53.704  13.666  1.00  0.00     0.034 C 
HETATM   18  C   UNL     1     -44.573 -53.259  12.700  1.00  0.00     0.272 C 
ENDBRANCH  11  12
ENDBRANCH   1  11
BRANCH   9  19
HETATM   19  C   UNL     1     -42.404 -48.762  11.480  1.00  0.00     0.130 C 
BRANCH  19  20
HETATM   20  C   UNL     1     -41.765 -48.009  10.310  1.00  0.00     0.076 C 
BRANCH  20  21
HETATM   21  C   UNL     1     -41.392 -46.578  10.614  1.00  0.00     0.010 A 
HETATM   22  C   UNL     1     -42.286 -45.724  11.255  1.00  0.00     0.025 A 
HETATM   23  C   UNL     1     -41.888 -44.419  11.535  1.00  0.00     0.003 A 
HETATM   24  C   UNL     1     -40.611 -44.004  11.185  1.00  0.00     0.017 A 
HETATM   25  C   UNL     1     -39.779 -44.916  10.560  1.00  0.00     0.088 A 
HETATM   26  N   UNL     1     -40.141 -46.186  10.263  1.00  0.00    -0.369 N 
ATOM     27  HN  UNL     1     -39.498 -46.824   9.794  1.00  0.00     0.165 HD
ENDBRANCH  20  21
ENDBRANCH  19  20
ENDBRANCH   9  19
TORSDOF 5
ENDMDL
MODEL 4
REMARK VINA RESULT:      -6.7      2.310      3.592
REMARK  5 active torsions:
REMARK  status: ('A' for Active; 'I' for Inactive)
REMARK    1  A    between atoms: N_5  and  C_6 
REMARK    2  A    between atoms: C_6  and  C_7 
REMARK       I    between atoms: N_11  and  C_13 
REMARK       I    between atoms: C_13  and  N_15 
REMARK    3  A    between atoms: N_15  and  C_16 
REMARK    4  A    between atoms: C_16  and  C_17 
REMARK    5  A    between atoms: C_17  and  C_18 
ROOT
HETATM    1  C   UNL     1     -38.467 -50.843  12.638  1.00  0.00     0.032 C 
HETATM    2  C   UNL     1     -37.598 -50.706  13.899  1.00  0.00     0.009 C 
HETATM    3  C   UNL     1     -37.931 -49.464  14.726  1.00  0.00     0.020 C 
HETATM    4  C   UNL     1     -38.014 -48.197  13.879  1.00  0.00     0.127 C 
HETATM    5  N   UNL     1     -38.833 -48.375  12.686  1.00  0.00    -0.334 N 
HETATM    6  C   UNL     1     -38.490 -49.525  11.856  1.00  0.00     0.134 C 
HETATM    7  C   UNL     1     -39.710 -47.366  12.318  1.00  0.00     0.318 C 
HETATM    8  O   UNL     1     -40.021 -46.434  13.054  1.00  0.00    -0.247 OA
HETATM    9  N   UNL     1     -40.230 -47.495  11.055  1.00  0.00    -0.343 N 
HETATM   10  H   UNL     1     -39.586 -47.853  10.368  1.00  0.00     0.164 HD
ENDROOT
BRANCH   1  11
HETATM   11  C   UNL     1     -39.908 -51.358  12.916  1.00  0.00     0.278 C 
BRANCH  11  12
HETATM   12  N   UNL     1     -40.004 -52.301  14.051  1.00  0.00     0.088 N 
HETATM   13  C   UNL     1     -39.974 -53.719  13.667  1.00  0.00     0.272 C 
HETATM   14  C   UNL     1     -41.280 -54.223  13.049  1.00  0.00     0.034 C 
HETATM   15  C   UNL     1     -42.451 -54.043  14.016  1.00  0.00    -0.015 C 
HETATM   16  C   UNL     1     -42.348 -55.002  15.205  1.00  0.00     0.010 C 
HETATM   17  C   UNL     1     -42.512 -52.572  14.449  1.00  0.00     0.034 C 
HETATM   18  C   UNL     1     -41.157 -52.022  14.928  1.00  0.00     0.272 C 
ENDBRANCH  11  12
ENDBRANCH   1  11
BRANCH   9  19
HETATM   19  C   UNL     1     -41.210 -46.555  10.548  1.00  0.00     0.130 C 
BRANCH  19  20
HETATM   20  C   UNL     1     -42.643 -46.944  10.919  1.00  0.00     0.076 C 
BRANCH  20  21
HETATM   21  C   UNL     1     -43.485 -47.417   9.759  1.00  0.00     0.010 A 
HETATM   22  C   UNL     1     -44.874 -47.467   9.853  1.00  0.00     0.025 A 
HETATM   23  C   UNL     1     -45.610 -47.888   8.748  1.00  0.00     0.003 A 
HETATM   24  C   UNL     1     -44.948 -48.234   7.578  1.00  0.00     0.017 A 
HETATM   25  C   UNL     1     -43.567 -48.147   7.562  1.00  0.00     0.088 A 
HETATM   26  N   UNL     1     -42.825 -47.754   8.622  1.00  0.00    -0.369 N 
ATOM     27  HN  UNL     1     -41.807 -47.712   8.570  1.00  0.00     0.165 HD
ENDBRANCH  20  21
ENDBRANCH  19  20
ENDBRANCH   9  19
TORSDOF 5
ENDMDL
MODEL 5
REMARK VINA RESULT:      -6.6      2.231      2.957
REMARK  5 active torsions:
REMARK  status: ('A' for Active; 'I' for Inactive)
REMARK    1  A    between atoms: N_5  and  C_6 
REMARK    2  A    between atoms: C_6  and  C_7 
REMARK       I    between atoms: N_11  and  C_13 
REMARK       I    between atoms: C_13  and  N_15 
REMARK    3  A    between atoms: N_15  and  C_16 
REMARK    4  A    between atoms: C_16  and  C_17 
REMARK    5  A    between atoms: C_17  and  C_18 
ROOT
HETATM    1  C   UNL     1     -42.278 -54.128  13.491  1.00  0.00     0.032 C 
HETATM    2  C   UNL     1     -41.904 -54.797  14.823  1.00  0.00     0.009 C 
HETATM    3  C   UNL     1     -41.009 -53.924  15.703  1.00  0.00     0.020 C 
HETATM    4  C   UNL     1     -39.825 -53.337  14.939  1.00  0.00     0.127 C 
HETATM    5  N   UNL     1     -40.221 -52.728  13.676  1.00  0.00    -0.334 N 
HETATM    6  C   UNL     1     -41.029 -53.571  12.800  1.00  0.00     0.134 C 
HETATM    7  C   UNL     1     -39.655 -51.518  13.307  1.00  0.00     0.318 C 
HETATM    8  O   UNL     1     -39.020 -50.803  14.078  1.00  0.00    -0.247 OA
HETATM    9  N   UNL     1     -39.872 -51.159  12.001  1.00  0.00    -0.343 N 
HETATM   10  H   UNL     1     -39.853 -51.924  11.345  1.00  0.00     0.164 HD
ENDROOT
BRANCH   1  11
HETATM   11  C   UNL     1     -43.384 -53.042  13.617  1.00  0.00     0.278 C 
BRANCH  11  12
HETATM   12  N   UNL     1     -44.342 -53.280  14.718  1.00  0.00     0.088 N 
HETATM   13  C   UNL     1     -45.711 -53.585  14.277  1.00  0.00     0.272 C 
HETATM   14  C   UNL     1     -46.487 -52.365  13.774  1.00  0.00     0.034 C 
HETATM   15  C   UNL     1     -46.591 -51.293  14.860  1.00  0.00    -0.015 C 
HETATM   16  C   UNL     1     -47.521 -51.734  15.994  1.00  0.00     0.010 C 
HETATM   17  C   UNL     1     -45.179 -50.953  15.355  1.00  0.00     0.034 C 
HETATM   18  C   UNL     1     -44.345 -52.195  15.716  1.00  0.00     0.272 C 
ENDBRANCH  11  12
ENDBRANCH   1  11
BRANCH   9  19
HETATM   19  C   UNL     1     -39.398 -49.892  11.482  1.00  0.00     0.130 C 
BRANCH  19  20
HETATM   20  C   UNL     1     -40.541 -48.933  11.142  1.00  0.00     0.076 C 
BRANCH  20  21
HETATM   21  C   UNL     1     -40.239 -47.478  11.406  1.00  0.00     0.010 A 
HETATM   22  C   UNL     1     -39.719 -47.064  12.631  1.00  0.00     0.025 A 
HETATM   23  C   UNL     1     -39.433 -45.714  12.821  1.00  0.00     0.003 A 
HETATM   24  C   UNL     1     -39.659 -44.816  11.786  1.00  0.00     0.017 A 
HETATM   25  C   UNL     1     -40.168 -45.308  10.597  1.00  0.00     0.088 A 
HETATM   26  N   UNL     1     -40.466 -46.611  10.387  1.00  0.00    -0.369 N 
ATOM     27  HN  UNL     1     -40.848 -46.930   9.496  1.00  0.00     0.165 HD
ENDBRANCH  20  21
ENDBRANCH  19  20
ENDBRANCH   9  19
TORSDOF 5
ENDMDL
MODEL 6
REMARK VINA RESULT:      -6.5      1.725      2.506
REMARK  5 active torsions:
REMARK  status: ('A' for Active; 'I' for Inactive)
REMARK    1  A    between atoms: N_5  and  C_6 
REMARK    2  A    between atoms: C_6  and  C_7 
REMARK       I    between atoms: N_11  and  C_13 
REMARK       I    between atoms: C_13  and  N_15 
REMARK    3  A    between atoms: N_15  and  C_16 
REMARK    4  A    between atoms: C_16  and  C_17 
REMARK    5  A    between atoms: C_17  and  C_18 
ROOT
HETATM    1  C   UNL     1     -41.892 -54.119  14.311  1.00  0.00     0.032 C 
HETATM    2  C   UNL     1     -41.769 -54.980  15.579  1.00  0.00     0.009 C 
HETATM    3  C   UNL     1     -40.817 -54.387  16.618  1.00  0.00     0.020 C 
HETATM    4  C   UNL     1     -39.481 -53.959  16.016  1.00  0.00     0.127 C 
HETATM    5  N   UNL     1     -39.643 -53.159  14.808  1.00  0.00    -0.334 N 
HETATM    6  C   UNL     1     -40.505 -53.740  13.782  1.00  0.00     0.134 C 
HETATM    7  C   UNL     1     -38.837 -52.046  14.627  1.00  0.00     0.318 C 
HETATM    8  O   UNL     1     -38.158 -51.547  15.520  1.00  0.00    -0.247 OA
HETATM    9  N   UNL     1     -38.865 -51.521  13.359  1.00  0.00    -0.343 N 
HETATM   10  H   UNL     1     -38.922 -52.204  12.621  1.00  0.00     0.164 HD
ENDROOT
BRANCH   1  11
HETATM   11  C   UNL     1     -42.792 -52.863  14.485  1.00  0.00     0.278 C 
BRANCH  11  12
HETATM   12  N   UNL     1     -43.423 -52.394  13.232  1.00  0.00     0.088 N 
HETATM   13  C   UNL     1     -44.161 -51.128  13.360  1.00  0.00     0.272 C 
HETATM   14  C   UNL     1     -45.510 -51.266  14.069  1.00  0.00     0.034 C 
HETATM   15  C   UNL     1     -46.422 -52.247  13.330  1.00  0.00    -0.015 C 
HETATM   16  C   UNL     1     -46.896 -51.671  11.993  1.00  0.00     0.010 C 
HETATM   17  C   UNL     1     -45.682 -53.581  13.167  1.00  0.00     0.034 C 
HETATM   18  C   UNL     1     -44.262 -53.425  12.595  1.00  0.00     0.272 C 
ENDBRANCH  11  12
ENDBRANCH   1  11
BRANCH   9  19
HETATM   19  C   UNL     1     -38.124 -50.319  13.029  1.00  0.00     0.130 C 
BRANCH  19  20
HETATM   20  C   UNL     1     -38.414 -49.824  11.610  1.00  0.00     0.076 C 
BRANCH  20  21
HETATM   21  C   UNL     1     -39.590 -48.884  11.502  1.00  0.00     0.010 A 
HETATM   22  C   UNL     1     -39.605 -47.670  12.185  1.00  0.00     0.025 A 
HETATM   23  C   UNL     1     -40.702 -46.825  12.036  1.00  0.00     0.003 A 
HETATM   24  C   UNL     1     -41.746 -47.203  11.202  1.00  0.00     0.017 A 
HETATM   25  C   UNL     1     -41.651 -48.420  10.551  1.00  0.00     0.088 A 
HETATM   26  N   UNL     1     -40.605 -49.267  10.686  1.00  0.00    -0.369 N 
ATOM     27  HN  UNL     1     -40.579 -50.159  10.192  1.00  0.00     0.165 HD
ENDBRANCH  20  21
ENDBRANCH  19  20
ENDBRANCH   9  19
TORSDOF 5
ENDMDL
MODEL 7
REMARK VINA RESULT:      -6.4      2.679      6.643
REMARK  5 active torsions:
REMARK  status: ('A' for Active; 'I' for Inactive)
REMARK    1  A    between atoms: N_5  and  C_6 
REMARK    2  A    between atoms: C_6  and  C_7 
REMARK       I    between atoms: N_11  and  C_13 
REMARK       I    between atoms: C_13  and  N_15 
REMARK    3  A    between atoms: N_15  and  C_16 
REMARK    4  A    between atoms: C_16  and  C_17 
REMARK    5  A    between atoms: C_17  and  C_18 
ROOT
HETATM    1  C   UNL     1     -39.417 -48.494  13.456  1.00  0.00     0.032 C 
HETATM    2  C   UNL     1     -37.914 -48.764  13.633  1.00  0.00     0.009 C 
HETATM    3  C   UNL     1     -37.472 -50.108  13.054  1.00  0.00     0.020 C 
HETATM    4  C   UNL     1     -38.373 -51.261  13.489  1.00  0.00     0.127 C 
HETATM    5  N   UNL     1     -39.789 -50.958  13.320  1.00  0.00    -0.334 N 
HETATM    6  C   UNL     1     -40.237 -49.704  13.917  1.00  0.00     0.134 C 
HETATM    7  C   UNL     1     -40.629 -51.936  12.810  1.00  0.00     0.318 C 
HETATM    8  O   UNL     1     -40.226 -52.961  12.268  1.00  0.00    -0.247 OA
HETATM    9  N   UNL     1     -41.967 -51.665  12.941  1.00  0.00    -0.343 N 
HETATM   10  H   UNL     1     -42.222 -51.206  13.801  1.00  0.00     0.164 HD
ENDROOT
BRANCH   1  11
HETATM   11  C   UNL     1     -39.817 -48.058  12.018  1.00  0.00     0.278 C 
BRANCH  11  12
HETATM   12  N   UNL     1     -40.829 -46.981  11.973  1.00  0.00     0.088 N 
HETATM   13  C   UNL     1     -40.943 -46.308  10.670  1.00  0.00     0.272 C 
HETATM   14  C   UNL     1     -39.798 -45.339  10.370  1.00  0.00     0.034 C 
HETATM   15  C   UNL     1     -39.709 -44.245  11.436  1.00  0.00    -0.015 C 
HETATM   16  C   UNL     1     -40.892 -43.277  11.343  1.00  0.00     0.010 C 
HETATM   17  C   UNL     1     -39.598 -44.908  12.815  1.00  0.00     0.034 C 
HETATM   18  C   UNL     1     -40.661 -45.994  13.056  1.00  0.00     0.272 C 
ENDBRANCH  11  12
ENDBRANCH   1  11
BRANCH   9  19
HETATM   19  C   UNL     1     -42.970 -52.561  12.401  1.00  0.00     0.130 C 
BRANCH  19  20
HETATM   20  C   UNL     1     -43.670 -53.382  13.488  1.00  0.00     0.076 C 
BRANCH  20  21
HETATM   21  C   UNL     1     -44.772 -52.650  14.215  1.00  0.00     0.010 A 
HETATM   22  C   UNL     1     -45.812 -52.041  13.516  1.00  0.00     0.025 A 
HETATM   23  C   UNL     1     -46.819 -51.398  14.230  1.00  0.00     0.003 A 
HETATM   24  C   UNL     1     -46.773 -51.388  15.618  1.00  0.00     0.017 A 
HETATM   25  C   UNL     1     -45.712 -52.024  16.238  1.00  0.00     0.088 A 
HETATM   26  N   UNL     1     -44.713 -52.646  15.571  1.00  0.00    -0.369 N 
ATOM     27  HN  UNL     1     -43.944 -53.096  16.068  1.00  0.00     0.165 HD
ENDBRANCH  20  21
ENDBRANCH  19  20
ENDBRANCH   9  19
TORSDOF 5
ENDMDL
MODEL 8
REMARK VINA RESULT:      -6.3      2.610      3.333
REMARK  5 active torsions:
REMARK  status: ('A' for Active; 'I' for Inactive)
REMARK    1  A    between atoms: N_5  and  C_6 
REMARK    2  A    between atoms: C_6  and  C_7 
REMARK       I    between atoms: N_11  and  C_13 
REMARK       I    between atoms: C_13  and  N_15 
REMARK    3  A    between atoms: N_15  and  C_16 
REMARK    4  A    between atoms: C_16  and  C_17 
REMARK    5  A    between atoms: C_17  and  C_18 
ROOT
HETATM    1  C   UNL     1     -43.531 -52.680  13.668  1.00  0.00     0.032 C 
HETATM    2  C   UNL     1     -43.181 -54.119  14.080  1.00  0.00     0.009 C 
HETATM    3  C   UNL     1     -41.678 -54.350  14.241  1.00  0.00     0.020 C 
HETATM    4  C   UNL     1     -40.871 -53.820  13.058  1.00  0.00     0.127 C 
HETATM    5  N   UNL     1     -41.246 -52.460  12.691  1.00  0.00    -0.334 N 
HETATM    6  C   UNL     1     -42.673 -52.238  12.478  1.00  0.00     0.134 C 
HETATM    7  C   UNL     1     -40.248 -51.552  12.372  1.00  0.00     0.318 C 
HETATM    8  O   UNL     1     -39.058 -51.742  12.606  1.00  0.00    -0.247 OA
HETATM    9  N   UNL     1     -40.694 -50.397  11.781  1.00  0.00    -0.343 N 
HETATM   10  H   UNL     1     -41.461 -50.521  11.140  1.00  0.00     0.164 HD
ENDROOT
BRANCH   1  11
HETATM   11  C   UNL     1     -43.452 -51.652  14.832  1.00  0.00     0.278 C 
BRANCH  11  12
HETATM   12  N   UNL     1     -44.657 -50.808  14.976  1.00  0.00     0.088 N 
HETATM   13  C   UNL     1     -44.931 -50.368  16.352  1.00  0.00     0.272 C 
HETATM   14  C   UNL     1     -45.507 -51.464  17.250  1.00  0.00     0.034 C 
HETATM   15  C   UNL     1     -46.819 -52.008  16.682  1.00  0.00    -0.015 C 
HETATM   16  C   UNL     1     -47.945 -50.976  16.788  1.00  0.00     0.010 C 
HETATM   17  C   UNL     1     -46.578 -52.470  15.239  1.00  0.00     0.034 C 
HETATM   18  C   UNL     1     -45.858 -51.420  14.376  1.00  0.00     0.272 C 
ENDBRANCH  11  12
ENDBRANCH   1  11
BRANCH   9  19
HETATM   19  C   UNL     1     -39.779 -49.324  11.446  1.00  0.00     0.130 C 
BRANCH  19  20
HETATM   20  C   UNL     1     -39.704 -48.255  12.540  1.00  0.00     0.076 C 
BRANCH  20  21
HETATM   21  C   UNL     1     -39.812 -46.836  12.037  1.00  0.00     0.010 A 
HETATM   22  C   UNL     1     -39.656 -45.754  12.901  1.00  0.00     0.025 A 
HETATM   23  C   UNL     1     -39.741 -44.462  12.387  1.00  0.00     0.003 A 
HETATM   24  C   UNL     1     -39.963 -44.281  11.028  1.00  0.00     0.017 A 
HETATM   25  C   UNL     1     -40.096 -45.407  10.236  1.00  0.00     0.088 A 
HETATM   26  N   UNL     1     -40.032 -46.673  10.708  1.00  0.00    -0.369 N 
ATOM     27  HN  UNL     1     -40.144 -47.476  10.088  1.00  0.00     0.165 HD
ENDBRANCH  20  21
ENDBRANCH  19  20
ENDBRANCH   9  19
TORSDOF 5
ENDMDL
MODEL 9
REMARK VINA RESULT:      -6.1      3.111      5.080
REMARK  5 active torsions:
REMARK  status: ('A' for Active; 'I' for Inactive)
REMARK    1  A    between atoms: N_5  and  C_6 
REMARK    2  A    between atoms: C_6  and  C_7 
REMARK       I    between atoms: N_11  and  C_13 
REMARK       I    between atoms: C_13  and  N_15 
REMARK    3  A    between atoms: N_15  and  C_16 
REMARK    4  A    between atoms: C_16  and  C_17 
REMARK    5  A    between atoms: C_17  and  C_18 
ROOT
HETATM    1  C   UNL     1     -43.552 -52.515  13.434  1.00  0.00     0.032 C 
HETATM    2  C   UNL     1     -43.477 -54.024  13.718  1.00  0.00     0.009 C 
HETATM    3  C   UNL     1     -42.062 -54.507  14.036  1.00  0.00     0.020 C 
HETATM    4  C   UNL     1     -41.028 -54.004  13.033  1.00  0.00     0.127 C 
HETATM    5  N   UNL     1     -41.144 -52.573  12.782  1.00  0.00    -0.334 N 
HETATM    6  C   UNL     1     -42.479 -52.105  12.420  1.00  0.00     0.134 C 
HETATM    7  C   UNL     1     -39.989 -51.811  12.697  1.00  0.00     0.318 C 
HETATM    8  O   UNL     1     -38.884 -52.210  13.054  1.00  0.00    -0.247 OA
HETATM    9  N   UNL     1     -40.173 -50.548  12.193  1.00  0.00    -0.343 N 
HETATM   10  H   UNL     1     -40.852 -50.486  11.451  1.00  0.00     0.164 HD
ENDROOT
BRANCH   1  11
HETATM   11  C   UNL     1     -43.488 -51.628  14.710  1.00  0.00     0.278 C 
BRANCH  11  12
HETATM   12  N   UNL     1     -44.688 -50.792  14.926  1.00  0.00     0.088 N 
HETATM   13  C   UNL     1     -44.934 -50.431  16.329  1.00  0.00     0.272 C 
HETATM   14  C   UNL     1     -45.495 -51.576  17.175  1.00  0.00     0.034 C 
HETATM   15  C   UNL     1     -46.819 -52.086  16.602  1.00  0.00    -0.015 C 
HETATM   16  C   UNL     1     -47.941 -51.060  16.789  1.00  0.00     0.010 C 
HETATM   17  C   UNL     1     -46.607 -52.465  15.131  1.00  0.00     0.034 C 
HETATM   18  C   UNL     1     -45.902 -51.367  14.315  1.00  0.00     0.272 C 
ENDBRANCH  11  12
ENDBRANCH   1  11
BRANCH   9  19
HETATM   19  C   UNL     1     -39.073 -49.609  12.102  1.00  0.00     0.130 C 
BRANCH  19  20
HETATM   20  C   UNL     1     -39.099 -48.565  13.221  1.00  0.00     0.076 C 
BRANCH  20  21
HETATM   21  C   UNL     1     -38.000 -48.718  14.245  1.00  0.00     0.010 A 
HETATM   22  C   UNL     1     -37.374 -47.603  14.798  1.00  0.00     0.025 A 
HETATM   23  C   UNL     1     -36.382 -47.793  15.757  1.00  0.00     0.003 A 
HETATM   24  C   UNL     1     -36.050 -49.083  16.150  1.00  0.00     0.017 A 
HETATM   25  C   UNL     1     -36.726 -50.136  15.561  1.00  0.00     0.088 A 
HETATM   26  N   UNL     1     -37.684 -49.984  14.619  1.00  0.00    -0.369 N 
ATOM     27  HN  UNL     1     -38.153 -50.790  14.204  1.00  0.00     0.165 HD
ENDBRANCH  20  21
ENDBRANCH  19  20
ENDBRANCH   9  19
TORSDOF 5
ENDMDL
