MODEL 1
REMARK VINA RESULT:      -5.3      0.000      0.000
REMARK  4 active torsions:
REMARK  status: ('A' for Active; 'I' for Inactive)
REMARK    1  A    between atoms: N_6  and  C_7 
REMARK    2  A    between atoms: C_7  and  C_8 
REMARK       I    between atoms: C_8  and  N_10 
REMARK    3  A    between atoms: N_10  and  C_11 
REMARK    4  A    between atoms: C_11  and  C_12 
ROOT
HETATM    1  C   UNL     1     -41.524 -48.654  11.084  1.00  0.00     0.237 C 
HETATM    2  O   UNL     1     -42.257 -48.607  12.071  1.00  0.00    -0.272 OA
HETATM    3  N   UNL     1     -41.672 -47.801  10.005  1.00  0.00    -0.359 N 
HETATM    4  H   UNL     1     -40.895 -47.746   9.347  1.00  0.00     0.162 HD
ENDROOT
BRANCH   1   5
HETATM    5  C   UNL     1     -40.451 -49.702  10.942  1.00  0.00     0.251 C 
BRANCH   5   6
HETATM    6  N   UNL     1     -40.718 -50.868  11.762  1.00  0.00    -0.288 N 
HETATM    7  C   UNL     1     -39.915 -51.433  12.722  1.00  0.00     0.027 A 
HETATM    8  C   UNL     1     -40.673 -52.434  13.292  1.00  0.00     0.052 A 
HETATM    9  C   UNL     1     -38.532 -50.987  13.020  1.00  0.00     0.070 C 
HETATM   10  C   UNL     1     -41.909 -52.408  12.614  1.00  0.00     0.024 A 
HETATM   11  C   UNL     1     -43.101 -53.251  12.857  1.00  0.00     0.070 C 
HETATM   12  N   UNL     1     -41.923 -51.471  11.656  1.00  0.00    -0.303 N 
ATOM     13  HN  UNL     1     -42.672 -51.260  10.996  1.00  0.00     0.186 HD
ENDBRANCH   5   6
ENDBRANCH   1   5
BRANCH   3  14
HETATM   14  C   UNL     1     -42.658 -46.740  10.053  1.00  0.00     0.129 C 
BRANCH  14  15
HETATM   15  C   UNL     1     -43.757 -46.877   9.011  1.00  0.00     0.029 C 
HETATM   16  C   UNL     1     -45.077 -47.393   9.553  1.00  0.00     0.034 C 
HETATM   17  C   UNL     1     -45.666 -48.195   8.405  1.00  0.00     0.168 C 
HETATM   18  O   UNL     1     -44.664 -48.308   7.389  1.00  0.00    -0.391 OA
HETATM   19  C   UNL     1     -43.414 -47.921   7.964  1.00  0.00     0.173 C 
ENDBRANCH  14  15
ENDBRANCH   3  14
TORSDOF 4
ENDMDL
MODEL 2
REMARK VINA RESULT:      -5.2      2.515      3.476
REMARK  4 active torsions:
REMARK  status: ('A' for Active; 'I' for Inactive)
REMARK    1  A    between atoms: N_6  and  C_7 
REMARK    2  A    between atoms: C_7  and  C_8 
REMARK       I    between atoms: C_8  and  N_10 
REMARK    3  A    between atoms: N_10  and  C_11 
REMARK    4  A    between atoms: C_11  and  C_12 
ROOT
HETATM    1  C   UNL     1     -41.889 -50.788  12.295  1.00  0.00     0.237 C 
HETATM    2  O   UNL     1     -42.446 -50.534  13.362  1.00  0.00    -0.272 OA
HETATM    3  N   UNL     1     -41.712 -49.840  11.303  1.00  0.00    -0.359 N 
HETATM    4  H   UNL     1     -41.045 -50.061  10.564  1.00  0.00     0.162 HD
ENDROOT
BRANCH   1   5
HETATM    5  C   UNL     1     -41.423 -52.180  11.955  1.00  0.00     0.251 C 
BRANCH   5   6
HETATM    6  N   UNL     1     -42.102 -53.189  12.745  1.00  0.00    -0.288 N 
HETATM    7  C   UNL     1     -41.602 -53.929  13.788  1.00  0.00     0.027 A 
HETATM    8  C   UNL     1     -42.674 -54.646  14.275  1.00  0.00     0.052 A 
HETATM    9  C   UNL     1     -40.188 -53.895  14.231  1.00  0.00     0.070 C 
HETATM   10  C   UNL     1     -43.773 -54.285  13.467  1.00  0.00     0.024 A 
HETATM   11  C   UNL     1     -45.177 -54.736  13.583  1.00  0.00     0.070 C 
HETATM   12  N   UNL     1     -43.413 -53.418  12.511  1.00  0.00    -0.303 N 
ATOM     13  HN  UNL     1     -43.996 -53.020  11.774  1.00  0.00     0.186 HD
ENDBRANCH   5   6
ENDBRANCH   1   5
BRANCH   3  14
HETATM   14  C   UNL     1     -42.102 -48.464  11.541  1.00  0.00     0.129 C 
BRANCH  14  15
HETATM   15  C   UNL     1     -41.433 -47.467  10.606  1.00  0.00     0.029 C 
HETATM   16  C   UNL     1     -40.216 -46.775  11.191  1.00  0.00     0.034 C 
HETATM   17  C   UNL     1     -40.234 -45.392  10.562  1.00  0.00     0.168 C 
HETATM   18  O   UNL     1     -41.475 -45.243   9.864  1.00  0.00    -0.391 OA
HETATM   19  C   UNL     1     -42.344 -46.295  10.289  1.00  0.00     0.173 C 
ENDBRANCH  14  15
ENDBRANCH   3  14
TORSDOF 4
ENDMDL
MODEL 3
REMARK VINA RESULT:      -5.2      1.976      3.060
REMARK  4 active torsions:
REMARK  status: ('A' for Active; 'I' for Inactive)
REMARK    1  A    between atoms: N_6  and  C_7 
REMARK    2  A    between atoms: C_7  and  C_8 
REMARK       I    between atoms: C_8  and  N_10 
REMARK    3  A    between atoms: N_10  and  C_11 
REMARK    4  A    between atoms: C_11  and  C_12 
ROOT
HETATM    1  C   UNL     1     -41.719 -50.188  12.204  1.00  0.00     0.237 C 
HETATM    2  O   UNL     1     -41.779 -49.605  13.285  1.00  0.00    -0.272 OA
HETATM    3  N   UNL     1     -41.563 -49.518  11.003  1.00  0.00    -0.359 N 
HETATM    4  H   UNL     1     -41.289 -50.074  10.193  1.00  0.00     0.162 HD
ENDROOT
BRANCH   1   5
HETATM    5  C   UNL     1     -41.887 -51.682  12.098  1.00  0.00     0.251 C 
BRANCH   5   6
HETATM    6  N   UNL     1     -43.069 -52.147  12.798  1.00  0.00    -0.288 N 
HETATM    7  C   UNL     1     -43.199 -53.251  13.604  1.00  0.00     0.027 A 
HETATM    8  C   UNL     1     -44.474 -53.178  14.124  1.00  0.00     0.052 A 
HETATM    9  C   UNL     1     -42.131 -54.257  13.818  1.00  0.00     0.070 C 
HETATM   10  C   UNL     1     -45.042 -52.009  13.574  1.00  0.00     0.024 A 
HETATM   11  C   UNL     1     -46.384 -51.439  13.831  1.00  0.00     0.070 C 
HETATM   12  N   UNL     1     -44.192 -51.397  12.738  1.00  0.00    -0.303 N 
ATOM     13  HN  UNL     1     -44.355 -50.557  12.182  1.00  0.00     0.186 HD
ENDBRANCH   5   6
ENDBRANCH   1   5
BRANCH   3  14
HETATM   14  C   UNL     1     -41.366 -48.083  10.998  1.00  0.00     0.129 C 
BRANCH  14  15
HETATM   15  C   UNL     1     -42.577 -47.299  10.515  1.00  0.00     0.029 C 
HETATM   16  C   UNL     1     -43.072 -47.695   9.135  1.00  0.00     0.034 C 
HETATM   17  C   UNL     1     -43.617 -46.403   8.549  1.00  0.00     0.168 C 
HETATM   18  O   UNL     1     -43.254 -45.334   9.429  1.00  0.00    -0.391 OA
HETATM   19  C   UNL     1     -42.258 -45.828  10.328  1.00  0.00     0.173 C 
ENDBRANCH  14  15
ENDBRANCH   3  14
TORSDOF 4
ENDMDL
MODEL 4
REMARK VINA RESULT:      -5.2      3.297      4.960
REMARK  4 active torsions:
REMARK  status: ('A' for Active; 'I' for Inactive)
REMARK    1  A    between atoms: N_6  and  C_7 
REMARK    2  A    between atoms: C_7  and  C_8 
REMARK       I    between atoms: C_8  and  N_10 
REMARK    3  A    between atoms: N_10  and  C_11 
REMARK    4  A    between atoms: C_11  and  C_12 
ROOT
HETATM    1  C   UNL     1     -41.370 -51.548  12.061  1.00  0.00     0.237 C 
HETATM    2  O   UNL     1     -42.306 -51.054  12.686  1.00  0.00    -0.272 OA
HETATM    3  N   UNL     1     -40.558 -50.803  11.223  1.00  0.00    -0.359 N 
HETATM    4  H   UNL     1     -39.677 -51.227  10.933  1.00  0.00     0.162 HD
ENDROOT
BRANCH   1   5
HETATM    5  C   UNL     1     -41.079 -53.026  12.102  1.00  0.00     0.251 C 
BRANCH   5   6
HETATM    6  N   UNL     1     -41.994 -53.735  12.977  1.00  0.00    -0.288 N 
HETATM    7  C   UNL     1     -41.743 -54.262  14.219  1.00  0.00     0.027 A 
HETATM    8  C   UNL     1     -42.962 -54.715  14.678  1.00  0.00     0.052 A 
HETATM    9  C   UNL     1     -40.406 -54.289  14.859  1.00  0.00     0.070 C 
HETATM   10  C   UNL     1     -43.885 -54.429  13.651  1.00  0.00     0.024 A 
HETATM   11  C   UNL     1     -45.345 -54.674  13.642  1.00  0.00     0.070 C 
HETATM   12  N   UNL     1     -43.285 -53.859  12.597  1.00  0.00    -0.303 N 
ATOM     13  HN  UNL     1     -43.706 -53.582  11.710  1.00  0.00     0.186 HD
ENDBRANCH   5   6
ENDBRANCH   1   5
BRANCH   3  14
HETATM   14  C   UNL     1     -40.737 -49.368  11.133  1.00  0.00     0.129 C 
BRANCH  14  15
HETATM   15  C   UNL     1     -39.664 -48.570  11.860  1.00  0.00     0.029 C 
HETATM   16  C   UNL     1     -38.370 -49.327  12.097  1.00  0.00     0.034 C 
HETATM   17  C   UNL     1     -37.850 -48.775  13.413  1.00  0.00     0.168 C 
HETATM   18  O   UNL     1     -38.874 -47.948  13.979  1.00  0.00    -0.391 OA
HETATM   19  C   UNL     1     -40.088 -48.215  13.273  1.00  0.00     0.173 C 
ENDBRANCH  14  15
ENDBRANCH   3  14
TORSDOF 4
ENDMDL
MODEL 5
REMARK VINA RESULT:      -5.2      4.860      7.585
REMARK  4 active torsions:
REMARK  status: ('A' for Active; 'I' for Inactive)
REMARK    1  A    between atoms: N_6  and  C_7 
REMARK    2  A    between atoms: C_7  and  C_8 
REMARK       I    between atoms: C_8  and  N_10 
REMARK    3  A    between atoms: N_10  and  C_11 
REMARK    4  A    between atoms: C_11  and  C_12 
ROOT
HETATM    1  C   UNL     1     -43.941 -54.703  14.255  1.00  0.00     0.237 C 
HETATM    2  O   UNL     1     -43.936 -55.604  15.092  1.00  0.00    -0.272 OA
HETATM    3  N   UNL     1     -42.798 -54.009  13.899  1.00  0.00    -0.359 N 
HETATM    4  H   UNL     1     -42.839 -53.453  13.045  1.00  0.00     0.162 HD
ENDROOT
BRANCH   1   5
HETATM    5  C   UNL     1     -45.216 -54.233  13.604  1.00  0.00     0.251 C 
BRANCH   5   6
HETATM    6  N   UNL     1     -45.842 -53.158  14.349  1.00  0.00    -0.288 N 
HETATM    7  C   UNL     1     -46.477 -52.043  13.860  1.00  0.00     0.027 A 
HETATM    8  C   UNL     1     -47.003 -51.406  14.964  1.00  0.00     0.052 A 
HETATM    9  C   UNL     1     -46.540 -51.684  12.423  1.00  0.00     0.070 C 
HETATM   10  C   UNL     1     -46.632 -52.197  16.072  1.00  0.00     0.024 A 
HETATM   11  C   UNL     1     -46.971 -51.986  17.497  1.00  0.00     0.070 C 
HETATM   12  N   UNL     1     -45.893 -53.250  15.697  1.00  0.00    -0.303 N 
ATOM     13  HN  UNL     1     -45.468 -53.961  16.292  1.00  0.00     0.186 HD
ENDBRANCH   5   6
ENDBRANCH   1   5
BRANCH   3  14
HETATM   14  C   UNL     1     -41.516 -54.401  14.448  1.00  0.00     0.129 C 
BRANCH  14  15
HETATM   15  C   UNL     1     -40.325 -53.801  13.715  1.00  0.00     0.029 C 
HETATM   16  C   UNL     1     -39.340 -53.070  14.608  1.00  0.00     0.034 C 
HETATM   17  C   UNL     1     -38.801 -51.951  13.733  1.00  0.00     0.168 C 
HETATM   18  O   UNL     1     -39.581 -51.918  12.532  1.00  0.00    -0.391 OA
HETATM   19  C   UNL     1     -40.751 -52.709  12.751  1.00  0.00     0.173 C 
ENDBRANCH  14  15
ENDBRANCH   3  14
TORSDOF 4
ENDMDL
MODEL 6
REMARK VINA RESULT:      -5.1      4.099      5.891
REMARK  4 active torsions:
REMARK  status: ('A' for Active; 'I' for Inactive)
REMARK    1  A    between atoms: N_6  and  C_7 
REMARK    2  A    between atoms: C_7  and  C_8 
REMARK       I    between atoms: C_8  and  N_10 
REMARK    3  A    between atoms: N_10  and  C_11 
REMARK    4  A    between atoms: C_11  and  C_12 
ROOT
HETATM    1  C   UNL     1     -42.526 -52.363  12.413  1.00  0.00     0.237 C 
HETATM    2  O   UNL     1     -42.651 -51.208  12.817  1.00  0.00    -0.272 OA
HETATM    3  N   UNL     1     -43.610 -53.185  12.159  1.00  0.00    -0.359 N 
HETATM    4  H   UNL     1     -43.436 -54.028  11.612  1.00  0.00     0.162 HD
ENDROOT
BRANCH   1   5
HETATM    5  C   UNL     1     -41.172 -53.000  12.235  1.00  0.00     0.251 C 
BRANCH   5   6
HETATM    6  N   UNL     1     -40.097 -52.110  12.631  1.00  0.00    -0.288 N 
HETATM    7  C   UNL     1     -39.326 -52.163  13.766  1.00  0.00     0.027 A 
HETATM    8  C   UNL     1     -38.373 -51.179  13.608  1.00  0.00     0.052 A 
HETATM    9  C   UNL     1     -39.543 -53.120  14.877  1.00  0.00     0.070 C 
HETATM   10  C   UNL     1     -38.648 -50.581  12.360  1.00  0.00     0.024 A 
HETATM   11  C   UNL     1     -37.903 -49.494  11.686  1.00  0.00     0.070 C 
HETATM   12  N   UNL     1     -39.723 -51.130  11.779  1.00  0.00    -0.303 N 
ATOM     13  HN  UNL     1     -40.160 -50.868  10.895  1.00  0.00     0.186 HD
ENDBRANCH   5   6
ENDBRANCH   1   5
BRANCH   3  14
HETATM   14  C   UNL     1     -44.956 -52.661  12.275  1.00  0.00     0.129 C 
BRANCH  14  15
HETATM   15  C   UNL     1     -45.799 -53.362  13.330  1.00  0.00     0.029 C 
HETATM   16  C   UNL     1     -45.955 -52.587  14.626  1.00  0.00     0.034 C 
HETATM   17  C   UNL     1     -46.040 -53.662  15.696  1.00  0.00     0.168 C 
HETATM   18  O   UNL     1     -45.730 -54.919  15.083  1.00  0.00    -0.391 OA
HETATM   19  C   UNL     1     -45.149 -54.648  13.806  1.00  0.00     0.173 C 
ENDBRANCH  14  15
ENDBRANCH   3  14
TORSDOF 4
ENDMDL
MODEL 7
REMARK VINA RESULT:      -5.1      3.691      5.959
REMARK  4 active torsions:
REMARK  status: ('A' for Active; 'I' for Inactive)
REMARK    1  A    between atoms: N_6  and  C_7 
REMARK    2  A    between atoms: C_7  and  C_8 
REMARK       I    between atoms: C_8  and  N_10 
REMARK    3  A    between atoms: N_10  and  C_11 
REMARK    4  A    between atoms: C_11  and  C_12 
ROOT
HETATM    1  C   UNL     1     -41.909 -51.777  12.154  1.00  0.00     0.237 C 
HETATM    2  O   UNL     1     -41.035 -52.609  11.920  1.00  0.00    -0.272 OA
HETATM    3  N   UNL     1     -43.217 -52.130  12.439  1.00  0.00    -0.359 N 
HETATM    4  H   UNL     1     -43.814 -51.411  12.847  1.00  0.00     0.162 HD
ENDROOT
BRANCH   1   5
HETATM    5  C   UNL     1     -41.639 -50.297  12.073  1.00  0.00     0.251 C 
BRANCH   5   6
HETATM    6  N   UNL     1     -40.225 -49.996  12.186  1.00  0.00    -0.288 N 
HETATM    7  C   UNL     1     -39.517 -49.652  13.311  1.00  0.00     0.027 A 
HETATM    8  C   UNL     1     -38.198 -49.595  12.911  1.00  0.00     0.052 A 
HETATM    9  C   UNL     1     -40.129 -49.417  14.641  1.00  0.00     0.070 C 
HETATM   10  C   UNL     1     -38.204 -49.909  11.536  1.00  0.00     0.024 A 
HETATM   11  C   UNL     1     -37.045 -50.026  10.623  1.00  0.00     0.070 C 
HETATM   12  N   UNL     1     -39.448 -50.122  11.086  1.00  0.00    -0.303 N 
ATOM     13  HN  UNL     1     -39.743 -50.331  10.133  1.00  0.00     0.186 HD
ENDBRANCH   5   6
ENDBRANCH   1   5
BRANCH   3  14
HETATM   14  C   UNL     1     -43.575 -53.528  12.566  1.00  0.00     0.129 C 
BRANCH  14  15
HETATM   15  C   UNL     1     -44.299 -53.860  13.863  1.00  0.00     0.029 C 
HETATM   16  C   UNL     1     -45.346 -54.952  13.737  1.00  0.00     0.034 C 
HETATM   17  C   UNL     1     -46.413 -54.567  14.747  1.00  0.00     0.168 C 
HETATM   18  O   UNL     1     -46.104 -53.256  15.234  1.00  0.00    -0.391 OA
HETATM   19  C   UNL     1     -45.123 -52.688  14.363  1.00  0.00     0.173 C 
ENDBRANCH  14  15
ENDBRANCH   3  14
TORSDOF 4
ENDMDL
MODEL 8
REMARK VINA RESULT:      -5.0      2.316      5.628
REMARK  4 active torsions:
REMARK  status: ('A' for Active; 'I' for Inactive)
REMARK    1  A    between atoms: N_6  and  C_7 
REMARK    2  A    between atoms: C_7  and  C_8 
REMARK       I    between atoms: C_8  and  N_10 
REMARK    3  A    between atoms: N_10  and  C_11 
REMARK    4  A    between atoms: C_11  and  C_12 
ROOT
HETATM    1  C   UNL     1     -41.253 -49.960  12.398  1.00  0.00     0.237 C 
HETATM    2  O   UNL     1     -41.135 -49.909  13.621  1.00  0.00    -0.272 OA
HETATM    3  N   UNL     1     -41.727 -51.082  11.741  1.00  0.00    -0.359 N 
HETATM    4  H   UNL     1     -42.015 -50.965  10.770  1.00  0.00     0.162 HD
ENDROOT
BRANCH   1   5
HETATM    5  C   UNL     1     -40.816 -48.824  11.510  1.00  0.00     0.251 C 
BRANCH   5   6
HETATM    6  N   UNL     1     -41.930 -48.240  10.787  1.00  0.00    -0.288 N 
HETATM    7  C   UNL     1     -42.880 -47.366  11.253  1.00  0.00     0.027 A 
HETATM    8  C   UNL     1     -43.632 -47.019  10.150  1.00  0.00     0.052 A 
HETATM    9  C   UNL     1     -42.994 -46.935  12.667  1.00  0.00     0.070 C 
HETATM   10  C   UNL     1     -43.073 -47.733   9.069  1.00  0.00     0.024 A 
HETATM   11  C   UNL     1     -43.477 -47.697   7.646  1.00  0.00     0.070 C 
HETATM   12  N   UNL     1     -42.052 -48.505   9.467  1.00  0.00    -0.303 N 
ATOM     13  HN  UNL     1     -41.494 -49.146   8.903  1.00  0.00     0.186 HD
ENDBRANCH   5   6
ENDBRANCH   1   5
BRANCH   3  14
HETATM   14  C   UNL     1     -42.199 -52.220  12.505  1.00  0.00     0.129 C 
BRANCH  14  15
HETATM   15  C   UNL     1     -43.709 -52.404  12.461  1.00  0.00     0.029 C 
HETATM   16  C   UNL     1     -44.444 -51.857  13.671  1.00  0.00     0.034 C 
HETATM   17  C   UNL     1     -45.630 -52.791  13.842  1.00  0.00     0.168 C 
HETATM   18  O   UNL     1     -45.451 -53.896  12.950  1.00  0.00    -0.391 OA
HETATM   19  C   UNL     1     -44.098 -53.871  12.491  1.00  0.00     0.173 C 
ENDBRANCH  14  15
ENDBRANCH   3  14
TORSDOF 4
ENDMDL
MODEL 9
REMARK VINA RESULT:      -5.0      2.084      6.396
REMARK  4 active torsions:
REMARK  status: ('A' for Active; 'I' for Inactive)
REMARK    1  A    between atoms: N_6  and  C_7 
REMARK    2  A    between atoms: C_7  and  C_8 
REMARK       I    between atoms: C_8  and  N_10 
REMARK    3  A    between atoms: N_10  and  C_11 
REMARK    4  A    between atoms: C_11  and  C_12 
ROOT
HETATM    1  C   UNL     1     -42.571 -49.695  12.442  1.00  0.00     0.237 C 
HETATM    2  O   UNL     1     -43.365 -49.441  13.347  1.00  0.00    -0.272 OA
HETATM    3  N   UNL     1     -42.280 -50.990  12.049  1.00  0.00    -0.359 N 
HETATM    4  H   UNL     1     -41.805 -51.108  11.154  1.00  0.00     0.162 HD
ENDROOT
BRANCH   1   5
HETATM    5  C   UNL     1     -41.794 -48.612  11.740  1.00  0.00     0.251 C 
BRANCH   5   6
HETATM    6  N   UNL     1     -42.650 -47.770  10.927  1.00  0.00    -0.288 N 
HETATM    7  C   UNL     1     -42.337 -46.582  10.313  1.00  0.00     0.027 A 
HETATM    8  C   UNL     1     -43.447 -46.251   9.566  1.00  0.00     0.052 A 
HETATM    9  C   UNL     1     -41.042 -45.877  10.473  1.00  0.00     0.070 C 
HETATM   10  C   UNL     1     -44.380 -47.285   9.793  1.00  0.00     0.024 A 
HETATM   11  C   UNL     1     -45.728 -47.442   9.203  1.00  0.00     0.070 C 
HETATM   12  N   UNL     1     -43.903 -48.196  10.652  1.00  0.00    -0.303 N 
ATOM     13  HN  UNL     1     -44.377 -49.023  11.016  1.00  0.00     0.186 HD
ENDBRANCH   5   6
ENDBRANCH   1   5
BRANCH   3  14
HETATM   14  C   UNL     1     -42.992 -52.102  12.644  1.00  0.00     0.129 C 
BRANCH  14  15
HETATM   15  C   UNL     1     -42.115 -53.315  12.920  1.00  0.00     0.029 C 
HETATM   16  C   UNL     1     -41.977 -53.669  14.390  1.00  0.00     0.034 C 
HETATM   17  C   UNL     1     -40.574 -54.240  14.507  1.00  0.00     0.168 C 
HETATM   18  O   UNL     1     -39.903 -54.016  13.261  1.00  0.00    -0.391 OA
HETATM   19  C   UNL     1     -40.673 -53.070  12.516  1.00  0.00     0.173 C 
ENDBRANCH  14  15
ENDBRANCH   3  14
TORSDOF 4
ENDMDL
