MODEL 1
REMARK VINA RESULT:      -5.8      0.000      0.000
REMARK  6 active torsions:
REMARK  status: ('A' for Active; 'I' for Inactive)
REMARK    1  A    between atoms: O_2  and  C_3 
REMARK    2  A    between atoms: C_3  and  C_4 
REMARK    3  A    between atoms: C_4  and  N_5 
REMARK    4  A    between atoms: N_5  and  C_6 
REMARK    5  A    between atoms: C_9  and  S_13 
REMARK    6  A    between atoms: S_13  and  N_16 
ROOT
HETATM    1  C   UNL     1     -41.135 -52.356  12.399  1.00  0.00     0.079 A 
HETATM    2  C   UNL     1     -40.904 -53.065  13.574  1.00  0.00     0.044 A 
HETATM    3  C   UNL     1     -41.953 -53.747  14.186  1.00  0.00     0.030 A 
HETATM    4  C   UNL     1     -43.189 -53.763  13.555  1.00  0.00     0.095 A 
HETATM    5  C   UNL     1     -43.366 -52.993  12.424  1.00  0.00     0.114 A 
HETATM    6  N   UNL     1     -42.361 -52.284  11.841  1.00  0.00    -0.355 N 
ATOM      7  HN  UNL     1     -42.529 -51.717  11.010  1.00  0.00     0.166 HD
ENDROOT
BRANCH   4   8
HETATM    8  S   UNL     1     -44.511 -54.732  14.194  1.00  0.00     0.262 S 
HETATM    9  O   UNL     1     -45.375 -55.050  13.079  1.00  0.00    -0.200 OA
HETATM   10  O   UNL     1     -43.928 -55.779  15.007  1.00  0.00    -0.200 OA
BRANCH   8  11
HETATM   11  N   UNL     1     -45.349 -53.683  15.227  1.00  0.00    -0.303 N 
HETATM   12  C   UNL     1     -46.214 -52.605  14.673  1.00  0.00     0.165 C 
HETATM   13  C   UNL     1     -45.611 -51.185  14.822  1.00  0.00     0.292 C 
HETATM   14  N   UNL     1     -44.914 -50.867  16.085  1.00  0.00     0.087 N 
HETATM   15  C   UNL     1     -45.847 -50.489  17.142  1.00  0.00     0.310 C 
HETATM   16  C   UNL     1     -44.049 -51.987  16.492  1.00  0.00     0.292 C 
HETATM   17  C   UNL     1     -44.766 -53.343  16.543  1.00  0.00     0.165 C 
ENDBRANCH   8  11
ENDBRANCH   4   8
BRANCH   1  18
HETATM   18  N   UNL     1     -40.014 -51.808  11.757  1.00  0.00    -0.277 NA
HETATM   19  H   UNL     1     -40.297 -51.589  10.800  1.00  0.00     0.129 HD
BRANCH  18  20
HETATM   20  C   UNL     1     -39.450 -50.612  12.380  1.00  0.00     0.120 C 
BRANCH  20  21
HETATM   21  C   UNL     1     -38.014 -50.914  12.835  1.00  0.00     0.181 C 
BRANCH  21  22
HETATM   22  O   UNL     1     -37.198 -51.162  11.681  1.00  0.00    -0.395 OA
HETATM   23  C   UNL     1     -37.111 -50.013  10.847  1.00  0.00     0.201 C 
ENDBRANCH  21  22
ENDBRANCH  20  21
ENDBRANCH  18  20
ENDBRANCH   1  18
TORSDOF 6
ENDMDL
MODEL 2
REMARK VINA RESULT:      -5.7      2.573      6.461
REMARK  6 active torsions:
REMARK  status: ('A' for Active; 'I' for Inactive)
REMARK    1  A    between atoms: O_2  and  C_3 
REMARK    2  A    between atoms: C_3  and  C_4 
REMARK    3  A    between atoms: C_4  and  N_5 
REMARK    4  A    between atoms: N_5  and  C_6 
REMARK    5  A    between atoms: C_9  and  S_13 
REMARK    6  A    between atoms: S_13  and  N_16 
ROOT
HETATM    1  C   UNL     1     -44.398 -53.595  12.783  1.00  0.00     0.079 A 
HETATM    2  C   UNL     1     -44.022 -54.358  13.885  1.00  0.00     0.044 A 
HETATM    3  C   UNL     1     -42.695 -54.350  14.309  1.00  0.00     0.030 A 
HETATM    4  C   UNL     1     -41.798 -53.512  13.662  1.00  0.00     0.095 A 
HETATM    5  C   UNL     1     -42.222 -52.826  12.542  1.00  0.00     0.114 A 
HETATM    6  N   UNL     1     -43.505 -52.860  12.088  1.00  0.00    -0.355 N 
ATOM      7  HN  UNL     1     -43.781 -52.348  11.251  1.00  0.00     0.166 HD
ENDROOT
BRANCH   4   8
HETATM    8  S   UNL     1     -40.148 -53.340  14.246  1.00  0.00     0.262 S 
HETATM    9  O   UNL     1     -40.176 -53.615  15.666  1.00  0.00    -0.200 OA
HETATM   10  O   UNL     1     -39.292 -54.097  13.357  1.00  0.00    -0.200 OA
BRANCH   8  11
HETATM   11  N   UNL     1     -39.789 -51.698  14.036  1.00  0.00    -0.303 N 
HETATM   12  C   UNL     1     -38.971 -51.243  12.878  1.00  0.00     0.165 C 
HETATM   13  C   UNL     1     -37.531 -50.816  13.263  1.00  0.00     0.292 C 
HETATM   14  N   UNL     1     -37.356 -50.052  14.515  1.00  0.00     0.087 N 
HETATM   15  C   UNL     1     -37.638 -48.632  14.331  1.00  0.00     0.310 C 
HETATM   16  C   UNL     1     -38.172 -50.637  15.594  1.00  0.00     0.292 C 
HETATM   17  C   UNL     1     -39.649 -50.829  15.224  1.00  0.00     0.165 C 
ENDBRANCH   8  11
ENDBRANCH   4   8
BRANCH   1  18
HETATM   18  N   UNL     1     -45.769 -53.533  12.491  1.00  0.00    -0.277 NA
HETATM   19  H   UNL     1     -46.252 -54.068  13.216  1.00  0.00     0.129 HD
BRANCH  18  20
HETATM   20  C   UNL     1     -46.340 -52.189  12.420  1.00  0.00     0.120 C 
BRANCH  20  21
HETATM   21  C   UNL     1     -46.457 -51.620  13.842  1.00  0.00     0.181 C 
BRANCH  21  22
HETATM   22  O   UNL     1     -47.095 -52.590  14.686  1.00  0.00    -0.395 OA
HETATM   23  C   UNL     1     -46.570 -52.557  16.007  1.00  0.00     0.201 C 
ENDBRANCH  21  22
ENDBRANCH  20  21
ENDBRANCH  18  20
ENDBRANCH   1  18
TORSDOF 6
ENDMDL
MODEL 3
REMARK VINA RESULT:      -5.6      2.891      6.405
REMARK  6 active torsions:
REMARK  status: ('A' for Active; 'I' for Inactive)
REMARK    1  A    between atoms: O_2  and  C_3 
REMARK    2  A    between atoms: C_3  and  C_4 
REMARK    3  A    between atoms: C_4  and  N_5 
REMARK    4  A    between atoms: N_5  and  C_6 
REMARK    5  A    between atoms: C_9  and  S_13 
REMARK    6  A    between atoms: S_13  and  N_16 
ROOT
HETATM    1  C   UNL     1     -43.712 -53.844  12.797  1.00  0.00     0.079 A 
HETATM    2  C   UNL     1     -42.924 -54.458  13.765  1.00  0.00     0.044 A 
HETATM    3  C   UNL     1     -41.602 -54.055  13.937  1.00  0.00     0.030 A 
HETATM    4  C   UNL     1     -41.132 -52.987  13.184  1.00  0.00     0.095 A 
HETATM    5  C   UNL     1     -41.946 -52.460  12.203  1.00  0.00     0.114 A 
HETATM    6  N   UNL     1     -43.225 -52.877  11.992  1.00  0.00    -0.355 N 
ATOM      7  HN  UNL     1     -43.795 -52.472  11.250  1.00  0.00     0.166 HD
ENDROOT
BRANCH   4   8
HETATM    8  S   UNL     1     -39.525 -52.330  13.463  1.00  0.00     0.262 S 
HETATM    9  O   UNL     1     -38.662 -53.449  13.769  1.00  0.00    -0.200 OA
HETATM   10  O   UNL     1     -39.225 -51.437  12.363  1.00  0.00    -0.200 OA
BRANCH   8  11
HETATM   11  N   UNL     1     -39.684 -51.390  14.863  1.00  0.00    -0.303 N 
HETATM   12  C   UNL     1     -40.297 -50.035  14.801  1.00  0.00     0.165 C 
HETATM   13  C   UNL     1     -39.274 -48.881  14.955  1.00  0.00     0.292 C 
HETATM   14  N   UNL     1     -38.193 -49.053  15.946  1.00  0.00     0.087 N 
HETATM   15  C   UNL     1     -38.636 -48.728  17.298  1.00  0.00     0.310 C 
HETATM   16  C   UNL     1     -37.632 -50.414  15.866  1.00  0.00     0.292 C 
HETATM   17  C   UNL     1     -38.685 -51.528  15.945  1.00  0.00     0.165 C 
ENDBRANCH   8  11
ENDBRANCH   4   8
BRANCH   1  18
HETATM   18  N   UNL     1     -45.070 -54.194  12.766  1.00  0.00    -0.277 NA
HETATM   19  H   UNL     1     -45.249 -54.613  11.851  1.00  0.00     0.129 HD
BRANCH  18  20
HETATM   20  C   UNL     1     -45.508 -55.116  13.813  1.00  0.00     0.120 C 
BRANCH  20  21
HETATM   21  C   UNL     1     -46.455 -54.375  14.768  1.00  0.00     0.181 C 
BRANCH  21  22
HETATM   22  O   UNL     1     -46.016 -54.579  16.119  1.00  0.00    -0.395 OA
HETATM   23  C   UNL     1     -45.185 -53.514  16.564  1.00  0.00     0.201 C 
ENDBRANCH  21  22
ENDBRANCH  20  21
ENDBRANCH  18  20
ENDBRANCH   1  18
TORSDOF 6
ENDMDL
MODEL 4
REMARK VINA RESULT:      -5.6      4.185      5.248
REMARK  6 active torsions:
REMARK  status: ('A' for Active; 'I' for Inactive)
REMARK    1  A    between atoms: O_2  and  C_3 
REMARK    2  A    between atoms: C_3  and  C_4 
REMARK    3  A    between atoms: C_4  and  N_5 
REMARK    4  A    between atoms: N_5  and  C_6 
REMARK    5  A    between atoms: C_9  and  S_13 
REMARK    6  A    between atoms: S_13  and  N_16 
ROOT
HETATM    1  C   UNL     1     -41.799 -48.266  10.710  1.00  0.00     0.079 A 
HETATM    2  C   UNL     1     -42.752 -48.383  11.718  1.00  0.00     0.044 A 
HETATM    3  C   UNL     1     -42.744 -49.501  12.549  1.00  0.00     0.030 A 
HETATM    4  C   UNL     1     -41.726 -50.432  12.396  1.00  0.00     0.095 A 
HETATM    5  C   UNL     1     -40.848 -50.286  11.341  1.00  0.00     0.114 A 
HETATM    6  N   UNL     1     -40.873 -49.222  10.492  1.00  0.00    -0.355 N 
ATOM      7  HN  UNL     1     -40.215 -49.152   9.717  1.00  0.00     0.166 HD
ENDROOT
BRANCH   4   8
HETATM    8  S   UNL     1     -41.569 -51.782  13.511  1.00  0.00     0.262 S 
HETATM    9  O   UNL     1     -40.996 -52.880  12.763  1.00  0.00    -0.200 OA
HETATM   10  O   UNL     1     -40.926 -51.283  14.709  1.00  0.00    -0.200 OA
BRANCH   8  11
HETATM   11  N   UNL     1     -43.162 -52.193  13.912  1.00  0.00    -0.303 N 
HETATM   12  C   UNL     1     -43.494 -52.705  15.271  1.00  0.00     0.165 C 
HETATM   13  C   UNL     1     -43.807 -54.222  15.305  1.00  0.00     0.292 C 
HETATM   14  N   UNL     1     -44.604 -54.782  14.194  1.00  0.00     0.087 N 
HETATM   15  C   UNL     1     -46.035 -54.568  14.387  1.00  0.00     0.310 C 
HETATM   16  C   UNL     1     -44.139 -54.243  12.904  1.00  0.00     0.292 C 
HETATM   17  C   UNL     1     -44.063 -52.710  12.859  1.00  0.00     0.165 C 
ENDBRANCH   8  11
ENDBRANCH   4   8
BRANCH   1  18
HETATM   18  N   UNL     1     -41.772 -47.057   9.998  1.00  0.00    -0.277 NA
HETATM   19  H   UNL     1     -41.288 -47.241   9.117  1.00  0.00     0.129 HD
BRANCH  18  20
HETATM   20  C   UNL     1     -43.077 -46.459   9.717  1.00  0.00     0.120 C 
BRANCH  20  21
HETATM   21  C   UNL     1     -43.517 -46.863   8.303  1.00  0.00     0.181 C 
BRANCH  21  22
HETATM   22  O   UNL     1     -44.570 -47.834   8.397  1.00  0.00    -0.395 OA
HETATM   23  C   UNL     1     -45.539 -47.460   9.369  1.00  0.00     0.201 C 
ENDBRANCH  21  22
ENDBRANCH  20  21
ENDBRANCH  18  20
ENDBRANCH   1  18
TORSDOF 6
ENDMDL
MODEL 5
REMARK VINA RESULT:      -5.5      1.724      2.489
REMARK  6 active torsions:
REMARK  status: ('A' for Active; 'I' for Inactive)
REMARK    1  A    between atoms: O_2  and  C_3 
REMARK    2  A    between atoms: C_3  and  C_4 
REMARK    3  A    between atoms: C_4  and  N_5 
REMARK    4  A    between atoms: N_5  and  C_6 
REMARK    5  A    between atoms: C_9  and  S_13 
REMARK    6  A    between atoms: S_13  and  N_16 
ROOT
HETATM    1  C   UNL     1     -40.836 -50.147  11.436  1.00  0.00     0.079 A 
HETATM    2  C   UNL     1     -41.891 -49.587  12.151  1.00  0.00     0.044 A 
HETATM    3  C   UNL     1     -42.823 -50.416  12.769  1.00  0.00     0.030 A 
HETATM    4  C   UNL     1     -42.624 -51.789  12.719  1.00  0.00     0.095 A 
HETATM    5  C   UNL     1     -41.592 -52.281  11.947  1.00  0.00     0.114 A 
HETATM    6  N   UNL     1     -40.701 -51.482  11.298  1.00  0.00    -0.355 N 
ATOM      7  HN  UNL     1     -39.955 -51.881  10.728  1.00  0.00     0.166 HD
ENDROOT
BRANCH   4   8
HETATM    8  S   UNL     1     -43.677 -52.882  13.608  1.00  0.00     0.262 S 
HETATM    9  O   UNL     1     -44.473 -53.587  12.628  1.00  0.00    -0.200 OA
HETATM   10  O   UNL     1     -42.853 -53.602  14.556  1.00  0.00    -0.200 OA
BRANCH   8  11
HETATM   11  N   UNL     1     -44.706 -51.863  14.488  1.00  0.00    -0.303 N 
HETATM   12  C   UNL     1     -44.479 -51.626  15.940  1.00  0.00     0.165 C 
HETATM   13  C   UNL     1     -45.506 -52.338  16.856  1.00  0.00     0.292 C 
HETATM   14  N   UNL     1     -46.917 -52.353  16.419  1.00  0.00     0.087 N 
HETATM   15  C   UNL     1     -47.605 -51.110  16.756  1.00  0.00     0.310 C 
HETATM   16  C   UNL     1     -47.008 -52.656  14.980  1.00  0.00     0.292 C 
HETATM   17  C   UNL     1     -46.129 -51.760  14.097  1.00  0.00     0.165 C 
ENDBRANCH   8  11
ENDBRANCH   4   8
BRANCH   1  18
HETATM   18  N   UNL     1     -39.855 -49.267  10.956  1.00  0.00    -0.277 NA
HETATM   19  H   UNL     1     -40.325 -48.385  10.743  1.00  0.00     0.129 HD
BRANCH  18  20
HETATM   20  C   UNL     1     -38.737 -49.012  11.863  1.00  0.00     0.120 C 
BRANCH  20  21
HETATM   21  C   UNL     1     -37.515 -49.812  11.389  1.00  0.00     0.181 C 
BRANCH  21  22
HETATM   22  O   UNL     1     -37.593 -51.145  11.913  1.00  0.00    -0.395 OA
HETATM   23  C   UNL     1     -37.618 -51.146  13.335  1.00  0.00     0.201 C 
ENDBRANCH  21  22
ENDBRANCH  20  21
ENDBRANCH  18  20
ENDBRANCH   1  18
TORSDOF 6
ENDMDL
MODEL 6
REMARK VINA RESULT:      -5.5      3.918      5.469
REMARK  6 active torsions:
REMARK  status: ('A' for Active; 'I' for Inactive)
REMARK    1  A    between atoms: O_2  and  C_3 
REMARK    2  A    between atoms: C_3  and  C_4 
REMARK    3  A    between atoms: C_4  and  N_5 
REMARK    4  A    between atoms: N_5  and  C_6 
REMARK    5  A    between atoms: C_9  and  S_13 
REMARK    6  A    between atoms: S_13  and  N_16 
ROOT
HETATM    1  C   UNL     1     -41.396 -49.114  10.760  1.00  0.00     0.079 A 
HETATM    2  C   UNL     1     -42.014 -49.107  12.007  1.00  0.00     0.044 A 
HETATM    3  C   UNL     1     -41.549 -49.951  13.012  1.00  0.00     0.030 A 
HETATM    4  C   UNL     1     -40.422 -50.721  12.762  1.00  0.00     0.095 A 
HETATM    5  C   UNL     1     -39.892 -50.724  11.488  1.00  0.00     0.114 A 
HETATM    6  N   UNL     1     -40.366 -49.939  10.481  1.00  0.00    -0.355 N 
ATOM      7  HN  UNL     1     -39.956 -49.974   9.548  1.00  0.00     0.166 HD
ENDROOT
BRANCH   4   8
HETATM    8  S   UNL     1     -39.693 -51.688  14.037  1.00  0.00     0.262 S 
HETATM    9  O   UNL     1     -38.430 -52.172  13.525  1.00  0.00    -0.200 OA
HETATM   10  O   UNL     1     -39.754 -50.913  15.258  1.00  0.00    -0.200 OA
BRANCH   8  11
HETATM   11  N   UNL     1     -40.732 -53.014  14.214  1.00  0.00    -0.303 N 
HETATM   12  C   UNL     1     -41.314 -53.686  13.020  1.00  0.00     0.165 C 
HETATM   13  C   UNL     1     -42.822 -53.391  12.813  1.00  0.00     0.292 C 
HETATM   14  N   UNL     1     -43.682 -53.351  14.013  1.00  0.00     0.087 N 
HETATM   15  C   UNL     1     -44.088 -54.687  14.437  1.00  0.00     0.310 C 
HETATM   16  C   UNL     1     -43.017 -52.610  15.099  1.00  0.00     0.292 C 
HETATM   17  C   UNL     1     -41.596 -53.101  15.411  1.00  0.00     0.165 C 
ENDBRANCH   8  11
ENDBRANCH   4   8
BRANCH   1  18
HETATM   18  N   UNL     1     -41.818 -48.146   9.836  1.00  0.00    -0.277 NA
HETATM   19  H   UNL     1     -41.826 -48.595   8.918  1.00  0.00     0.129 HD
BRANCH  18  20
HETATM   20  C   UNL     1     -43.128 -47.552  10.097  1.00  0.00     0.120 C 
BRANCH  20  21
HETATM   21  C   UNL     1     -43.719 -47.044   8.773  1.00  0.00     0.181 C 
BRANCH  21  22
HETATM   22  O   UNL     1     -44.783 -47.917   8.368  1.00  0.00    -0.395 OA
HETATM   23  C   UNL     1     -46.007 -47.582   9.010  1.00  0.00     0.201 C 
ENDBRANCH  21  22
ENDBRANCH  20  21
ENDBRANCH  18  20
ENDBRANCH   1  18
TORSDOF 6
ENDMDL
MODEL 7
REMARK VINA RESULT:      -5.5      3.104      6.249
REMARK  6 active torsions:
REMARK  status: ('A' for Active; 'I' for Inactive)
REMARK    1  A    between atoms: O_2  and  C_3 
REMARK    2  A    between atoms: C_3  and  C_4 
REMARK    3  A    between atoms: C_4  and  N_5 
REMARK    4  A    between atoms: N_5  and  C_6 
REMARK    5  A    between atoms: C_9  and  S_13 
REMARK    6  A    between atoms: S_13  and  N_16 
ROOT
HETATM    1  C   UNL     1     -42.927 -53.377  12.438  1.00  0.00     0.079 A 
HETATM    2  C   UNL     1     -42.426 -53.683  13.700  1.00  0.00     0.044 A 
HETATM    3  C   UNL     1     -41.188 -53.181  14.092  1.00  0.00     0.030 A 
HETATM    4  C   UNL     1     -40.523 -52.315  13.234  1.00  0.00     0.095 A 
HETATM    5  C   UNL     1     -41.047 -52.098  11.976  1.00  0.00     0.114 A 
HETATM    6  N   UNL     1     -42.233 -52.621  11.562  1.00  0.00    -0.355 N 
ATOM      7  HN  UNL     1     -42.585 -52.447  10.621  1.00  0.00     0.166 HD
ENDROOT
BRANCH   4   8
HETATM    8  S   UNL     1     -39.033 -51.525  13.733  1.00  0.00     0.262 S 
HETATM    9  O   UNL     1     -38.676 -52.078  15.020  1.00  0.00    -0.200 OA
HETATM   10  O   UNL     1     -38.114 -51.587  12.615  1.00  0.00    -0.200 OA
BRANCH   8  11
HETATM   11  N   UNL     1     -39.464 -49.902  13.958  1.00  0.00    -0.303 N 
HETATM   12  C   UNL     1     -40.750 -49.544  14.617  1.00  0.00     0.165 C 
HETATM   13  C   UNL     1     -41.818 -48.991  13.639  1.00  0.00     0.292 C 
HETATM   14  N   UNL     1     -41.363 -48.073  12.576  1.00  0.00     0.087 N 
HETATM   15  C   UNL     1     -41.221 -46.704  13.062  1.00  0.00     0.310 C 
HETATM   16  C   UNL     1     -40.117 -48.570  11.966  1.00  0.00     0.292 C 
HETATM   17  C   UNL     1     -39.010 -48.890  12.980  1.00  0.00     0.165 C 
ENDBRANCH   8  11
ENDBRANCH   4   8
BRANCH   1  18
HETATM   18  N   UNL     1     -44.236 -53.795  12.155  1.00  0.00    -0.277 NA
HETATM   19  H   UNL     1     -44.204 -54.809  12.032  1.00  0.00     0.129 HD
BRANCH  18  20
HETATM   20  C   UNL     1     -45.238 -53.462  13.166  1.00  0.00     0.120 C 
BRANCH  20  21
HETATM   21  C   UNL     1     -46.030 -52.232  12.700  1.00  0.00     0.181 C 
BRANCH  21  22
HETATM   22  O   UNL     1     -46.694 -52.540  11.466  1.00  0.00    -0.395 OA
HETATM   23  C   UNL     1     -47.508 -51.459  11.027  1.00  0.00     0.201 C 
ENDBRANCH  21  22
ENDBRANCH  20  21
ENDBRANCH  18  20
ENDBRANCH   1  18
TORSDOF 6
ENDMDL
MODEL 8
REMARK VINA RESULT:      -5.5      4.312      6.327
REMARK  6 active torsions:
REMARK  status: ('A' for Active; 'I' for Inactive)
REMARK    1  A    between atoms: O_2  and  C_3 
REMARK    2  A    between atoms: C_3  and  C_4 
REMARK    3  A    between atoms: C_4  and  N_5 
REMARK    4  A    between atoms: N_5  and  C_6 
REMARK    5  A    between atoms: C_9  and  S_13 
REMARK    6  A    between atoms: S_13  and  N_16 
ROOT
HETATM    1  C   UNL     1     -41.771 -48.200  10.665  1.00  0.00     0.079 A 
HETATM    2  C   UNL     1     -42.698 -48.502  11.659  1.00  0.00     0.044 A 
HETATM    3  C   UNL     1     -42.560 -49.673  12.398  1.00  0.00     0.030 A 
HETATM    4  C   UNL     1     -41.446 -50.471  12.174  1.00  0.00     0.095 A 
HETATM    5  C   UNL     1     -40.597 -50.145  11.136  1.00  0.00     0.114 A 
HETATM    6  N   UNL     1     -40.746 -49.028  10.374  1.00  0.00    -0.355 N 
ATOM      7  HN  UNL     1     -40.104 -48.823   9.608  1.00  0.00     0.166 HD
ENDROOT
BRANCH   4   8
HETATM    8  S   UNL     1     -41.133 -51.879  13.179  1.00  0.00     0.262 S 
HETATM    9  O   UNL     1     -42.358 -52.167  13.891  1.00  0.00    -0.200 OA
HETATM   10  O   UNL     1     -40.506 -52.880  12.340  1.00  0.00    -0.200 OA
BRANCH   8  11
HETATM   11  N   UNL     1     -39.981 -51.354  14.305  1.00  0.00    -0.303 N 
HETATM   12  C   UNL     1     -40.117 -50.026  14.964  1.00  0.00     0.165 C 
HETATM   13  C   UNL     1     -39.108 -48.968  14.448  1.00  0.00     0.292 C 
HETATM   14  N   UNL     1     -37.726 -49.416  14.179  1.00  0.00     0.087 N 
HETATM   15  C   UNL     1     -36.923 -49.465  15.397  1.00  0.00     0.310 C 
HETATM   16  C   UNL     1     -37.731 -50.709  13.473  1.00  0.00     0.292 C 
HETATM   17  C   UNL     1     -38.576 -51.791  14.160  1.00  0.00     0.165 C 
ENDBRANCH   8  11
ENDBRANCH   4   8
BRANCH   1  18
HETATM   18  N   UNL     1     -41.882 -46.943  10.052  1.00  0.00    -0.277 NA
HETATM   19  H   UNL     1     -41.304 -46.970   9.210  1.00  0.00     0.129 HD
BRANCH  18  20
HETATM   20  C   UNL     1     -43.239 -46.533   9.693  1.00  0.00     0.120 C 
BRANCH  20  21
HETATM   21  C   UNL     1     -43.560 -47.046   8.281  1.00  0.00     0.181 C 
BRANCH  21  22
HETATM   22  O   UNL     1     -44.689 -47.928   8.346  1.00  0.00    -0.395 OA
HETATM   23  C   UNL     1     -45.608 -47.526   9.354  1.00  0.00     0.201 C 
ENDBRANCH  21  22
ENDBRANCH  20  21
ENDBRANCH  18  20
ENDBRANCH   1  18
TORSDOF 6
ENDMDL
MODEL 9
REMARK VINA RESULT:      -5.3      3.036      6.567
REMARK  6 active torsions:
REMARK  status: ('A' for Active; 'I' for Inactive)
REMARK    1  A    between atoms: O_2  and  C_3 
REMARK    2  A    between atoms: C_3  and  C_4 
REMARK    3  A    between atoms: C_4  and  N_5 
REMARK    4  A    between atoms: N_5  and  C_6 
REMARK    5  A    between atoms: C_9  and  S_13 
REMARK    6  A    between atoms: S_13  and  N_16 
ROOT
HETATM    1  C   UNL     1     -42.929 -53.396  12.474  1.00  0.00     0.079 A 
HETATM    2  C   UNL     1     -42.316 -53.937  13.601  1.00  0.00     0.044 A 
HETATM    3  C   UNL     1     -41.070 -53.463  14.004  1.00  0.00     0.030 A 
HETATM    4  C   UNL     1     -40.510 -52.400  13.309  1.00  0.00     0.095 A 
HETATM    5  C   UNL     1     -41.142 -51.948  12.169  1.00  0.00     0.114 A 
HETATM    6  N   UNL     1     -42.337 -52.435  11.736  1.00  0.00    -0.355 N 
ATOM      7  HN  UNL     1     -42.771 -52.084  10.882  1.00  0.00     0.166 HD
ENDROOT
BRANCH   4   8
HETATM    8  S   UNL     1     -39.016 -51.654  13.861  1.00  0.00     0.262 S 
HETATM    9  O   UNL     1     -38.870 -51.993  15.259  1.00  0.00    -0.200 OA
HETATM   10  O   UNL     1     -37.984 -51.989  12.901  1.00  0.00    -0.200 OA
BRANCH   8  11
HETATM   11  N   UNL     1     -39.304 -49.988  13.750  1.00  0.00    -0.303 N 
HETATM   12  C   UNL     1     -38.286 -49.081  13.153  1.00  0.00     0.165 C 
HETATM   13  C   UNL     1     -37.547 -48.202  14.194  1.00  0.00     0.292 C 
HETATM   14  N   UNL     1     -38.346 -47.634  15.299  1.00  0.00     0.087 N 
HETATM   15  C   UNL     1     -39.048 -46.419  14.896  1.00  0.00     0.310 C 
HETATM   16  C   UNL     1     -39.270 -48.647  15.840  1.00  0.00     0.292 C 
HETATM   17  C   UNL     1     -40.141 -49.329  14.776  1.00  0.00     0.165 C 
ENDBRANCH   8  11
ENDBRANCH   4   8
BRANCH   1  18
HETATM   18  N   UNL     1     -44.240 -53.815  12.201  1.00  0.00    -0.277 NA
HETATM   19  H   UNL     1     -44.228 -54.837  12.188  1.00  0.00     0.129 HD
BRANCH  18  20
HETATM   20  C   UNL     1     -45.260 -53.355  13.142  1.00  0.00     0.120 C 
BRANCH  20  21
HETATM   21  C   UNL     1     -46.227 -52.413  12.410  1.00  0.00     0.181 C 
BRANCH  21  22
HETATM   22  O   UNL     1     -46.540 -51.303  13.263  1.00  0.00    -0.395 OA
HETATM   23  C   UNL     1     -46.595 -51.695  14.630  1.00  0.00     0.201 C 
ENDBRANCH  21  22
ENDBRANCH  20  21
ENDBRANCH  18  20
ENDBRANCH   1  18
TORSDOF 6
ENDMDL
