MODEL 1
REMARK VINA RESULT:      -6.0      0.000      0.000
REMARK  6 active torsions:
REMARK  status: ('A' for Active; 'I' for Inactive)
REMARK    1  A    between atoms: C_5  and  C_6 
REMARK    2  A    between atoms: C_6  and  C_7 
REMARK    3  A    between atoms: C_7  and  N_8 
REMARK       I    between atoms: N_8  and  C_9 
REMARK    4  A    between atoms: C_9  and  C_11 
REMARK    5  A    between atoms: C_11  and  C_14 
REMARK    6  A    between atoms: C_14  and  O_15 
ROOT
HETATM    1  N   UNL     1     -41.581 -46.499   9.888  1.00  0.00    -0.355 N 
HETATM    2  C   UNL     1     -42.763 -45.808  10.085  1.00  0.00     0.293 C 
HETATM    3  O   UNL     1     -42.933 -45.047  11.039  1.00  0.00    -0.267 OA
HETATM    4  H   UNL     1     -41.548 -47.206   9.158  1.00  0.00     0.162 HD
ENDROOT
BRANCH   1   5
HETATM    5  C   UNL     1     -40.439 -46.374  10.778  1.00  0.00     0.129 C 
BRANCH   5   6
HETATM    6  C   UNL     1     -39.560 -45.159  10.479  1.00  0.00     0.077 C 
BRANCH   6   7
HETATM    7  C   UNL     1     -39.840 -44.003  11.385  1.00  0.00     0.018 A 
HETATM    8  N   UNL     1     -40.559 -42.924  10.891  1.00  0.00    -0.357 N 
HETATM    9  C   UNL     1     -40.715 -42.014  11.827  1.00  0.00     0.046 A 
ATOM     10  HN  UNL     1     -40.915 -42.848   9.938  1.00  0.00     0.166 HD
HETATM   11  C   UNL     1     -41.438 -40.727  11.640  1.00  0.00     0.076 C 
HETATM   12  S   UNL     1     -40.008 -42.389  13.346  1.00  0.00    -0.087 SA
HETATM   13  C   UNL     1     -39.463 -43.882  12.710  1.00  0.00     0.076 A 
ENDBRANCH   6   7
ENDBRANCH   5   6
ENDBRANCH   1   5
BRANCH   2  14
HETATM   14  C   UNL     1     -43.828 -46.036   8.998  1.00  0.00     0.352 C 
HETATM   15  F   UNL     1     -44.646 -44.945   8.884  1.00  0.00    -0.192 F 
HETATM   16  F   UNL     1     -43.234 -46.162   7.767  1.00  0.00    -0.192 F 
BRANCH  14  17
HETATM   17  C   UNL     1     -44.700 -47.274   9.270  1.00  0.00     0.133 C 
HETATM   18  C   UNL     1     -44.951 -48.182   8.026  1.00  0.00     0.045 C 
HETATM   19  C   UNL     1     -46.409 -48.327   8.504  1.00  0.00     0.006 C 
HETATM   20  C   UNL     1     -46.234 -46.989   9.247  1.00  0.00     0.045 C 
BRANCH  17  21
HETATM   21  O   UNL     1     -44.271 -48.001  10.463  1.00  0.00    -0.383 OA
HETATM   22  H   UNL     1     -44.818 -47.648  11.196  1.00  0.00     0.210 HD
ENDBRANCH  17  21
ENDBRANCH  14  17
ENDBRANCH   2  14
TORSDOF 6
ENDMDL
MODEL 2
REMARK VINA RESULT:      -5.7      5.815      6.975
REMARK  6 active torsions:
REMARK  status: ('A' for Active; 'I' for Inactive)
REMARK    1  A    between atoms: C_5  and  C_6 
REMARK    2  A    between atoms: C_6  and  C_7 
REMARK    3  A    between atoms: C_7  and  N_8 
REMARK       I    between atoms: N_8  and  C_9 
REMARK    4  A    between atoms: C_9  and  C_11 
REMARK    5  A    between atoms: C_11  and  C_14 
REMARK    6  A    between atoms: C_14  and  O_15 
ROOT
HETATM    1  N   UNL     1     -43.464 -50.390  12.508  1.00  0.00    -0.355 N 
HETATM    2  C   UNL     1     -44.138 -50.593  13.699  1.00  0.00     0.293 C 
HETATM    3  O   UNL     1     -43.808 -50.039  14.749  1.00  0.00    -0.267 OA
HETATM    4  H   UNL     1     -43.704 -50.972  11.709  1.00  0.00     0.162 HD
ENDROOT
BRANCH   1   5
HETATM    5  C   UNL     1     -42.323 -49.499  12.393  1.00  0.00     0.129 C 
BRANCH   5   6
HETATM    6  C   UNL     1     -42.708 -48.041  12.139  1.00  0.00     0.077 C 
BRANCH   6   7
HETATM    7  C   UNL     1     -43.299 -47.824  10.782  1.00  0.00     0.018 A 
HETATM    8  N   UNL     1     -44.670 -47.645  10.671  1.00  0.00    -0.357 N 
HETATM    9  C   UNL     1     -45.005 -47.459   9.413  1.00  0.00     0.046 A 
ATOM     10  HN  UNL     1     -45.325 -47.655  11.453  1.00  0.00     0.166 HD
HETATM   11  C   UNL     1     -46.396 -47.236   8.934  1.00  0.00     0.076 C 
HETATM   12  S   UNL     1     -43.704 -47.495   8.291  1.00  0.00    -0.087 SA
HETATM   13  C   UNL     1     -42.614 -47.767   9.583  1.00  0.00     0.076 A 
ENDBRANCH   6   7
ENDBRANCH   5   6
ENDBRANCH   1   5
BRANCH   2  14
HETATM   14  C   UNL     1     -45.354 -51.531  13.596  1.00  0.00     0.352 C 
HETATM   15  F   UNL     1     -46.072 -51.524  14.760  1.00  0.00    -0.192 F 
HETATM   16  F   UNL     1     -46.227 -51.078  12.639  1.00  0.00    -0.192 F 
BRANCH  14  17
HETATM   17  C   UNL     1     -44.959 -52.984  13.274  1.00  0.00     0.133 C 
HETATM   18  C   UNL     1     -45.883 -54.068  13.909  1.00  0.00     0.045 C 
HETATM   19  C   UNL     1     -44.611 -54.880  14.221  1.00  0.00     0.006 C 
HETATM   20  C   UNL     1     -43.830 -53.552  14.188  1.00  0.00     0.045 C 
BRANCH  17  21
HETATM   21  O   UNL     1     -44.697 -53.182  11.850  1.00  0.00    -0.383 OA
HETATM   22  H   UNL     1     -44.000 -53.869  11.804  1.00  0.00     0.210 HD
ENDBRANCH  17  21
ENDBRANCH  14  17
ENDBRANCH   2  14
TORSDOF 6
ENDMDL
MODEL 3
REMARK VINA RESULT:      -5.7      2.916      4.312
REMARK  6 active torsions:
REMARK  status: ('A' for Active; 'I' for Inactive)
REMARK    1  A    between atoms: C_5  and  C_6 
REMARK    2  A    between atoms: C_6  and  C_7 
REMARK    3  A    between atoms: C_7  and  N_8 
REMARK       I    between atoms: N_8  and  C_9 
REMARK    4  A    between atoms: C_9  and  C_11 
REMARK    5  A    between atoms: C_11  and  C_14 
REMARK    6  A    between atoms: C_14  and  O_15 
ROOT
HETATM    1  N   UNL     1     -41.532 -46.571   9.982  1.00  0.00    -0.355 N 
HETATM    2  C   UNL     1     -42.659 -45.780  10.117  1.00  0.00     0.293 C 
HETATM    3  O   UNL     1     -42.779 -44.947  11.016  1.00  0.00    -0.267 OA
HETATM    4  H   UNL     1     -41.547 -47.325   9.301  1.00  0.00     0.162 HD
ENDROOT
BRANCH   1   5
HETATM    5  C   UNL     1     -40.393 -46.475  10.879  1.00  0.00     0.129 C 
BRANCH   5   6
HETATM    6  C   UNL     1     -40.689 -46.959  12.299  1.00  0.00     0.077 C 
BRANCH   6   7
HETATM    7  C   UNL     1     -41.145 -48.382  12.345  1.00  0.00     0.018 A 
HETATM    8  N   UNL     1     -42.395 -48.667  12.875  1.00  0.00    -0.357 N 
HETATM    9  C   UNL     1     -42.627 -49.961  12.824  1.00  0.00     0.046 A 
ATOM     10  HN  UNL     1     -43.042 -47.973  13.250  1.00  0.00     0.166 HD
HETATM   11  C   UNL     1     -43.874 -50.614  13.308  1.00  0.00     0.076 C 
HETATM   12  S   UNL     1     -41.366 -50.910  12.147  1.00  0.00    -0.087 SA
HETATM   13  C   UNL     1     -40.447 -49.487  11.895  1.00  0.00     0.076 A 
ENDBRANCH   6   7
ENDBRANCH   5   6
ENDBRANCH   1   5
BRANCH   2  14
HETATM   14  C   UNL     1     -43.728 -45.997   9.031  1.00  0.00     0.352 C 
HETATM   15  F   UNL     1     -44.536 -44.899   8.918  1.00  0.00    -0.192 F 
HETATM   16  F   UNL     1     -43.138 -46.129   7.799  1.00  0.00    -0.192 F 
BRANCH  14  17
HETATM   17  C   UNL     1     -44.612 -47.228   9.304  1.00  0.00     0.133 C 
HETATM   18  C   UNL     1     -44.861 -48.141   8.063  1.00  0.00     0.045 C 
HETATM   19  C   UNL     1     -46.323 -48.272   8.533  1.00  0.00     0.006 C 
HETATM   20  C   UNL     1     -46.143 -46.931   9.269  1.00  0.00     0.045 C 
BRANCH  17  21
HETATM   21  O   UNL     1     -44.196 -47.951  10.504  1.00  0.00    -0.383 OA
HETATM   22  H   UNL     1     -43.878 -48.823  10.189  1.00  0.00     0.210 HD
ENDBRANCH  17  21
ENDBRANCH  14  17
ENDBRANCH   2  14
TORSDOF 6
ENDMDL
MODEL 4
REMARK VINA RESULT:      -5.6      7.470      8.531
REMARK  6 active torsions:
REMARK  status: ('A' for Active; 'I' for Inactive)
REMARK    1  A    between atoms: C_5  and  C_6 
REMARK    2  A    between atoms: C_6  and  C_7 
REMARK    3  A    between atoms: C_7  and  N_8 
REMARK       I    between atoms: N_8  and  C_9 
REMARK    4  A    between atoms: C_9  and  C_11 
REMARK    5  A    between atoms: C_11  and  C_14 
REMARK    6  A    between atoms: C_14  and  O_15 
ROOT
HETATM    1  N   UNL     1     -42.489 -54.170  13.905  1.00  0.00    -0.355 N 
HETATM    2  C   UNL     1     -43.617 -53.830  13.180  1.00  0.00     0.293 C 
HETATM    3  O   UNL     1     -43.554 -53.324  12.058  1.00  0.00    -0.267 OA
HETATM    4  H   UNL     1     -42.604 -54.463  14.872  1.00  0.00     0.162 HD
ENDROOT
BRANCH   1   5
HETATM    5  C   UNL     1     -41.141 -53.972  13.401  1.00  0.00     0.129 C 
BRANCH   5   6
HETATM    6  C   UNL     1     -40.417 -52.785  14.038  1.00  0.00     0.077 C 
BRANCH   6   7
HETATM    7  C   UNL     1     -40.151 -51.678  13.068  1.00  0.00     0.018 A 
HETATM    8  N   UNL     1     -38.837 -51.309  12.820  1.00  0.00    -0.357 N 
HETATM    9  C   UNL     1     -38.797 -50.333  11.938  1.00  0.00     0.046 A 
ATOM     10  HN  UNL     1     -38.019 -51.732  13.258  1.00  0.00     0.166 HD
HETATM   11  C   UNL     1     -37.548 -49.694  11.443  1.00  0.00     0.076 C 
HETATM   12  S   UNL     1     -40.324 -49.798  11.362  1.00  0.00    -0.087 SA
HETATM   13  C   UNL     1     -41.093 -50.962  12.354  1.00  0.00     0.076 A 
ENDBRANCH   6   7
ENDBRANCH   5   6
ENDBRANCH   1   5
BRANCH   2  14
HETATM   14  C   UNL     1     -44.950 -54.173  13.868  1.00  0.00     0.352 C 
HETATM   15  F   UNL     1     -45.485 -55.318  13.347  1.00  0.00    -0.192 F 
HETATM   16  F   UNL     1     -44.743 -54.451  15.196  1.00  0.00    -0.192 F 
BRANCH  14  17
HETATM   17  C   UNL     1     -45.991 -53.045  13.743  1.00  0.00     0.133 C 
HETATM   18  C   UNL     1     -45.531 -51.667  14.312  1.00  0.00     0.045 C 
HETATM   19  C   UNL     1     -46.948 -51.507  14.897  1.00  0.00     0.006 C 
HETATM   20  C   UNL     1     -47.064 -53.044  14.876  1.00  0.00     0.045 C 
BRANCH  17  21
HETATM   21  O   UNL     1     -46.571 -52.976  12.404  1.00  0.00    -0.383 OA
HETATM   22  H   UNL     1     -47.501 -52.695  12.535  1.00  0.00     0.210 HD
ENDBRANCH  17  21
ENDBRANCH  14  17
ENDBRANCH   2  14
TORSDOF 6
ENDMDL
MODEL 5
REMARK VINA RESULT:      -5.5      7.067      8.123
REMARK  6 active torsions:
REMARK  status: ('A' for Active; 'I' for Inactive)
REMARK    1  A    between atoms: C_5  and  C_6 
REMARK    2  A    between atoms: C_6  and  C_7 
REMARK    3  A    between atoms: C_7  and  N_8 
REMARK       I    between atoms: N_8  and  C_9 
REMARK    4  A    between atoms: C_9  and  C_11 
REMARK    5  A    between atoms: C_11  and  C_14 
REMARK    6  A    between atoms: C_14  and  O_15 
ROOT
HETATM    1  N   UNL     1     -43.356 -52.131  12.376  1.00  0.00    -0.355 N 
HETATM    2  C   UNL     1     -44.470 -52.940  12.507  1.00  0.00     0.293 C 
HETATM    3  O   UNL     1     -44.421 -54.162  12.364  1.00  0.00    -0.267 OA
HETATM    4  H   UNL     1     -43.485 -51.122  12.379  1.00  0.00     0.162 HD
ENDROOT
BRANCH   1   5
HETATM    5  C   UNL     1     -42.035 -52.655  12.073  1.00  0.00     0.129 C 
BRANCH   5   6
HETATM    6  C   UNL     1     -41.169 -52.885  13.312  1.00  0.00     0.077 C 
BRANCH   6   7
HETATM    7  C   UNL     1     -39.962 -52.004  13.350  1.00  0.00     0.018 A 
HETATM    8  N   UNL     1     -39.579 -51.344  12.191  1.00  0.00    -0.357 N 
HETATM    9  C   UNL     1     -38.510 -50.612  12.416  1.00  0.00     0.046 A 
ATOM     10  HN  UNL     1     -40.058 -51.416  11.294  1.00  0.00     0.166 HD
HETATM   11  C   UNL     1     -37.831 -49.773  11.392  1.00  0.00     0.076 C 
HETATM   12  S   UNL     1     -37.898 -50.675  14.020  1.00  0.00    -0.087 SA
HETATM   13  C   UNL     1     -39.160 -51.750  14.447  1.00  0.00     0.076 A 
ENDBRANCH   6   7
ENDBRANCH   5   6
ENDBRANCH   1   5
BRANCH   2  14
HETATM   14  C   UNL     1     -45.763 -52.195  12.886  1.00  0.00     0.352 C 
HETATM   15  F   UNL     1     -45.562 -50.842  12.886  1.00  0.00    -0.192 F 
HETATM   16  F   UNL     1     -46.732 -52.409  11.939  1.00  0.00    -0.192 F 
BRANCH  14  17
HETATM   17  C   UNL     1     -46.304 -52.609  14.267  1.00  0.00     0.133 C 
HETATM   18  C   UNL     1     -47.070 -51.485  15.032  1.00  0.00     0.045 C 
HETATM   19  C   UNL     1     -46.358 -51.959  16.314  1.00  0.00     0.006 C 
HETATM   20  C   UNL     1     -45.247 -52.530  15.412  1.00  0.00     0.045 C 
BRANCH  17  21
HETATM   21  O   UNL     1     -47.007 -53.888  14.224  1.00  0.00    -0.383 OA
HETATM   22  H   UNL     1     -47.937 -53.686  14.462  1.00  0.00     0.210 HD
ENDBRANCH  17  21
ENDBRANCH  14  17
ENDBRANCH   2  14
TORSDOF 6
ENDMDL
MODEL 6
REMARK VINA RESULT:      -5.5      6.032      7.226
REMARK  6 active torsions:
REMARK  status: ('A' for Active; 'I' for Inactive)
REMARK    1  A    between atoms: C_5  and  C_6 
REMARK    2  A    between atoms: C_6  and  C_7 
REMARK    3  A    between atoms: C_7  and  N_8 
REMARK       I    between atoms: N_8  and  C_9 
REMARK    4  A    between atoms: C_9  and  C_11 
REMARK    5  A    between atoms: C_11  and  C_14 
REMARK    6  A    between atoms: C_14  and  O_15 
ROOT
HETATM    1  N   UNL     1     -41.614 -50.392  11.677  1.00  0.00    -0.355 N 
HETATM    2  C   UNL     1     -41.210 -51.626  12.153  1.00  0.00     0.293 C 
HETATM    3  O   UNL     1     -40.034 -51.994  12.123  1.00  0.00    -0.267 OA
HETATM    4  H   UNL     1     -42.610 -50.200  11.612  1.00  0.00     0.162 HD
ENDROOT
BRANCH   1   5
HETATM    5  C   UNL     1     -40.687 -49.423  11.118  1.00  0.00     0.129 C 
BRANCH   5   6
HETATM    6  C   UNL     1     -41.081 -47.971  11.393  1.00  0.00     0.077 C 
BRANCH   6   7
HETATM    7  C   UNL     1     -42.058 -47.435  10.396  1.00  0.00     0.018 A 
HETATM    8  N   UNL     1     -42.433 -48.238   9.329  1.00  0.00    -0.357 N 
HETATM    9  C   UNL     1     -43.301 -47.607   8.568  1.00  0.00     0.046 A 
ATOM     10  HN  UNL     1     -42.085 -49.181   9.158  1.00  0.00     0.166 HD
HETATM   11  C   UNL     1     -43.912 -48.176   7.336  1.00  0.00     0.076 C 
HETATM   12  S   UNL     1     -43.714 -46.021   9.079  1.00  0.00    -0.087 SA
HETATM   13  C   UNL     1     -42.664 -46.193  10.421  1.00  0.00     0.076 A 
ENDBRANCH   6   7
ENDBRANCH   5   6
ENDBRANCH   1   5
BRANCH   2  14
HETATM   14  C   UNL     1     -42.338 -52.482  12.757  1.00  0.00     0.352 C 
HETATM   15  F   UNL     1     -43.039 -51.771  13.691  1.00  0.00    -0.192 F 
HETATM   16  F   UNL     1     -43.260 -52.806  11.794  1.00  0.00    -0.192 F 
BRANCH  14  17
HETATM   17  C   UNL     1     -41.817 -53.773  13.414  1.00  0.00     0.133 C 
HETATM   18  C   UNL     1     -42.900 -54.603  14.172  1.00  0.00     0.045 C 
HETATM   19  C   UNL     1     -41.853 -54.843  15.277  1.00  0.00     0.006 C 
HETATM   20  C   UNL     1     -41.153 -53.553  14.809  1.00  0.00     0.045 C 
BRANCH  17  21
HETATM   21  O   UNL     1     -40.989 -54.561  12.504  1.00  0.00    -0.383 OA
HETATM   22  H   UNL     1     -40.519 -53.908  11.944  1.00  0.00     0.210 HD
ENDBRANCH  17  21
ENDBRANCH  14  17
ENDBRANCH   2  14
TORSDOF 6
ENDMDL
MODEL 7
REMARK VINA RESULT:      -5.4      6.305      7.339
REMARK  6 active torsions:
REMARK  status: ('A' for Active; 'I' for Inactive)
REMARK    1  A    between atoms: C_5  and  C_6 
REMARK    2  A    between atoms: C_6  and  C_7 
REMARK    3  A    between atoms: C_7  and  N_8 
REMARK       I    between atoms: N_8  and  C_9 
REMARK    4  A    between atoms: C_9  and  C_11 
REMARK    5  A    between atoms: C_11  and  C_14 
REMARK    6  A    between atoms: C_14  and  O_15 
ROOT
HETATM    1  N   UNL     1     -42.854 -52.436  11.969  1.00  0.00    -0.355 N 
HETATM    2  C   UNL     1     -43.320 -53.421  12.821  1.00  0.00     0.293 C 
HETATM    3  O   UNL     1     -42.567 -54.205  13.401  1.00  0.00    -0.267 OA
HETATM    4  H   UNL     1     -43.530 -51.906  11.424  1.00  0.00     0.162 HD
ENDROOT
BRANCH   1   5
HETATM    5  C   UNL     1     -41.442 -52.236  11.696  1.00  0.00     0.129 C 
BRANCH   5   6
HETATM    6  C   UNL     1     -40.806 -51.130  12.540  1.00  0.00     0.077 C 
BRANCH   6   7
HETATM    7  C   UNL     1     -40.995 -49.768  11.951  1.00  0.00     0.018 A 
HETATM    8  N   UNL     1     -42.235 -49.431  11.431  1.00  0.00    -0.357 N 
HETATM    9  C   UNL     1     -42.216 -48.200  10.969  1.00  0.00     0.046 A 
ATOM     10  HN  UNL     1     -43.047 -50.049  11.409  1.00  0.00     0.166 HD
HETATM   11  C   UNL     1     -43.379 -47.515  10.341  1.00  0.00     0.076 C 
HETATM   12  S   UNL     1     -40.716 -47.378  11.124  1.00  0.00    -0.087 SA
HETATM   13  C   UNL     1     -40.047 -48.765  11.872  1.00  0.00     0.076 A 
ENDBRANCH   6   7
ENDBRANCH   5   6
ENDBRANCH   1   5
BRANCH   2  14
HETATM   14  C   UNL     1     -44.847 -53.429  13.019  1.00  0.00     0.352 C 
HETATM   15  F   UNL     1     -45.483 -52.948  11.908  1.00  0.00    -0.192 F 
HETATM   16  F   UNL     1     -45.303 -54.716  13.158  1.00  0.00    -0.192 F 
BRANCH  14  17
HETATM   17  C   UNL     1     -45.293 -52.599  14.236  1.00  0.00     0.133 C 
HETATM   18  C   UNL     1     -46.414 -53.258  15.100  1.00  0.00     0.045 C 
HETATM   19  C   UNL     1     -47.060 -51.864  15.211  1.00  0.00     0.006 C 
HETATM   20  C   UNL     1     -46.341 -51.492  13.900  1.00  0.00     0.045 C 
BRANCH  17  21
HETATM   21  O   UNL     1     -44.159 -52.098  15.009  1.00  0.00    -0.383 OA
HETATM   22  H   UNL     1     -44.542 -51.749  15.841  1.00  0.00     0.210 HD
ENDBRANCH  17  21
ENDBRANCH  14  17
ENDBRANCH   2  14
TORSDOF 6
ENDMDL
MODEL 8
REMARK VINA RESULT:      -5.4      6.065      7.065
REMARK  6 active torsions:
REMARK  status: ('A' for Active; 'I' for Inactive)
REMARK    1  A    between atoms: C_5  and  C_6 
REMARK    2  A    between atoms: C_6  and  C_7 
REMARK    3  A    between atoms: C_7  and  N_8 
REMARK       I    between atoms: N_8  and  C_9 
REMARK    4  A    between atoms: C_9  and  C_11 
REMARK    5  A    between atoms: C_11  and  C_14 
REMARK    6  A    between atoms: C_14  and  O_15 
ROOT
HETATM    1  N   UNL     1     -40.616 -51.206  13.416  1.00  0.00    -0.355 N 
HETATM    2  C   UNL     1     -40.613 -52.589  13.417  1.00  0.00     0.293 C 
HETATM    3  O   UNL     1     -39.607 -53.248  13.149  1.00  0.00    -0.267 OA
HETATM    4  H   UNL     1     -41.505 -50.723  13.520  1.00  0.00     0.162 HD
ENDROOT
BRANCH   1   5
HETATM    5  C   UNL     1     -39.435 -50.417  13.114  1.00  0.00     0.129 C 
BRANCH   5   6
HETATM    6  C   UNL     1     -39.402 -49.890  11.678  1.00  0.00     0.077 C 
BRANCH   6   7
HETATM    7  C   UNL     1     -40.404 -48.808  11.432  1.00  0.00     0.018 A 
HETATM    8  N   UNL     1     -41.232 -48.903  10.324  1.00  0.00    -0.357 N 
HETATM    9  C   UNL     1     -42.050 -47.874  10.277  1.00  0.00     0.046 A 
ATOM     10  HN  UNL     1     -41.211 -49.662   9.642  1.00  0.00     0.166 HD
HETATM   11  C   UNL     1     -43.073 -47.657   9.218  1.00  0.00     0.076 C 
HETATM   12  S   UNL     1     -41.872 -46.733  11.548  1.00  0.00    -0.087 SA
HETATM   13  C   UNL     1     -40.618 -47.689  12.215  1.00  0.00     0.076 A 
ENDBRANCH   6   7
ENDBRANCH   5   6
ENDBRANCH   1   5
BRANCH   2  14
HETATM   14  C   UNL     1     -41.951 -53.234  13.820  1.00  0.00     0.352 C 
HETATM   15  F   UNL     1     -41.819 -54.590  13.941  1.00  0.00    -0.192 F 
HETATM   16  F   UNL     1     -42.332 -52.804  15.066  1.00  0.00    -0.192 F 
BRANCH  14  17
HETATM   17  C   UNL     1     -43.079 -52.940  12.815  1.00  0.00     0.133 C 
HETATM   18  C   UNL     1     -44.197 -51.990  13.348  1.00  0.00     0.045 C 
HETATM   19  C   UNL     1     -45.221 -52.910  12.655  1.00  0.00     0.006 C 
HETATM   20  C   UNL     1     -44.182 -54.043  12.757  1.00  0.00     0.045 C 
BRANCH  17  21
HETATM   21  O   UNL     1     -42.564 -52.575  11.497  1.00  0.00    -0.383 OA
HETATM   22  H   UNL     1     -43.112 -51.818  11.201  1.00  0.00     0.210 HD
ENDBRANCH  17  21
ENDBRANCH  14  17
ENDBRANCH   2  14
TORSDOF 6
ENDMDL
MODEL 9
REMARK VINA RESULT:      -5.3      7.835      8.942
REMARK  6 active torsions:
REMARK  status: ('A' for Active; 'I' for Inactive)
REMARK    1  A    between atoms: C_5  and  C_6 
REMARK    2  A    between atoms: C_6  and  C_7 
REMARK    3  A    between atoms: C_7  and  N_8 
REMARK       I    between atoms: N_8  and  C_9 
REMARK    4  A    between atoms: C_9  and  C_11 
REMARK    5  A    between atoms: C_11  and  C_14 
REMARK    6  A    between atoms: C_14  and  O_15 
ROOT
HETATM    1  N   UNL     1     -42.921 -54.045  13.550  1.00  0.00    -0.355 N 
HETATM    2  C   UNL     1     -43.801 -54.789  14.315  1.00  0.00     0.293 C 
HETATM    3  O   UNL     1     -43.421 -55.590  15.171  1.00  0.00    -0.267 OA
HETATM    4  H   UNL     1     -43.292 -53.499  12.777  1.00  0.00     0.162 HD
ENDROOT
BRANCH   1   5
HETATM    5  C   UNL     1     -41.479 -54.135  13.701  1.00  0.00     0.129 C 
BRANCH   5   6
HETATM    6  C   UNL     1     -40.704 -53.586  12.502  1.00  0.00     0.077 C 
BRANCH   6   7
HETATM    7  C   UNL     1     -40.515 -52.104  12.562  1.00  0.00     0.018 A 
HETATM    8  N   UNL     1     -41.018 -51.324  11.531  1.00  0.00    -0.357 N 
HETATM    9  C   UNL     1     -40.768 -50.052  11.758  1.00  0.00     0.046 A 
ATOM     10  HN  UNL     1     -41.510 -51.684  10.713  1.00  0.00     0.166 HD
HETATM   11  C   UNL     1     -41.167 -48.939  10.854  1.00  0.00     0.076 C 
HETATM   12  S   UNL     1     -39.915 -49.717  13.210  1.00  0.00    -0.087 SA
HETATM   13  C   UNL     1     -39.886 -51.392  13.566  1.00  0.00     0.076 A 
ENDBRANCH   6   7
ENDBRANCH   5   6
ENDBRANCH   1   5
BRANCH   2  14
HETATM   14  C   UNL     1     -45.289 -54.504  14.041  1.00  0.00     0.352 C 
HETATM   15  F   UNL     1     -45.443 -53.813  12.871  1.00  0.00    -0.192 F 
HETATM   16  F   UNL     1     -45.972 -55.679  13.850  1.00  0.00    -0.192 F 
BRANCH  14  17
HETATM   17  C   UNL     1     -45.961 -53.706  15.172  1.00  0.00     0.133 C 
HETATM   18  C   UNL     1     -47.299 -53.008  14.775  1.00  0.00     0.045 C 
HETATM   19  C   UNL     1     -46.830 -51.785  15.587  1.00  0.00     0.006 C 
HETATM   20  C   UNL     1     -45.384 -52.268  15.364  1.00  0.00     0.045 C 
BRANCH  17  21
HETATM   21  O   UNL     1     -46.030 -54.465  16.419  1.00  0.00    -0.383 OA
HETATM   22  H   UNL     1     -45.777 -55.382  16.182  1.00  0.00     0.210 HD
ENDBRANCH  17  21
ENDBRANCH  14  17
ENDBRANCH   2  14
TORSDOF 6
ENDMDL
