MODEL 1
REMARK VINA RESULT:      -6.8      0.000      0.000
REMARK  6 active torsions:
REMARK  status: ('A' for Active; 'I' for Inactive)
REMARK    1  A    between atoms: C_2  and  C_5 
REMARK    2  A    between atoms: C_5  and  C_6 
REMARK       I    between atoms: C_6  and  N_8 
REMARK    3  A    between atoms: C_12  and  C_13 
REMARK       I    between atoms: C_13  and  N_15 
REMARK    4  A    between atoms: N_15  and  C_16 
REMARK    5  A    between atoms: C_16  and  C_17 
REMARK    6  A    between atoms: C_17  and  C_18 
ROOT
HETATM    1  C   UNL     1     -41.397 -50.091  11.696  1.00  0.00     0.241 C 
HETATM    2  O   UNL     1     -40.195 -49.916  11.504  1.00  0.00    -0.271 OA
HETATM    3  N   UNL     1     -42.348 -49.161  11.333  1.00  0.00    -0.359 N 
HETATM    4  H   UNL     1     -43.326 -49.387  11.473  1.00  0.00     0.162 HD
ENDROOT
BRANCH   1   5
HETATM    5  C   UNL     1     -41.935 -51.397  12.326  1.00  0.00     0.189 C 
HETATM    6  N   UNL     1     -42.274 -51.306  13.755  1.00  0.00    -0.329 N 
HETATM    7  C   UNL     1     -43.523 -51.104  14.304  1.00  0.00     0.222 C 
HETATM    8  C   UNL     1     -41.155 -51.565  14.643  1.00  0.00     0.200 C 
HETATM    9  O   UNL     1     -43.687 -51.215  15.518  1.00  0.00    -0.273 OA
HETATM   10  S   UNL     1     -39.857 -52.349  13.665  1.00  0.00    -0.147 SA
HETATM   11  C   UNL     1     -40.895 -52.504  12.185  1.00  0.00     0.110 C 
BRANCH   7  12
HETATM   12  C   UNL     1     -44.667 -50.749  13.356  1.00  0.00     0.111 C 
BRANCH  12  13
HETATM   13  C   UNL     1     -45.846 -51.759  13.329  1.00  0.00    -0.043 C 
HETATM   14  C   UNL     1     -45.326 -53.201  13.421  1.00  0.00     0.015 C 
HETATM   15  C   UNL     1     -46.730 -51.591  12.078  1.00  0.00     0.015 C 
HETATM   16  C   UNL     1     -46.739 -51.491  14.562  1.00  0.00     0.015 C 
ENDBRANCH  12  13
ENDBRANCH   7  12
ENDBRANCH   1   5
BRANCH   3  17
HETATM   17  C   UNL     1     -41.967 -47.878  10.766  1.00  0.00     0.127 C 
BRANCH  17  18
HETATM   18  C   UNL     1     -43.173 -46.970  10.537  1.00  0.00     0.059 C 
BRANCH  18  19
HETATM   19  C   UNL     1     -44.111 -47.517   9.496  1.00  0.00    -0.041 A 
HETATM   20  C   UNL     1     -45.466 -47.721   9.765  1.00  0.00     0.010 A 
HETATM   21  C   UNL     1     -46.299 -48.221   8.770  1.00  0.00     0.018 A 
HETATM   22  C   UNL     1     -45.750 -48.492   7.528  1.00  0.00     0.087 A 
HETATM   23  N   UNL     1     -44.449 -48.300   7.225  1.00  0.00    -0.375 N 
HETATM   24  C   UNL     1     -43.660 -47.818   8.213  1.00  0.00     0.094 A 
ATOM     25  HN  UNL     1     -44.079 -48.508   6.298  1.00  0.00     0.164 HD
ENDBRANCH  18  19
ENDBRANCH  17  18
ENDBRANCH   3  17
TORSDOF 6
ENDMDL
MODEL 2
REMARK VINA RESULT:      -6.5      1.820      2.439
REMARK  6 active torsions:
REMARK  status: ('A' for Active; 'I' for Inactive)
REMARK    1  A    between atoms: C_2  and  C_5 
REMARK    2  A    between atoms: C_5  and  C_6 
REMARK       I    between atoms: C_6  and  N_8 
REMARK    3  A    between atoms: C_12  and  C_13 
REMARK       I    between atoms: C_13  and  N_15 
REMARK    4  A    between atoms: N_15  and  C_16 
REMARK    5  A    between atoms: C_16  and  C_17 
REMARK    6  A    between atoms: C_17  and  C_18 
ROOT
HETATM    1  C   UNL     1     -41.898 -51.602  13.096  1.00  0.00     0.241 C 
HETATM    2  O   UNL     1     -41.618 -51.079  14.173  1.00  0.00    -0.271 OA
HETATM    3  N   UNL     1     -41.954 -50.887  11.918  1.00  0.00    -0.359 N 
HETATM    4  H   UNL     1     -42.143 -51.386  11.056  1.00  0.00     0.162 HD
ENDROOT
BRANCH   1   5
HETATM    5  C   UNL     1     -42.169 -53.120  12.979  1.00  0.00     0.189 C 
HETATM    6  N   UNL     1     -42.776 -53.738  14.168  1.00  0.00    -0.329 N 
HETATM    7  C   UNL     1     -44.112 -54.012  14.375  1.00  0.00     0.222 C 
HETATM    8  C   UNL     1     -41.812 -54.181  15.159  1.00  0.00     0.200 C 
HETATM    9  O   UNL     1     -44.460 -54.683  15.345  1.00  0.00    -0.273 OA
HETATM   10  S   UNL     1     -40.194 -54.217  14.362  1.00  0.00    -0.147 SA
HETATM   11  C   UNL     1     -40.860 -53.857  12.713  1.00  0.00     0.110 C 
BRANCH   7  12
HETATM   12  C   UNL     1     -45.115 -53.463  13.362  1.00  0.00     0.111 C 
BRANCH  12  13
HETATM   13  C   UNL     1     -45.988 -52.281  13.863  1.00  0.00    -0.043 C 
HETATM   14  C   UNL     1     -45.126 -51.248  14.604  1.00  0.00     0.015 C 
HETATM   15  C   UNL     1     -47.146 -52.751  14.765  1.00  0.00     0.015 C 
HETATM   16  C   UNL     1     -46.616 -51.589  12.632  1.00  0.00     0.015 C 
ENDBRANCH  12  13
ENDBRANCH   7  12
ENDBRANCH   1   5
BRANCH   3  17
HETATM   17  C   UNL     1     -41.756 -49.448  11.902  1.00  0.00     0.127 C 
BRANCH  17  18
HETATM   18  C   UNL     1     -43.077 -48.684  11.971  1.00  0.00     0.059 C 
BRANCH  18  19
HETATM   19  C   UNL     1     -43.287 -47.796  10.776  1.00  0.00    -0.041 A 
HETATM   20  C   UNL     1     -44.544 -47.650  10.183  1.00  0.00     0.010 A 
HETATM   21  C   UNL     1     -44.694 -46.812   9.084  1.00  0.00     0.018 A 
HETATM   22  C   UNL     1     -43.580 -46.135   8.616  1.00  0.00     0.087 A 
HETATM   23  N   UNL     1     -42.353 -46.241   9.166  1.00  0.00    -0.375 N 
HETATM   24  C   UNL     1     -42.234 -47.067  10.231  1.00  0.00     0.094 A 
ATOM     25  HN  UNL     1     -41.554 -45.725   8.797  1.00  0.00     0.164 HD
ENDBRANCH  18  19
ENDBRANCH  17  18
ENDBRANCH   3  17
TORSDOF 6
ENDMDL
MODEL 3
REMARK VINA RESULT:      -5.9      2.513      3.558
REMARK  6 active torsions:
REMARK  status: ('A' for Active; 'I' for Inactive)
REMARK    1  A    between atoms: C_2  and  C_5 
REMARK    2  A    between atoms: C_5  and  C_6 
REMARK       I    between atoms: C_6  and  N_8 
REMARK    3  A    between atoms: C_12  and  C_13 
REMARK       I    between atoms: C_13  and  N_15 
REMARK    4  A    between atoms: N_15  and  C_16 
REMARK    5  A    between atoms: C_16  and  C_17 
REMARK    6  A    between atoms: C_17  and  C_18 
ROOT
HETATM    1  C   UNL     1     -41.069 -51.792  12.335  1.00  0.00     0.241 C 
HETATM    2  O   UNL     1     -39.859 -51.998  12.290  1.00  0.00    -0.271 OA
HETATM    3  N   UNL     1     -41.653 -50.680  11.763  1.00  0.00    -0.359 N 
HETATM    4  H   UNL     1     -42.662 -50.593  11.793  1.00  0.00     0.162 HD
ENDROOT
BRANCH   1   5
HETATM    5  C   UNL     1     -42.038 -52.794  13.006  1.00  0.00     0.189 C 
HETATM    6  N   UNL     1     -42.447 -52.443  14.375  1.00  0.00    -0.329 N 
HETATM    7  C   UNL     1     -43.610 -51.812  14.762  1.00  0.00     0.222 C 
HETATM    8  C   UNL     1     -41.541 -52.926  15.402  1.00  0.00     0.200 C 
HETATM    9  O   UNL     1     -43.899 -51.731  15.955  1.00  0.00    -0.273 OA
HETATM   10  S   UNL     1     -40.478 -54.172  14.644  1.00  0.00    -0.147 SA
HETATM   11  C   UNL     1     -41.388 -54.171  13.074  1.00  0.00     0.110 C 
BRANCH   7  12
HETATM   12  C   UNL     1     -44.506 -51.238  13.666  1.00  0.00     0.111 C 
BRANCH  12  13
HETATM   13  C   UNL     1     -45.923 -51.864  13.567  1.00  0.00    -0.043 C 
HETATM   14  C   UNL     1     -46.572 -51.521  12.217  1.00  0.00     0.015 C 
HETATM   15  C   UNL     1     -46.839 -51.423  14.724  1.00  0.00     0.015 C 
HETATM   16  C   UNL     1     -45.777 -53.400  13.653  1.00  0.00     0.015 C 
ENDBRANCH  12  13
ENDBRANCH   7  12
ENDBRANCH   1   5
BRANCH   3  17
HETATM   17  C   UNL     1     -40.847 -49.647  11.136  1.00  0.00     0.127 C 
BRANCH  17  18
HETATM   18  C   UNL     1     -41.674 -48.417  10.767  1.00  0.00     0.059 C 
BRANCH  18  19
HETATM   19  C   UNL     1     -41.022 -47.136  11.209  1.00  0.00    -0.041 A 
HETATM   20  C   UNL     1     -40.213 -47.080  12.347  1.00  0.00     0.010 A 
HETATM   21  C   UNL     1     -39.623 -45.876  12.714  1.00  0.00     0.018 A 
HETATM   22  C   UNL     1     -39.852 -44.763  11.923  1.00  0.00     0.087 A 
HETATM   23  N   UNL     1     -40.618 -44.778  10.812  1.00  0.00    -0.375 N 
HETATM   24  C   UNL     1     -41.184 -45.961  10.481  1.00  0.00     0.094 A 
ATOM     25  HN  UNL     1     -40.763 -43.939  10.250  1.00  0.00     0.164 HD
ENDBRANCH  18  19
ENDBRANCH  17  18
ENDBRANCH   3  17
TORSDOF 6
ENDMDL
MODEL 4
REMARK VINA RESULT:      -5.8      3.266      4.883
REMARK  6 active torsions:
REMARK  status: ('A' for Active; 'I' for Inactive)
REMARK    1  A    between atoms: C_2  and  C_5 
REMARK    2  A    between atoms: C_5  and  C_6 
REMARK       I    between atoms: C_6  and  N_8 
REMARK    3  A    between atoms: C_12  and  C_13 
REMARK       I    between atoms: C_13  and  N_15 
REMARK    4  A    between atoms: N_15  and  C_16 
REMARK    5  A    between atoms: C_16  and  C_17 
REMARK    6  A    between atoms: C_17  and  C_18 
ROOT
HETATM    1  C   UNL     1     -41.697 -51.849  12.831  1.00  0.00     0.241 C 
HETATM    2  O   UNL     1     -41.967 -51.049  13.724  1.00  0.00    -0.271 OA
HETATM    3  N   UNL     1     -41.037 -51.477  11.678  1.00  0.00    -0.359 N 
HETATM    4  H   UNL     1     -40.801 -52.194  11.002  1.00  0.00     0.162 HD
ENDROOT
BRANCH   1   5
HETATM    5  C   UNL     1     -42.044 -53.351  12.956  1.00  0.00     0.189 C 
HETATM    6  N   UNL     1     -42.660 -53.743  14.234  1.00  0.00    -0.329 N 
HETATM    7  C   UNL     1     -44.004 -53.913  14.494  1.00  0.00     0.222 C 
HETATM    8  C   UNL     1     -41.702 -54.076  15.272  1.00  0.00     0.200 C 
HETATM    9  O   UNL     1     -44.367 -54.405  15.561  1.00  0.00    -0.273 OA
HETATM   10  S   UNL     1     -40.101 -54.319  14.474  1.00  0.00    -0.147 SA
HETATM   11  C   UNL     1     -40.779 -54.188  12.796  1.00  0.00     0.110 C 
BRANCH   7  12
HETATM   12  C   UNL     1     -44.997 -53.477  13.418  1.00  0.00     0.111 C 
BRANCH  12  13
HETATM   13  C   UNL     1     -45.922 -52.292  13.805  1.00  0.00    -0.043 C 
HETATM   14  C   UNL     1     -46.544 -51.660  12.551  1.00  0.00     0.015 C 
HETATM   15  C   UNL     1     -45.184 -51.221  14.630  1.00  0.00     0.015 C 
HETATM   16  C   UNL     1     -47.068 -52.843  14.685  1.00  0.00     0.015 C 
ENDBRANCH  12  13
ENDBRANCH   7  12
ENDBRANCH   1   5
BRANCH   3  17
HETATM   17  C   UNL     1     -40.690 -50.089  11.425  1.00  0.00     0.127 C 
BRANCH  17  18
HETATM   18  C   UNL     1     -39.188 -49.841  11.546  1.00  0.00     0.059 C 
BRANCH  18  19
HETATM   19  C   UNL     1     -38.865 -48.765  12.546  1.00  0.00    -0.041 A 
HETATM   20  C   UNL     1     -37.808 -48.897  13.450  1.00  0.00     0.010 A 
HETATM   21  C   UNL     1     -37.540 -47.874  14.351  1.00  0.00     0.018 A 
HETATM   22  C   UNL     1     -38.335 -46.740  14.315  1.00  0.00     0.087 A 
HETATM   23  N   UNL     1     -39.359 -46.570  13.453  1.00  0.00    -0.375 N 
HETATM   24  C   UNL     1     -39.600 -47.583  12.590  1.00  0.00     0.094 A 
ATOM     25  HN  UNL     1     -39.922 -45.720  13.452  1.00  0.00     0.164 HD
ENDBRANCH  18  19
ENDBRANCH  17  18
ENDBRANCH   3  17
TORSDOF 6
ENDMDL
MODEL 5
REMARK VINA RESULT:      -5.8      3.304      5.448
REMARK  6 active torsions:
REMARK  status: ('A' for Active; 'I' for Inactive)
REMARK    1  A    between atoms: C_2  and  C_5 
REMARK    2  A    between atoms: C_5  and  C_6 
REMARK       I    between atoms: C_6  and  N_8 
REMARK    3  A    between atoms: C_12  and  C_13 
REMARK       I    between atoms: C_13  and  N_15 
REMARK    4  A    between atoms: N_15  and  C_16 
REMARK    5  A    between atoms: C_16  and  C_17 
REMARK    6  A    between atoms: C_17  and  C_18 
ROOT
HETATM    1  C   UNL     1     -41.183 -50.935  12.809  1.00  0.00     0.241 C 
HETATM    2  O   UNL     1     -41.261 -49.952  13.542  1.00  0.00    -0.271 OA
HETATM    3  N   UNL     1     -40.342 -50.980  11.717  1.00  0.00    -0.359 N 
HETATM    4  H   UNL     1     -40.289 -51.838  11.180  1.00  0.00     0.162 HD
ENDROOT
BRANCH   1   5
HETATM    5  C   UNL     1     -42.001 -52.219  13.085  1.00  0.00     0.189 C 
HETATM    6  N   UNL     1     -42.393 -52.417  14.489  1.00  0.00    -0.329 N 
HETATM    7  C   UNL     1     -43.607 -52.108  15.067  1.00  0.00     0.222 C 
HETATM    8  C   UNL     1     -41.398 -53.111  15.286  1.00  0.00     0.200 C 
HETATM    9  O   UNL     1     -43.856 -52.481  16.213  1.00  0.00    -0.273 OA
HETATM   10  S   UNL     1     -40.227 -53.876  14.145  1.00  0.00    -0.147 SA
HETATM   11  C   UNL     1     -41.192 -53.444  12.671  1.00  0.00     0.110 C 
BRANCH   7  12
HETATM   12  C   UNL     1     -44.605 -51.304  14.237  1.00  0.00     0.111 C 
BRANCH  12  13
HETATM   13  C   UNL     1     -45.962 -52.007  13.963  1.00  0.00    -0.043 C 
HETATM   14  C   UNL     1     -46.993 -51.631  15.038  1.00  0.00     0.015 C 
HETATM   15  C   UNL     1     -45.819 -53.539  13.876  1.00  0.00     0.015 C 
HETATM   16  C   UNL     1     -46.492 -51.516  12.597  1.00  0.00     0.015 C 
ENDBRANCH  12  13
ENDBRANCH   7  12
ENDBRANCH   1   5
BRANCH   3  17
HETATM   17  C   UNL     1     -39.550 -49.825  11.331  1.00  0.00     0.127 C 
BRANCH  17  18
HETATM   18  C   UNL     1     -38.074 -49.997  11.681  1.00  0.00     0.059 C 
BRANCH  18  19
HETATM   19  C   UNL     1     -37.776 -49.612  13.104  1.00  0.00    -0.041 A 
HETATM   20  C   UNL     1     -37.827 -48.283  13.531  1.00  0.00     0.010 A 
HETATM   21  C   UNL     1     -37.553 -47.974  14.858  1.00  0.00     0.018 A 
HETATM   22  C   UNL     1     -37.243 -49.009  15.724  1.00  0.00     0.087 A 
HETATM   23  N   UNL     1     -37.192 -50.306  15.354  1.00  0.00    -0.375 N 
HETATM   24  C   UNL     1     -37.459 -50.578  14.056  1.00  0.00     0.094 A 
ATOM     25  HN  UNL     1     -36.964 -51.044  16.020  1.00  0.00     0.164 HD
ENDBRANCH  18  19
ENDBRANCH  17  18
ENDBRANCH   3  17
TORSDOF 6
ENDMDL
MODEL 6
REMARK VINA RESULT:      -5.7      2.404      3.349
REMARK  6 active torsions:
REMARK  status: ('A' for Active; 'I' for Inactive)
REMARK    1  A    between atoms: C_2  and  C_5 
REMARK    2  A    between atoms: C_5  and  C_6 
REMARK       I    between atoms: C_6  and  N_8 
REMARK    3  A    between atoms: C_12  and  C_13 
REMARK       I    between atoms: C_13  and  N_15 
REMARK    4  A    between atoms: N_15  and  C_16 
REMARK    5  A    between atoms: C_16  and  C_17 
REMARK    6  A    between atoms: C_17  and  C_18 
ROOT
HETATM    1  C   UNL     1     -41.703 -51.867  13.079  1.00  0.00     0.241 C 
HETATM    2  O   UNL     1     -41.590 -51.214  14.115  1.00  0.00    -0.271 OA
HETATM    3  N   UNL     1     -41.453 -51.329  11.834  1.00  0.00    -0.359 N 
HETATM    4  H   UNL     1     -41.516 -51.934  11.023  1.00  0.00     0.162 HD
ENDROOT
BRANCH   1   5
HETATM    5  C   UNL     1     -42.096 -53.363  13.103  1.00  0.00     0.189 C 
HETATM    6  N   UNL     1     -42.735 -53.819  14.348  1.00  0.00    -0.329 N 
HETATM    7  C   UNL     1     -44.085 -53.964  14.587  1.00  0.00     0.222 C 
HETATM    8  C   UNL     1     -41.796 -54.247  15.369  1.00  0.00     0.200 C 
HETATM    9  O   UNL     1     -44.472 -54.514  15.617  1.00  0.00    -0.273 OA
HETATM   10  S   UNL     1     -40.196 -54.486  14.568  1.00  0.00    -0.147 SA
HETATM   11  C   UNL     1     -40.854 -54.224  12.898  1.00  0.00     0.110 C 
BRANCH   7  12
HETATM   12  C   UNL     1     -45.055 -53.430  13.535  1.00  0.00     0.111 C 
BRANCH  12  13
HETATM   13  C   UNL     1     -45.899 -52.202  13.970  1.00  0.00    -0.043 C 
HETATM   14  C   UNL     1     -45.013 -51.152  14.659  1.00  0.00     0.015 C 
HETATM   15  C   UNL     1     -47.070 -52.595  14.891  1.00  0.00     0.015 C 
HETATM   16  C   UNL     1     -46.506 -51.560  12.701  1.00  0.00     0.015 C 
ENDBRANCH  12  13
ENDBRANCH   7  12
ENDBRANCH   1   5
BRANCH   3  17
HETATM   17  C   UNL     1     -41.113 -49.926  11.676  1.00  0.00     0.127 C 
BRANCH  17  18
HETATM   18  C   UNL     1     -42.339 -49.021  11.775  1.00  0.00     0.059 C 
BRANCH  18  19
HETATM   19  C   UNL     1     -42.035 -47.601  11.386  1.00  0.00    -0.041 A 
HETATM   20  C   UNL     1     -40.723 -47.133  11.289  1.00  0.00     0.010 A 
HETATM   21  C   UNL     1     -40.488 -45.814  10.917  1.00  0.00     0.018 A 
HETATM   22  C   UNL     1     -41.576 -45.003  10.644  1.00  0.00     0.087 A 
HETATM   23  N   UNL     1     -42.858 -45.419  10.718  1.00  0.00    -0.375 N 
HETATM   24  C   UNL     1     -43.059 -46.705  11.086  1.00  0.00     0.094 A 
ATOM     25  HN  UNL     1     -43.637 -44.795  10.506  1.00  0.00     0.164 HD
ENDBRANCH  18  19
ENDBRANCH  17  18
ENDBRANCH   3  17
TORSDOF 6
ENDMDL
MODEL 7
REMARK VINA RESULT:      -5.6      3.602      7.205
REMARK  6 active torsions:
REMARK  status: ('A' for Active; 'I' for Inactive)
REMARK    1  A    between atoms: C_2  and  C_5 
REMARK    2  A    between atoms: C_5  and  C_6 
REMARK       I    between atoms: C_6  and  N_8 
REMARK    3  A    between atoms: C_12  and  C_13 
REMARK       I    between atoms: C_13  and  N_15 
REMARK    4  A    between atoms: N_15  and  C_16 
REMARK    5  A    between atoms: C_16  and  C_17 
REMARK    6  A    between atoms: C_17  and  C_18 
ROOT
HETATM    1  C   UNL     1     -41.570 -50.052  11.867  1.00  0.00     0.241 C 
HETATM    2  O   UNL     1     -42.635 -50.041  12.480  1.00  0.00    -0.271 OA
HETATM    3  N   UNL     1     -40.956 -51.222  11.471  1.00  0.00    -0.359 N 
HETATM    4  H   UNL     1     -40.104 -51.161  10.925  1.00  0.00     0.162 HD
ENDROOT
BRANCH   1   5
HETATM    5  C   UNL     1     -40.858 -48.742  11.456  1.00  0.00     0.189 C 
HETATM    6  N   UNL     1     -40.531 -47.836  12.568  1.00  0.00    -0.329 N 
HETATM    7  C   UNL     1     -39.319 -47.716  13.217  1.00  0.00     0.222 C 
HETATM    8  C   UNL     1     -41.601 -46.920  12.916  1.00  0.00     0.200 C 
HETATM    9  O   UNL     1     -39.138 -46.800  14.018  1.00  0.00    -0.273 OA
HETATM   10  S   UNL     1     -42.784 -46.926  11.553  1.00  0.00    -0.147 SA
HETATM   11  C   UNL     1     -41.739 -47.959  10.488  1.00  0.00     0.110 C 
BRANCH   7  12
HETATM   12  C   UNL     1     -38.236 -48.744  12.895  1.00  0.00     0.111 C 
BRANCH  12  13
HETATM   13  C   UNL     1     -38.087 -49.898  13.923  1.00  0.00    -0.043 C 
HETATM   14  C   UNL     1     -37.558 -51.167  13.238  1.00  0.00     0.015 C 
HETATM   15  C   UNL     1     -39.407 -50.201  14.657  1.00  0.00     0.015 C 
HETATM   16  C   UNL     1     -37.057 -49.463  14.990  1.00  0.00     0.015 C 
ENDBRANCH  12  13
ENDBRANCH   7  12
ENDBRANCH   1   5
BRANCH   3  17
HETATM   17  C   UNL     1     -41.506 -52.518  11.828  1.00  0.00     0.127 C 
BRANCH  17  18
HETATM   18  C   UNL     1     -40.588 -53.292  12.772  1.00  0.00     0.059 C 
BRANCH  18  19
HETATM   19  C   UNL     1     -41.349 -53.996  13.861  1.00  0.00    -0.041 A 
HETATM   20  C   UNL     1     -42.721 -54.237  13.758  1.00  0.00     0.010 A 
HETATM   21  C   UNL     1     -43.384 -54.899  14.785  1.00  0.00     0.018 A 
HETATM   22  C   UNL     1     -42.649 -55.310  15.885  1.00  0.00     0.087 A 
HETATM   23  N   UNL     1     -41.322 -55.105  16.018  1.00  0.00    -0.375 N 
HETATM   24  C   UNL     1     -40.703 -54.455  15.006  1.00  0.00     0.094 A 
ATOM     25  HN  UNL     1     -40.811 -55.425  16.841  1.00  0.00     0.164 HD
ENDBRANCH  18  19
ENDBRANCH  17  18
ENDBRANCH   3  17
TORSDOF 6
ENDMDL
MODEL 8
REMARK VINA RESULT:      -5.5      2.605      4.268
REMARK  6 active torsions:
REMARK  status: ('A' for Active; 'I' for Inactive)
REMARK    1  A    between atoms: C_2  and  C_5 
REMARK    2  A    between atoms: C_5  and  C_6 
REMARK       I    between atoms: C_6  and  N_8 
REMARK    3  A    between atoms: C_12  and  C_13 
REMARK       I    between atoms: C_13  and  N_15 
REMARK    4  A    between atoms: N_15  and  C_16 
REMARK    5  A    between atoms: C_16  and  C_17 
REMARK    6  A    between atoms: C_17  and  C_18 
ROOT
HETATM    1  C   UNL     1     -42.718 -51.393  12.784  1.00  0.00     0.241 C 
HETATM    2  O   UNL     1     -42.201 -52.166  11.979  1.00  0.00    -0.271 OA
HETATM    3  N   UNL     1     -42.560 -50.026  12.704  1.00  0.00    -0.359 N 
HETATM    4  H   UNL     1     -43.052 -49.441  13.369  1.00  0.00     0.162 HD
ENDROOT
BRANCH   1   5
HETATM    5  C   UNL     1     -43.624 -51.903  13.929  1.00  0.00     0.189 C 
HETATM    6  N   UNL     1     -43.745 -53.367  14.023  1.00  0.00    -0.329 N 
HETATM    7  C   UNL     1     -43.045 -54.209  14.861  1.00  0.00     0.222 C 
HETATM    8  C   UNL     1     -44.801 -53.924  13.197  1.00  0.00     0.200 C 
HETATM    9  O   UNL     1     -43.367 -55.393  14.952  1.00  0.00    -0.273 OA
HETATM   10  S   UNL     1     -45.876 -52.562  12.699  1.00  0.00    -0.147 SA
HETATM   11  C   UNL     1     -45.035 -51.350  13.754  1.00  0.00     0.110 C 
BRANCH   7  12
HETATM   12  C   UNL     1     -41.884 -53.616  15.656  1.00  0.00     0.111 C 
BRANCH  12  13
HETATM   13  C   UNL     1     -40.469 -54.073  15.211  1.00  0.00    -0.043 C 
HETATM   14  C   UNL     1     -39.419 -53.013  15.575  1.00  0.00     0.015 C 
HETATM   15  C   UNL     1     -40.405 -54.390  13.704  1.00  0.00     0.015 C 
HETATM   16  C   UNL     1     -40.121 -55.374  15.970  1.00  0.00     0.015 C 
ENDBRANCH  12  13
ENDBRANCH   7  12
ENDBRANCH   1   5
BRANCH   3  17
HETATM   17  C   UNL     1     -41.702 -49.426  11.696  1.00  0.00     0.127 C 
BRANCH  17  18
HETATM   18  C   UNL     1     -41.612 -47.909  11.846  1.00  0.00     0.059 C 
BRANCH  18  19
HETATM   19  C   UNL     1     -42.394 -47.182  10.787  1.00  0.00    -0.041 A 
HETATM   20  C   UNL     1     -42.815 -47.821   9.619  1.00  0.00     0.010 A 
HETATM   21  C   UNL     1     -43.544 -47.113   8.670  1.00  0.00     0.018 A 
HETATM   22  C   UNL     1     -43.839 -45.784   8.925  1.00  0.00     0.087 A 
HETATM   23  N   UNL     1     -43.460 -45.133  10.044  1.00  0.00    -0.375 N 
HETATM   24  C   UNL     1     -42.748 -45.845  10.948  1.00  0.00     0.094 A 
ATOM     25  HN  UNL     1     -43.697 -44.154  10.201  1.00  0.00     0.164 HD
ENDBRANCH  18  19
ENDBRANCH  17  18
ENDBRANCH   3  17
TORSDOF 6
ENDMDL
MODEL 9
REMARK VINA RESULT:      -5.4     14.029     15.130
REMARK  6 active torsions:
REMARK  status: ('A' for Active; 'I' for Inactive)
REMARK    1  A    between atoms: C_2  and  C_5 
REMARK    2  A    between atoms: C_5  and  C_6 
REMARK       I    between atoms: C_6  and  N_8 
REMARK    3  A    between atoms: C_12  and  C_13 
REMARK       I    between atoms: C_13  and  N_15 
REMARK    4  A    between atoms: N_15  and  C_16 
REMARK    5  A    between atoms: C_16  and  C_17 
REMARK    6  A    between atoms: C_17  and  C_18 
ROOT
HETATM    1  C   UNL     1     -47.868 -50.301  -1.724  1.00  0.00     0.241 C 
HETATM    2  O   UNL     1     -47.407 -50.793  -0.697  1.00  0.00    -0.271 OA
HETATM    3  N   UNL     1     -47.542 -49.030  -2.148  1.00  0.00    -0.359 N 
HETATM    4  H   UNL     1     -47.918 -48.701  -3.030  1.00  0.00     0.162 HD
ENDROOT
BRANCH   1   5
HETATM    5  C   UNL     1     -48.823 -51.096  -2.645  1.00  0.00     0.189 C 
HETATM    6  N   UNL     1     -48.706 -52.560  -2.549  1.00  0.00    -0.329 N 
HETATM    7  C   UNL     1     -49.498 -53.413  -1.809  1.00  0.00     0.222 C 
HETATM    8  C   UNL     1     -47.698 -53.128  -3.425  1.00  0.00     0.200 C 
HETATM    9  O   UNL     1     -49.393 -54.630  -1.953  1.00  0.00    -0.273 OA
HETATM   10  S   UNL     1     -47.267 -51.869  -4.644  1.00  0.00    -0.147 SA
HETATM   11  C   UNL     1     -48.564 -50.723  -4.101  1.00  0.00     0.110 C 
BRANCH   7  12
HETATM   12  C   UNL     1     -50.494 -52.790  -0.832  1.00  0.00     0.111 C 
BRANCH  12  13
HETATM   13  C   UNL     1     -51.985 -52.878  -1.254  1.00  0.00    -0.043 C 
HETATM   14  C   UNL     1     -52.660 -54.097  -0.605  1.00  0.00     0.015 C 
HETATM   15  C   UNL     1     -52.158 -52.927  -2.784  1.00  0.00     0.015 C 
HETATM   16  C   UNL     1     -52.704 -51.606  -0.750  1.00  0.00     0.015 C 
ENDBRANCH  12  13
ENDBRANCH   7  12
ENDBRANCH   1   5
BRANCH   3  17
HETATM   17  C   UNL     1     -46.684 -48.169  -1.351  1.00  0.00     0.127 C 
BRANCH  17  18
HETATM   18  C   UNL     1     -46.037 -47.068  -2.189  1.00  0.00     0.059 C 
BRANCH  18  19
HETATM   19  C   UNL     1     -44.537 -47.074  -2.079  1.00  0.00    -0.041 A 
HETATM   20  C   UNL     1     -43.856 -46.140  -1.295  1.00  0.00     0.010 A 
HETATM   21  C   UNL     1     -42.469 -46.188  -1.215  1.00  0.00     0.018 A 
HETATM   22  C   UNL     1     -41.803 -47.178  -1.918  1.00  0.00     0.087 A 
HETATM   23  N   UNL     1     -42.424 -48.103  -2.680  1.00  0.00    -0.375 N 
HETATM   24  C   UNL     1     -43.774 -48.031  -2.743  1.00  0.00     0.094 A 
ATOM     25  HN  UNL     1     -41.902 -48.821  -3.182  1.00  0.00     0.164 HD
ENDBRANCH  18  19
ENDBRANCH  17  18
ENDBRANCH   3  17
TORSDOF 6
ENDMDL
