MODEL 1
REMARK VINA RESULT:      -5.5      0.000      0.000
REMARK  4 active torsions:
REMARK  status: ('A' for Active; 'I' for Inactive)
REMARK    1  A    between atoms: O_2  and  C_3 
REMARK    2  A    between atoms: C_3  and  C_4 
REMARK    3  A    between atoms: C_4  and  N_5 
REMARK       I    between atoms: N_5  and  C_6 
REMARK       I    between atoms: C_6  and  N_8 
REMARK    4  A    between atoms: N_8  and  C_9 
ROOT
HETATM    1  N   UNL     1     -41.562 -50.484  11.409  1.00  0.00    -0.340 N 
HETATM    2  C   UNL     1     -40.517 -49.643  11.189  1.00  0.00     0.334 C 
HETATM    3  O   UNL     1     -39.355 -49.924  11.476  1.00  0.00    -0.247 OA
HETATM    4  N   UNL     1     -40.814 -48.397  10.719  1.00  0.00    -0.140 N 
HETATM    5  H   UNL     1     -42.426 -50.284  10.901  1.00  0.00     0.164 HD
HETATM    6  H   UNL     1     -40.033 -47.761  10.711  1.00  0.00     0.189 HD
ENDROOT
BRANCH   1   7
HETATM    7  C   UNL     1     -41.408 -51.775  12.036  1.00  0.00     0.162 C 
BRANCH   7   8
HETATM    8  C   UNL     1     -42.625 -52.013  12.942  1.00  0.00     0.076 C 
HETATM    9  C   UNL     1     -43.506 -53.211  12.481  1.00  0.00     0.040 C 
HETATM   10  C   UNL     1     -42.776 -54.108  13.495  1.00  0.00     0.006 C 
HETATM   11  C   UNL     1     -42.329 -52.842  14.235  1.00  0.00     0.040 C 
BRANCH   8  12
HETATM   12  O   UNL     1     -43.336 -50.775  13.237  1.00  0.00    -0.383 OA
HETATM   13  C   UNL     1     -44.625 -50.868  13.827  1.00  0.00     0.202 C 
ENDBRANCH   8  12
ENDBRANCH   7   8
ENDBRANCH   1   7
BRANCH   4  14
HETATM   14  C   UNL     1     -42.064 -47.984  10.330  1.00  0.00     0.703 A 
HETATM   15  N   UNL     1     -42.606 -48.100   9.137  1.00  0.00    -0.185 N 
HETATM   16  C   UNL     1     -43.825 -47.510   9.275  1.00  0.00     0.215 A 
ATOM     17  HN  UNL     1     -42.206 -48.532   8.304  1.00  0.00     0.185 HD
HETATM   18  N   UNL     1     -44.097 -47.052  10.499  1.00  0.00    -0.280 N 
HETATM   19  N   UNL     1     -42.977 -47.387  11.165  1.00  0.00    -0.127 N 
ATOM     20  HN  UNL     1     -44.932 -46.574  10.839  1.00  0.00     0.188 HD
HETATM   21  C   UNL     1     -42.923 -47.233  12.596  1.00  0.00     0.197 C 
ENDBRANCH   4  14
TORSDOF 4
ENDMDL
MODEL 2
REMARK VINA RESULT:      -5.4      3.290      5.106
REMARK  4 active torsions:
REMARK  status: ('A' for Active; 'I' for Inactive)
REMARK    1  A    between atoms: O_2  and  C_3 
REMARK    2  A    between atoms: C_3  and  C_4 
REMARK    3  A    between atoms: C_4  and  N_5 
REMARK       I    between atoms: N_5  and  C_6 
REMARK       I    between atoms: C_6  and  N_8 
REMARK    4  A    between atoms: N_8  and  C_9 
ROOT
HETATM    1  N   UNL     1     -43.846 -52.624  13.957  1.00  0.00    -0.340 N 
HETATM    2  C   UNL     1     -44.026 -53.190  12.734  1.00  0.00     0.334 C 
HETATM    3  O   UNL     1     -44.998 -53.888  12.451  1.00  0.00    -0.247 OA
HETATM    4  N   UNL     1     -43.014 -53.044  11.830  1.00  0.00    -0.140 N 
HETATM    5  H   UNL     1     -43.171 -51.859  14.012  1.00  0.00     0.164 HD
HETATM    6  H   UNL     1     -43.121 -53.600  10.997  1.00  0.00     0.189 HD
ENDROOT
BRANCH   1   7
HETATM    7  C   UNL     1     -44.767 -52.819  15.051  1.00  0.00     0.162 C 
BRANCH   7   8
HETATM    8  C   UNL     1     -45.429 -51.469  15.362  1.00  0.00     0.076 C 
HETATM    9  C   UNL     1     -46.835 -51.312  14.711  1.00  0.00     0.040 C 
HETATM   10  C   UNL     1     -47.473 -51.751  16.040  1.00  0.00     0.006 C 
HETATM   11  C   UNL     1     -46.158 -51.398  16.745  1.00  0.00     0.040 C 
BRANCH   8  12
HETATM   12  O   UNL     1     -44.510 -50.354  15.172  1.00  0.00    -0.383 OA
HETATM   13  C   UNL     1     -43.985 -49.715  16.326  1.00  0.00     0.202 C 
ENDBRANCH   8  12
ENDBRANCH   7   8
ENDBRANCH   1   7
BRANCH   4  14
HETATM   14  C   UNL     1     -41.902 -52.262  12.019  1.00  0.00     0.703 A 
HETATM   15  N   UNL     1     -41.765 -50.988  11.721  1.00  0.00    -0.185 N 
HETATM   16  C   UNL     1     -40.479 -50.709  12.073  1.00  0.00     0.215 A 
ATOM     17  HN  UNL     1     -42.459 -50.357  11.321  1.00  0.00     0.185 HD
HETATM   18  N   UNL     1     -39.803 -51.729  12.605  1.00  0.00    -0.280 N 
HETATM   19  N   UNL     1     -40.733 -52.702  12.589  1.00  0.00    -0.127 N 
ATOM     20  HN  UNL     1     -38.838 -51.763  12.935  1.00  0.00     0.188 HD
HETATM   21  C   UNL     1     -40.470 -53.952  13.255  1.00  0.00     0.197 C 
ENDBRANCH   4  14
TORSDOF 4
ENDMDL
MODEL 3
REMARK VINA RESULT:      -5.3      1.954      2.942
REMARK  4 active torsions:
REMARK  status: ('A' for Active; 'I' for Inactive)
REMARK    1  A    between atoms: O_2  and  C_3 
REMARK    2  A    between atoms: C_3  and  C_4 
REMARK    3  A    between atoms: C_4  and  N_5 
REMARK       I    between atoms: N_5  and  C_6 
REMARK       I    between atoms: C_6  and  N_8 
REMARK    4  A    between atoms: N_8  and  C_9 
ROOT
HETATM    1  N   UNL     1     -42.504 -51.999  11.983  1.00  0.00    -0.340 N 
HETATM    2  C   UNL     1     -41.163 -52.214  11.948  1.00  0.00     0.334 C 
HETATM    3  O   UNL     1     -40.651 -53.314  12.145  1.00  0.00    -0.247 OA
HETATM    4  N   UNL     1     -40.365 -51.118  11.785  1.00  0.00    -0.140 N 
HETATM    5  H   UNL     1     -42.842 -51.139  11.548  1.00  0.00     0.164 HD
HETATM    6  H   UNL     1     -39.382 -51.300  11.913  1.00  0.00     0.189 HD
ENDROOT
BRANCH   1   7
HETATM    7  C   UNL     1     -43.455 -53.041  12.291  1.00  0.00     0.162 C 
BRANCH   7   8
HETATM    8  C   UNL     1     -44.231 -52.621  13.547  1.00  0.00     0.076 C 
HETATM    9  C   UNL     1     -44.657 -51.123  13.531  1.00  0.00     0.040 C 
HETATM   10  C   UNL     1     -46.041 -51.547  13.010  1.00  0.00     0.006 C 
HETATM   11  C   UNL     1     -45.757 -52.964  13.520  1.00  0.00     0.040 C 
BRANCH   8  12
HETATM   12  O   UNL     1     -43.588 -53.088  14.768  1.00  0.00    -0.383 OA
HETATM   13  C   UNL     1     -43.080 -54.414  14.793  1.00  0.00     0.202 C 
ENDBRANCH   8  12
ENDBRANCH   7   8
ENDBRANCH   1   7
BRANCH   4  14
HETATM   14  C   UNL     1     -40.820 -49.851  11.520  1.00  0.00     0.703 A 
HETATM   15  N   UNL     1     -41.048 -49.316  10.340  1.00  0.00    -0.185 N 
HETATM   16  C   UNL     1     -41.449 -48.048  10.630  1.00  0.00     0.215 A 
ATOM     17  HN  UNL     1     -40.947 -49.750   9.423  1.00  0.00     0.185 HD
HETATM   18  N   UNL     1     -41.516 -47.758  11.931  1.00  0.00    -0.280 N 
HETATM   19  N   UNL     1     -41.140 -48.926  12.484  1.00  0.00    -0.127 N 
ATOM     20  HN  UNL     1     -41.782 -46.884  12.386  1.00  0.00     0.188 HD
HETATM   21  C   UNL     1     -41.250 -49.111  13.908  1.00  0.00     0.197 C 
ENDBRANCH   4  14
TORSDOF 4
ENDMDL
MODEL 4
REMARK VINA RESULT:      -5.1      1.898      2.480
REMARK  4 active torsions:
REMARK  status: ('A' for Active; 'I' for Inactive)
REMARK    1  A    between atoms: O_2  and  C_3 
REMARK    2  A    between atoms: C_3  and  C_4 
REMARK    3  A    between atoms: C_4  and  N_5 
REMARK       I    between atoms: N_5  and  C_6 
REMARK       I    between atoms: C_6  and  N_8 
REMARK    4  A    between atoms: N_8  and  C_9 
ROOT
HETATM    1  N   UNL     1     -42.439 -52.231  11.887  1.00  0.00    -0.340 N 
HETATM    2  C   UNL     1     -41.088 -52.369  11.950  1.00  0.00     0.334 C 
HETATM    3  O   UNL     1     -40.530 -53.440  12.183  1.00  0.00    -0.247 OA
HETATM    4  N   UNL     1     -40.344 -51.229  11.848  1.00  0.00    -0.140 N 
HETATM    5  H   UNL     1     -42.792 -51.389  11.430  1.00  0.00     0.164 HD
HETATM    6  H   UNL     1     -39.365 -51.355  12.048  1.00  0.00     0.189 HD
ENDROOT
BRANCH   1   7
HETATM    7  C   UNL     1     -43.348 -53.327  12.123  1.00  0.00     0.162 C 
BRANCH   7   8
HETATM    8  C   UNL     1     -43.979 -53.133  13.509  1.00  0.00     0.076 C 
HETATM    9  C   UNL     1     -44.981 -54.262  13.890  1.00  0.00     0.040 C 
HETATM   10  C   UNL     1     -43.858 -54.963  14.674  1.00  0.00     0.006 C 
HETATM   11  C   UNL     1     -43.101 -53.630  14.705  1.00  0.00     0.040 C 
BRANCH   8  12
HETATM   12  O   UNL     1     -44.450 -51.768  13.708  1.00  0.00    -0.383 OA
HETATM   13  C   UNL     1     -45.825 -51.495  13.477  1.00  0.00     0.202 C 
ENDBRANCH   8  12
ENDBRANCH   7   8
ENDBRANCH   1   7
BRANCH   4  14
HETATM   14  C   UNL     1     -40.850 -49.988  11.553  1.00  0.00     0.703 A 
HETATM   15  N   UNL     1     -40.984 -49.445  10.363  1.00  0.00    -0.185 N 
HETATM   16  C   UNL     1     -41.496 -48.210  10.625  1.00  0.00     0.215 A 
ATOM     17  HN  UNL     1     -40.757 -49.852   9.456  1.00  0.00     0.185 HD
HETATM   18  N   UNL     1     -41.722 -47.953  11.915  1.00  0.00    -0.280 N 
HETATM   19  N   UNL     1     -41.332 -49.106  12.489  1.00  0.00    -0.127 N 
ATOM     20  HN  UNL     1     -42.092 -47.107  12.350  1.00  0.00     0.188 HD
HETATM   21  C   UNL     1     -41.583 -49.326  13.890  1.00  0.00     0.197 C 
ENDBRANCH   4  14
TORSDOF 4
ENDMDL
MODEL 5
REMARK VINA RESULT:      -5.1      1.745      2.453
REMARK  4 active torsions:
REMARK  status: ('A' for Active; 'I' for Inactive)
REMARK    1  A    between atoms: O_2  and  C_3 
REMARK    2  A    between atoms: C_3  and  C_4 
REMARK    3  A    between atoms: C_4  and  N_5 
REMARK       I    between atoms: N_5  and  C_6 
REMARK       I    between atoms: C_6  and  N_8 
REMARK    4  A    between atoms: N_8  and  C_9 
ROOT
HETATM    1  N   UNL     1     -41.846 -51.356  12.990  1.00  0.00    -0.340 N 
HETATM    2  C   UNL     1     -40.990 -51.796  12.031  1.00  0.00     0.334 C 
HETATM    3  O   UNL     1     -40.619 -52.965  11.944  1.00  0.00    -0.247 OA
HETATM    4  N   UNL     1     -40.454 -50.854  11.202  1.00  0.00    -0.140 N 
HETATM    5  H   UNL     1     -42.299 -50.456  12.822  1.00  0.00     0.164 HD
HETATM    6  H   UNL     1     -39.717 -51.198  10.607  1.00  0.00     0.189 HD
ENDROOT
BRANCH   1   7
HETATM    7  C   UNL     1     -42.375 -52.218  14.021  1.00  0.00     0.162 C 
BRANCH   7   8
HETATM    8  C   UNL     1     -43.831 -52.548  13.664  1.00  0.00     0.076 C 
HETATM    9  C   UNL     1     -43.974 -53.841  12.809  1.00  0.00     0.040 C 
HETATM   10  C   UNL     1     -44.276 -54.630  14.094  1.00  0.00     0.006 C 
HETATM   11  C   UNL     1     -44.625 -53.305  14.780  1.00  0.00     0.040 C 
BRANCH   8  12
HETATM   12  O   UNL     1     -44.553 -51.379  13.178  1.00  0.00    -0.383 OA
HETATM   13  C   UNL     1     -45.954 -51.494  12.974  1.00  0.00     0.202 C 
ENDBRANCH   8  12
ENDBRANCH   7   8
ENDBRANCH   1   7
BRANCH   4  14
HETATM   14  C   UNL     1     -40.817 -49.531  11.180  1.00  0.00     0.703 A 
HETATM   15  N   UNL     1     -41.856 -49.000  10.573  1.00  0.00    -0.185 N 
HETATM   16  C   UNL     1     -41.740 -47.669  10.834  1.00  0.00     0.215 A 
ATOM     17  HN  UNL     1     -42.579 -49.475  10.032  1.00  0.00     0.185 HD
HETATM   18  N   UNL     1     -40.700 -47.330  11.599  1.00  0.00    -0.280 N 
HETATM   19  N   UNL     1     -40.140 -48.531  11.834  1.00  0.00    -0.127 N 
ATOM     20  HN  UNL     1     -40.407 -46.407  11.920  1.00  0.00     0.188 HD
HETATM   21  C   UNL     1     -39.068 -48.644  12.790  1.00  0.00     0.197 C 
ENDBRANCH   4  14
TORSDOF 4
ENDMDL
MODEL 6
REMARK VINA RESULT:      -5.0      1.467      2.799
REMARK  4 active torsions:
REMARK  status: ('A' for Active; 'I' for Inactive)
REMARK    1  A    between atoms: O_2  and  C_3 
REMARK    2  A    between atoms: C_3  and  C_4 
REMARK    3  A    between atoms: C_4  and  N_5 
REMARK       I    between atoms: N_5  and  C_6 
REMARK       I    between atoms: C_6  and  N_8 
REMARK    4  A    between atoms: N_8  and  C_9 
ROOT
HETATM    1  N   UNL     1     -43.726 -50.321  12.807  1.00  0.00    -0.340 N 
HETATM    2  C   UNL     1     -43.227 -49.328  13.589  1.00  0.00     0.334 C 
HETATM    3  O   UNL     1     -43.236 -49.370  14.818  1.00  0.00    -0.247 OA
HETATM    4  N   UNL     1     -42.794 -48.200  12.955  1.00  0.00    -0.140 N 
HETATM    5  H   UNL     1     -43.433 -50.324  11.828  1.00  0.00     0.164 HD
HETATM    6  H   UNL     1     -42.573 -47.437  13.575  1.00  0.00     0.189 HD
ENDROOT
BRANCH   1   7
HETATM    7  C   UNL     1     -44.347 -51.506  13.349  1.00  0.00     0.162 C 
BRANCH   7   8
HETATM    8  C   UNL     1     -43.446 -52.706  13.025  1.00  0.00     0.076 C 
HETATM    9  C   UNL     1     -42.943 -53.454  14.295  1.00  0.00     0.040 C 
HETATM   10  C   UNL     1     -44.087 -54.469  14.122  1.00  0.00     0.006 C 
HETATM   11  C   UNL     1     -44.211 -54.022  12.661  1.00  0.00     0.040 C 
BRANCH   8  12
HETATM   12  O   UNL     1     -42.429 -52.374  12.036  1.00  0.00    -0.383 OA
HETATM   13  C   UNL     1     -41.107 -52.849  12.250  1.00  0.00     0.202 C 
ENDBRANCH   8  12
ENDBRANCH   7   8
ENDBRANCH   1   7
BRANCH   4  14
HETATM   14  C   UNL     1     -42.702 -48.053  11.594  1.00  0.00     0.703 A 
HETATM   15  N   UNL     1     -43.518 -47.385  10.807  1.00  0.00    -0.185 N 
HETATM   16  C   UNL     1     -43.002 -47.581   9.562  1.00  0.00     0.215 A 
ATOM     17  HN  UNL     1     -44.343 -46.846  11.069  1.00  0.00     0.185 HD
HETATM   18  N   UNL     1     -41.887 -48.313   9.520  1.00  0.00    -0.280 N 
HETATM   19  N   UNL     1     -41.694 -48.581  10.824  1.00  0.00    -0.127 N 
ATOM     20  HN  UNL     1     -41.329 -48.594   8.713  1.00  0.00     0.188 HD
HETATM   21  C   UNL     1     -40.471 -49.212  11.251  1.00  0.00     0.197 C 
ENDBRANCH   4  14
TORSDOF 4
ENDMDL
MODEL 7
REMARK VINA RESULT:      -5.0      3.495      4.874
REMARK  4 active torsions:
REMARK  status: ('A' for Active; 'I' for Inactive)
REMARK    1  A    between atoms: O_2  and  C_3 
REMARK    2  A    between atoms: C_3  and  C_4 
REMARK    3  A    between atoms: C_4  and  N_5 
REMARK       I    between atoms: N_5  and  C_6 
REMARK       I    between atoms: C_6  and  N_8 
REMARK    4  A    between atoms: N_8  and  C_9 
ROOT
HETATM    1  N   UNL     1     -43.052 -54.103  13.989  1.00  0.00    -0.340 N 
HETATM    2  C   UNL     1     -43.894 -53.934  12.935  1.00  0.00     0.334 C 
HETATM    3  O   UNL     1     -44.920 -54.593  12.781  1.00  0.00    -0.247 OA
HETATM    4  N   UNL     1     -43.503 -53.056  11.966  1.00  0.00    -0.140 N 
HETATM    5  H   UNL     1     -42.392 -53.346  14.174  1.00  0.00     0.164 HD
HETATM    6  H   UNL     1     -44.077 -53.072  11.139  1.00  0.00     0.189 HD
ENDROOT
BRANCH   1   7
HETATM    7  C   UNL     1     -43.269 -55.100  15.011  1.00  0.00     0.162 C 
BRANCH   7   8
HETATM    8  C   UNL     1     -43.897 -54.405  16.228  1.00  0.00     0.076 C 
HETATM    9  C   UNL     1     -43.205 -54.781  17.571  1.00  0.00     0.040 C 
HETATM   10  C   UNL     1     -42.364 -53.497  17.471  1.00  0.00     0.006 C 
HETATM   11  C   UNL     1     -43.396 -52.945  16.480  1.00  0.00     0.040 C 
BRANCH   8  12
HETATM   12  O   UNL     1     -45.352 -54.489  16.215  1.00  0.00    -0.383 OA
HETATM   13  C   UNL     1     -46.089 -53.293  16.004  1.00  0.00     0.202 C 
ENDBRANCH   8  12
ENDBRANCH   7   8
ENDBRANCH   1   7
BRANCH   4  14
HETATM   14  C   UNL     1     -42.402 -52.241  12.046  1.00  0.00     0.703 A 
HETATM   15  N   UNL     1     -41.228 -52.431  11.483  1.00  0.00    -0.185 N 
HETATM   16  C   UNL     1     -40.492 -51.363  11.898  1.00  0.00     0.215 A 
ATOM     17  HN  UNL     1     -40.938 -53.198  10.876  1.00  0.00     0.185 HD
HETATM   18  N   UNL     1     -41.145 -50.492  12.671  1.00  0.00    -0.280 N 
HETATM   19  N   UNL     1     -42.367 -51.051  12.731  1.00  0.00    -0.127 N 
ATOM     20  HN  UNL     1     -40.807 -49.630  13.101  1.00  0.00     0.188 HD
HETATM   21  C   UNL     1     -43.456 -50.326  13.332  1.00  0.00     0.197 C 
ENDBRANCH   4  14
TORSDOF 4
ENDMDL
MODEL 8
REMARK VINA RESULT:      -4.9      3.458      4.888
REMARK  4 active torsions:
REMARK  status: ('A' for Active; 'I' for Inactive)
REMARK    1  A    between atoms: O_2  and  C_3 
REMARK    2  A    between atoms: C_3  and  C_4 
REMARK    3  A    between atoms: C_4  and  N_5 
REMARK       I    between atoms: N_5  and  C_6 
REMARK       I    between atoms: C_6  and  N_8 
REMARK    4  A    between atoms: N_8  and  C_9 
ROOT
HETATM    1  N   UNL     1     -43.971 -51.991  13.019  1.00  0.00    -0.340 N 
HETATM    2  C   UNL     1     -43.600 -53.129  12.375  1.00  0.00     0.334 C 
HETATM    3  O   UNL     1     -44.362 -54.077  12.191  1.00  0.00    -0.247 OA
HETATM    4  N   UNL     1     -42.288 -53.239  12.019  1.00  0.00    -0.140 N 
HETATM    5  H   UNL     1     -43.372 -51.174  12.885  1.00  0.00     0.164 HD
HETATM    6  H   UNL     1     -42.026 -54.151  11.682  1.00  0.00     0.189 HD
ENDROOT
BRANCH   1   7
HETATM    7  C   UNL     1     -45.289 -51.802  13.577  1.00  0.00     0.162 C 
BRANCH   7   8
HETATM    8  C   UNL     1     -45.212 -52.088  15.084  1.00  0.00     0.076 C 
HETATM    9  C   UNL     1     -43.957 -51.465  15.762  1.00  0.00     0.040 C 
HETATM   10  C   UNL     1     -44.815 -50.263  16.194  1.00  0.00     0.006 C 
HETATM   11  C   UNL     1     -46.063 -51.127  15.978  1.00  0.00     0.040 C 
BRANCH   8  12
HETATM   12  O   UNL     1     -45.471 -53.490  15.388  1.00  0.00    -0.383 OA
HETATM   13  C   UNL     1     -46.600 -54.108  14.787  1.00  0.00     0.202 C 
ENDBRANCH   8  12
ENDBRANCH   7   8
ENDBRANCH   1   7
BRANCH   4  14
HETATM   14  C   UNL     1     -41.357 -52.237  12.140  1.00  0.00     0.703 A 
HETATM   15  N   UNL     1     -41.092 -51.287  11.269  1.00  0.00    -0.185 N 
HETATM   16  C   UNL     1     -40.080 -50.587  11.852  1.00  0.00     0.215 A 
ATOM     17  HN  UNL     1     -41.539 -51.116  10.369  1.00  0.00     0.185 HD
HETATM   18  N   UNL     1     -39.710 -51.023  13.058  1.00  0.00    -0.280 N 
HETATM   19  N   UNL     1     -40.552 -52.056  13.238  1.00  0.00    -0.127 N 
ATOM     20  HN  UNL     1     -38.981 -50.668  13.678  1.00  0.00     0.188 HD
HETATM   21  C   UNL     1     -40.616 -52.711  14.519  1.00  0.00     0.197 C 
ENDBRANCH   4  14
TORSDOF 4
ENDMDL
MODEL 9
REMARK VINA RESULT:      -4.9      2.079      3.231
REMARK  4 active torsions:
REMARK  status: ('A' for Active; 'I' for Inactive)
REMARK    1  A    between atoms: O_2  and  C_3 
REMARK    2  A    between atoms: C_3  and  C_4 
REMARK    3  A    between atoms: C_4  and  N_5 
REMARK       I    between atoms: N_5  and  C_6 
REMARK       I    between atoms: C_6  and  N_8 
REMARK    4  A    between atoms: N_8  and  C_9 
ROOT
HETATM    1  N   UNL     1     -43.693 -50.619  12.846  1.00  0.00    -0.340 N 
HETATM    2  C   UNL     1     -43.332 -49.588  13.654  1.00  0.00     0.334 C 
HETATM    3  O   UNL     1     -43.383 -49.645  14.882  1.00  0.00    -0.247 OA
HETATM    4  N   UNL     1     -43.001 -48.412  13.047  1.00  0.00    -0.140 N 
HETATM    5  H   UNL     1     -43.366 -50.578  11.879  1.00  0.00     0.164 HD
HETATM    6  H   UNL     1     -42.886 -47.637  13.680  1.00  0.00     0.189 HD
ENDROOT
BRANCH   1   7
HETATM    7  C   UNL     1     -44.203 -51.870  13.354  1.00  0.00     0.162 C 
BRANCH   7   8
HETATM    8  C   UNL     1     -45.735 -51.830  13.265  1.00  0.00     0.076 C 
HETATM    9  C   UNL     1     -46.402 -53.205  13.564  1.00  0.00     0.040 C 
HETATM   10  C   UNL     1     -46.633 -52.752  15.016  1.00  0.00     0.006 C 
HETATM   11  C   UNL     1     -46.454 -51.302  14.551  1.00  0.00     0.040 C 
BRANCH   8  12
HETATM   12  O   UNL     1     -46.195 -51.147  12.063  1.00  0.00    -0.383 OA
HETATM   13  C   UNL     1     -47.231 -51.754  11.303  1.00  0.00     0.202 C 
ENDBRANCH   8  12
ENDBRANCH   7   8
ENDBRANCH   1   7
BRANCH   4  14
HETATM   14  C   UNL     1     -42.874 -48.239  11.691  1.00  0.00     0.703 A 
HETATM   15  N   UNL     1     -43.781 -47.772  10.860  1.00  0.00    -0.185 N 
HETATM   16  C   UNL     1     -43.170 -47.837   9.644  1.00  0.00     0.215 A 
ATOM     17  HN  UNL     1     -44.721 -47.440  11.075  1.00  0.00     0.185 HD
HETATM   18  N   UNL     1     -41.916 -48.291   9.664  1.00  0.00    -0.280 N 
HETATM   19  N   UNL     1     -41.734 -48.516  10.978  1.00  0.00    -0.127 N 
ATOM     20  HN  UNL     1     -41.267 -48.432   8.889  1.00  0.00     0.188 HD
HETATM   21  C   UNL     1     -40.422 -48.850  11.471  1.00  0.00     0.197 C 
ENDBRANCH   4  14
TORSDOF 4
ENDMDL
