MODEL 1
REMARK VINA RESULT:      -5.6      0.000      0.000
REMARK  4 active torsions:
REMARK  status: ('A' for Active; 'I' for Inactive)
REMARK    1  A    between atoms: C_2  and  N_3 
REMARK    2  A    between atoms: C_2  and  C_15 
REMARK       I    between atoms: N_3  and  C_4 
REMARK    3  A    between atoms: C_4  and  C_6 
REMARK    4  A    between atoms: C_6  and  C_7 
ROOT
HETATM    1  N   UNL     1     -45.024 -51.168  12.900  1.00  0.00    -0.354 N 
HETATM    2  C   UNL     1     -43.696 -51.409  13.185  1.00  0.00     0.222 C 
HETATM    3  O   UNL     1     -43.232 -52.543  13.288  1.00  0.00    -0.273 OA
HETATM    4  H   UNL     1     -45.366 -50.216  12.816  1.00  0.00     0.162 HD
ENDROOT
BRANCH   2   5
HETATM    5  C   UNL     1     -42.842 -50.173  13.385  1.00  0.00     0.146 C 
BRANCH   5   6
HETATM    6  C   UNL     1     -42.068 -49.712  12.194  1.00  0.00     0.006 A 
HETATM    7  C   UNL     1     -40.844 -50.286  11.728  1.00  0.00     0.038 A 
HETATM    8  C   UNL     1     -40.084 -51.437  12.275  1.00  0.00     0.071 C 
HETATM    9  N   UNL     1     -40.376 -49.657  10.647  1.00  0.00    -0.265 N 
HETATM   10  O   UNL     1     -41.291 -48.664  10.373  1.00  0.00    -0.242 OA
ATOM     11  HN  UNL     1     -39.521 -49.867  10.132  1.00  0.00     0.194 HD
HETATM   12  C   UNL     1     -42.298 -48.696  11.285  1.00  0.00     0.081 A 
HETATM   13  C   UNL     1     -43.347 -47.676  11.083  1.00  0.00     0.079 C 
ENDBRANCH   5   6
ENDBRANCH   2   5
BRANCH   1  14
HETATM   14  C   UNL     1     -46.000 -52.247  12.717  1.00  0.00     0.109 C 
HETATM   15  C   UNL     1     -46.993 -51.841  11.627  1.00  0.00     0.035 C 
BRANCH  14  16
HETATM   16  C   UNL     1     -46.689 -52.595  14.057  1.00  0.00     0.143 C 
HETATM   17  C   UNL     1     -46.896 -51.396  14.980  1.00  0.00     0.036 C 
HETATM   18  C   UNL     1     -46.446 -51.860  16.346  1.00  0.00     0.029 C 
HETATM   19  C   UNL     1     -46.202 -53.343  16.187  1.00  0.00     0.168 C 
HETATM   20  O   UNL     1     -45.916 -53.556  14.801  1.00  0.00    -0.384 OA
ENDBRANCH  14  16
ENDBRANCH   1  14
TORSDOF 4
ENDMDL
MODEL 2
REMARK VINA RESULT:      -5.4      2.273      6.809
REMARK  4 active torsions:
REMARK  status: ('A' for Active; 'I' for Inactive)
REMARK    1  A    between atoms: C_2  and  N_3 
REMARK    2  A    between atoms: C_2  and  C_15 
REMARK       I    between atoms: N_3  and  C_4 
REMARK    3  A    between atoms: C_4  and  C_6 
REMARK    4  A    between atoms: C_6  and  C_7 
ROOT
HETATM    1  N   UNL     1     -41.938 -51.000  11.908  1.00  0.00    -0.354 N 
HETATM    2  C   UNL     1     -42.724 -51.636  12.846  1.00  0.00     0.222 C 
HETATM    3  O   UNL     1     -42.954 -51.162  13.956  1.00  0.00    -0.273 OA
HETATM    4  H   UNL     1     -41.779 -51.422  11.000  1.00  0.00     0.162 HD
ENDROOT
BRANCH   2   5
HETATM    5  C   UNL     1     -43.276 -52.983  12.421  1.00  0.00     0.146 C 
BRANCH   5   6
HETATM    6  C   UNL     1     -44.344 -53.557  13.293  1.00  0.00     0.006 A 
HETATM    7  C   UNL     1     -45.734 -53.227  13.228  1.00  0.00     0.038 A 
HETATM    8  C   UNL     1     -46.430 -52.290  12.312  1.00  0.00     0.071 C 
HETATM    9  N   UNL     1     -46.448 -53.889  14.141  1.00  0.00    -0.265 N 
HETATM   10  O   UNL     1     -45.544 -54.678  14.817  1.00  0.00    -0.242 OA
ATOM     11  HN  UNL     1     -47.453 -53.825  14.304  1.00  0.00     0.194 HD
HETATM   12  C   UNL     1     -44.295 -54.488  14.314  1.00  0.00     0.081 A 
HETATM   13  C   UNL     1     -43.241 -55.295  14.960  1.00  0.00     0.079 C 
ENDBRANCH   5   6
ENDBRANCH   2   5
BRANCH   1  14
HETATM   14  C   UNL     1     -41.289 -49.710  12.167  1.00  0.00     0.109 C 
HETATM   15  C   UNL     1     -41.301 -48.879  10.883  1.00  0.00     0.035 C 
BRANCH  14  16
HETATM   16  C   UNL     1     -39.867 -49.917  12.736  1.00  0.00     0.143 C 
HETATM   17  C   UNL     1     -38.887 -48.800  12.383  1.00  0.00     0.036 C 
HETATM   18  C   UNL     1     -37.627 -49.501  11.932  1.00  0.00     0.029 C 
HETATM   19  C   UNL     1     -37.867 -50.961  12.240  1.00  0.00     0.168 C 
HETATM   20  O   UNL     1     -39.287 -51.141  12.246  1.00  0.00    -0.384 OA
ENDBRANCH  14  16
ENDBRANCH   1  14
TORSDOF 4
ENDMDL
MODEL 3
REMARK VINA RESULT:      -5.4      2.104      6.017
REMARK  4 active torsions:
REMARK  status: ('A' for Active; 'I' for Inactive)
REMARK    1  A    between atoms: C_2  and  N_3 
REMARK    2  A    between atoms: C_2  and  C_15 
REMARK       I    between atoms: N_3  and  C_4 
REMARK    3  A    between atoms: C_4  and  C_6 
REMARK    4  A    between atoms: C_6  and  C_7 
ROOT
HETATM    1  N   UNL     1     -42.279 -49.370  12.167  1.00  0.00    -0.354 N 
HETATM    2  C   UNL     1     -42.183 -50.714  12.464  1.00  0.00     0.222 C 
HETATM    3  O   UNL     1     -41.463 -51.486  11.835  1.00  0.00    -0.273 OA
HETATM    4  H   UNL     1     -42.880 -48.765  12.716  1.00  0.00     0.162 HD
ENDROOT
BRANCH   2   5
HETATM    5  C   UNL     1     -43.048 -51.185  13.617  1.00  0.00     0.146 C 
BRANCH   5   6
HETATM    6  C   UNL     1     -43.919 -52.367  13.341  1.00  0.00     0.006 A 
HETATM    7  C   UNL     1     -43.512 -53.735  13.434  1.00  0.00     0.038 A 
HETATM    8  C   UNL     1     -42.195 -54.294  13.825  1.00  0.00     0.071 C 
HETATM    9  N   UNL     1     -44.502 -54.573  13.117  1.00  0.00    -0.265 N 
HETATM   10  O   UNL     1     -45.583 -53.773  12.820  1.00  0.00    -0.242 OA
ATOM     11  HN  UNL     1     -44.466 -55.592  13.097  1.00  0.00     0.194 HD
HETATM   12  C   UNL     1     -45.243 -52.463  12.956  1.00  0.00     0.081 A 
HETATM   13  C   UNL     1     -46.334 -51.510  12.671  1.00  0.00     0.079 C 
ENDBRANCH   5   6
ENDBRANCH   2   5
BRANCH   1  14
HETATM   14  C   UNL     1     -41.544 -48.754  11.057  1.00  0.00     0.109 C 
HETATM   15  C   UNL     1     -40.225 -48.188  11.586  1.00  0.00     0.035 C 
BRANCH  14  16
HETATM   16  C   UNL     1     -42.414 -47.689  10.349  1.00  0.00     0.143 C 
HETATM   17  C   UNL     1     -43.817 -47.543  10.934  1.00  0.00     0.036 C 
HETATM   18  C   UNL     1     -44.746 -47.514   9.743  1.00  0.00     0.029 C 
HETATM   19  C   UNL     1     -43.830 -47.438   8.543  1.00  0.00     0.168 C 
HETATM   20  O   UNL     1     -42.582 -48.004   8.954  1.00  0.00    -0.384 OA
ENDBRANCH  14  16
ENDBRANCH   1  14
TORSDOF 4
ENDMDL
MODEL 4
REMARK VINA RESULT:      -5.4      3.925      5.070
REMARK  4 active torsions:
REMARK  status: ('A' for Active; 'I' for Inactive)
REMARK    1  A    between atoms: C_2  and  N_3 
REMARK    2  A    between atoms: C_2  and  C_15 
REMARK       I    between atoms: N_3  and  C_4 
REMARK    3  A    between atoms: C_4  and  C_6 
REMARK    4  A    between atoms: C_6  and  C_7 
ROOT
HETATM    1  N   UNL     1     -43.959 -53.601  14.846  1.00  0.00    -0.354 N 
HETATM    2  C   UNL     1     -43.113 -54.604  15.271  1.00  0.00     0.222 C 
HETATM    3  O   UNL     1     -43.371 -55.797  15.135  1.00  0.00    -0.273 OA
HETATM    4  H   UNL     1     -43.705 -52.627  14.971  1.00  0.00     0.162 HD
ENDROOT
BRANCH   2   5
HETATM    5  C   UNL     1     -41.839 -54.132  15.945  1.00  0.00     0.146 C 
BRANCH   5   6
HETATM    6  C   UNL     1     -40.562 -54.637  15.357  1.00  0.00     0.006 A 
HETATM    7  C   UNL     1     -40.061 -54.308  14.058  1.00  0.00     0.038 A 
HETATM    8  C   UNL     1     -40.647 -53.413  13.030  1.00  0.00     0.071 C 
HETATM    9  N   UNL     1     -38.902 -54.919  13.800  1.00  0.00    -0.265 N 
HETATM   10  O   UNL     1     -38.612 -55.653  14.929  1.00  0.00    -0.242 OA
ATOM     11  HN  UNL     1     -38.348 -54.856  12.946  1.00  0.00     0.194 HD
HETATM   12  C   UNL     1     -39.591 -55.485  15.857  1.00  0.00     0.081 A 
HETATM   13  C   UNL     1     -39.379 -56.222  17.118  1.00  0.00     0.079 C 
ENDBRANCH   5   6
ENDBRANCH   2   5
BRANCH   1  14
HETATM   14  C   UNL     1     -45.253 -53.877  14.212  1.00  0.00     0.109 C 
HETATM   15  C   UNL     1     -45.227 -53.351  12.776  1.00  0.00     0.035 C 
BRANCH  14  16
HETATM   16  C   UNL     1     -46.410 -53.284  15.048  1.00  0.00     0.143 C 
HETATM   17  C   UNL     1     -46.740 -51.832  14.711  1.00  0.00     0.036 C 
HETATM   18  C   UNL     1     -46.872 -51.132  16.044  1.00  0.00     0.029 C 
HETATM   19  C   UNL     1     -46.817 -52.242  17.068  1.00  0.00     0.168 C 
HETATM   20  O   UNL     1     -46.102 -53.319  16.455  1.00  0.00    -0.384 OA
ENDBRANCH  14  16
ENDBRANCH   1  14
TORSDOF 4
ENDMDL
MODEL 5
REMARK VINA RESULT:      -5.4      1.123      2.181
REMARK  4 active torsions:
REMARK  status: ('A' for Active; 'I' for Inactive)
REMARK    1  A    between atoms: C_2  and  N_3 
REMARK    2  A    between atoms: C_2  and  C_15 
REMARK       I    between atoms: N_3  and  C_4 
REMARK    3  A    between atoms: C_4  and  C_6 
REMARK    4  A    between atoms: C_6  and  C_7 
ROOT
HETATM    1  N   UNL     1     -44.830 -51.293  12.904  1.00  0.00    -0.354 N 
HETATM    2  C   UNL     1     -43.493 -51.629  12.946  1.00  0.00     0.222 C 
HETATM    3  O   UNL     1     -43.088 -52.779  12.791  1.00  0.00    -0.273 OA
HETATM    4  H   UNL     1     -45.121 -50.330  13.029  1.00  0.00     0.162 HD
ENDROOT
BRANCH   2   5
HETATM    5  C   UNL     1     -42.545 -50.477  13.219  1.00  0.00     0.146 C 
BRANCH   5   6
HETATM    6  C   UNL     1     -41.205 -50.563  12.564  1.00  0.00     0.006 A 
HETATM    7  C   UNL     1     -40.775 -49.776  11.451  1.00  0.00     0.038 A 
HETATM    8  C   UNL     1     -41.510 -48.717  10.715  1.00  0.00     0.071 C 
HETATM    9  N   UNL     1     -39.531 -50.081  11.073  1.00  0.00    -0.265 N 
HETATM   10  O   UNL     1     -39.114 -51.067  11.939  1.00  0.00    -0.242 OA
ATOM     11  HN  UNL     1     -39.001 -49.670  10.304  1.00  0.00     0.194 HD
HETATM   12  C   UNL     1     -40.102 -51.353  12.828  1.00  0.00     0.081 A 
HETATM   13  C   UNL     1     -39.760 -52.396  13.816  1.00  0.00     0.079 C 
ENDBRANCH   5   6
ENDBRANCH   2   5
BRANCH   1  14
HETATM   14  C   UNL     1     -45.886 -52.288  12.692  1.00  0.00     0.109 C 
HETATM   15  C   UNL     1     -46.870 -51.757  11.648  1.00  0.00     0.035 C 
BRANCH  14  16
HETATM   16  C   UNL     1     -46.569 -52.655  14.030  1.00  0.00     0.143 C 
HETATM   17  C   UNL     1     -46.867 -51.454  14.925  1.00  0.00     0.036 C 
HETATM   18  C   UNL     1     -46.407 -51.862  16.306  1.00  0.00     0.029 C 
HETATM   19  C   UNL     1     -46.065 -53.329  16.180  1.00  0.00     0.168 C 
HETATM   20  O   UNL     1     -45.747 -53.549  14.802  1.00  0.00    -0.384 OA
ENDBRANCH  14  16
ENDBRANCH   1  14
TORSDOF 4
ENDMDL
MODEL 6
REMARK VINA RESULT:      -5.3      2.442      3.792
REMARK  4 active torsions:
REMARK  status: ('A' for Active; 'I' for Inactive)
REMARK    1  A    between atoms: C_2  and  N_3 
REMARK    2  A    between atoms: C_2  and  C_15 
REMARK       I    between atoms: N_3  and  C_4 
REMARK    3  A    between atoms: C_4  and  C_6 
REMARK    4  A    between atoms: C_6  and  C_7 
ROOT
HETATM    1  N   UNL     1     -42.374 -50.372  11.909  1.00  0.00    -0.354 N 
HETATM    2  C   UNL     1     -41.856 -49.097  11.997  1.00  0.00     0.222 C 
HETATM    3  O   UNL     1     -41.733 -48.499  13.063  1.00  0.00    -0.273 OA
HETATM    4  H   UNL     1     -42.452 -50.834  11.009  1.00  0.00     0.162 HD
ENDROOT
BRANCH   2   5
HETATM    5  C   UNL     1     -41.463 -48.466  10.675  1.00  0.00     0.146 C 
BRANCH   5   6
HETATM    6  C   UNL     1     -41.933 -47.066  10.454  1.00  0.00     0.006 A 
HETATM    7  C   UNL     1     -43.276 -46.680  10.151  1.00  0.00     0.038 A 
HETATM    8  C   UNL     1     -44.482 -47.532  10.006  1.00  0.00     0.071 C 
HETATM    9  N   UNL     1     -43.394 -45.360   9.994  1.00  0.00    -0.265 N 
HETATM   10  O   UNL     1     -42.132 -44.849  10.203  1.00  0.00    -0.242 OA
ATOM     11  HN  UNL     1     -44.241 -44.838   9.767  1.00  0.00     0.194 HD
HETATM   12  C   UNL     1     -41.263 -45.856  10.481  1.00  0.00     0.081 A 
HETATM   13  C   UNL     1     -39.875 -45.422  10.733  1.00  0.00     0.079 C 
ENDBRANCH   5   6
ENDBRANCH   2   5
BRANCH   1  14
HETATM   14  C   UNL     1     -42.844 -51.116  13.083  1.00  0.00     0.109 C 
HETATM   15  C   UNL     1     -42.779 -52.614  12.784  1.00  0.00     0.035 C 
BRANCH  14  16
HETATM   16  C   UNL     1     -44.257 -50.647  13.498  1.00  0.00     0.143 C 
HETATM   17  C   UNL     1     -44.523 -50.727  15.000  1.00  0.00     0.036 C 
HETATM   18  C   UNL     1     -45.887 -51.366  15.131  1.00  0.00     0.029 C 
HETATM   19  C   UNL     1     -46.418 -51.430  13.718  1.00  0.00     0.168 C 
HETATM   20  O   UNL     1     -45.274 -51.441  12.859  1.00  0.00    -0.384 OA
ENDBRANCH  14  16
ENDBRANCH   1  14
TORSDOF 4
ENDMDL
MODEL 7
REMARK VINA RESULT:      -5.3      2.705      6.533
REMARK  4 active torsions:
REMARK  status: ('A' for Active; 'I' for Inactive)
REMARK    1  A    between atoms: C_2  and  N_3 
REMARK    2  A    between atoms: C_2  and  C_15 
REMARK       I    between atoms: N_3  and  C_4 
REMARK    3  A    between atoms: C_4  and  C_6 
REMARK    4  A    between atoms: C_6  and  C_7 
ROOT
HETATM    1  N   UNL     1     -41.922 -50.977  11.973  1.00  0.00    -0.354 N 
HETATM    2  C   UNL     1     -42.881 -51.562  12.773  1.00  0.00     0.222 C 
HETATM    3  O   UNL     1     -43.404 -50.981  13.722  1.00  0.00    -0.273 OA
HETATM    4  H   UNL     1     -41.521 -51.489  11.195  1.00  0.00     0.162 HD
ENDROOT
BRANCH   2   5
HETATM    5  C   UNL     1     -43.237 -52.992  12.416  1.00  0.00     0.146 C 
BRANCH   5   6
HETATM    6  C   UNL     1     -43.245 -53.967  13.548  1.00  0.00     0.006 A 
HETATM    7  C   UNL     1     -42.095 -54.385  14.289  1.00  0.00     0.038 A 
HETATM    8  C   UNL     1     -40.681 -53.962  14.136  1.00  0.00     0.071 C 
HETATM    9  N   UNL     1     -42.406 -55.274  15.235  1.00  0.00    -0.265 N 
HETATM   10  O   UNL     1     -43.769 -55.449  15.144  1.00  0.00    -0.242 OA
ATOM     11  HN  UNL     1     -41.769 -55.729  15.889  1.00  0.00     0.194 HD
HETATM   12  C   UNL     1     -44.272 -54.672  14.147  1.00  0.00     0.081 A 
HETATM   13  C   UNL     1     -45.733 -54.773  13.964  1.00  0.00     0.079 C 
ENDBRANCH   5   6
ENDBRANCH   2   5
BRANCH   1  14
HETATM   14  C   UNL     1     -41.429 -49.615  12.201  1.00  0.00     0.109 C 
HETATM   15  C   UNL     1     -41.620 -48.795  10.924  1.00  0.00     0.035 C 
BRANCH  14  16
HETATM   16  C   UNL     1     -39.961 -49.638  12.685  1.00  0.00     0.143 C 
HETATM   17  C   UNL     1     -39.025 -48.742  11.878  1.00  0.00     0.036 C 
HETATM   18  C   UNL     1     -37.802 -49.586  11.603  1.00  0.00     0.029 C 
HETATM   19  C   UNL     1     -38.003 -50.835  12.429  1.00  0.00     0.168 C 
HETATM   20  O   UNL     1     -39.415 -50.969  12.616  1.00  0.00    -0.384 OA
ENDBRANCH  14  16
ENDBRANCH   1  14
TORSDOF 4
ENDMDL
MODEL 8
REMARK VINA RESULT:      -5.3      2.042      6.636
REMARK  4 active torsions:
REMARK  status: ('A' for Active; 'I' for Inactive)
REMARK    1  A    between atoms: C_2  and  N_3 
REMARK    2  A    between atoms: C_2  and  C_15 
REMARK       I    between atoms: N_3  and  C_4 
REMARK    3  A    between atoms: C_4  and  C_6 
REMARK    4  A    between atoms: C_6  and  C_7 
ROOT
HETATM    1  N   UNL     1     -42.651 -50.683  12.093  1.00  0.00    -0.354 N 
HETATM    2  C   UNL     1     -42.549 -51.789  12.910  1.00  0.00     0.222 C 
HETATM    3  O   UNL     1     -41.921 -51.782  13.966  1.00  0.00    -0.273 OA
HETATM    4  H   UNL     1     -43.186 -50.728  11.232  1.00  0.00     0.162 HD
ENDROOT
BRANCH   2   5
HETATM    5  C   UNL     1     -43.251 -53.034  12.404  1.00  0.00     0.146 C 
BRANCH   5   6
HETATM    6  C   UNL     1     -44.325 -53.583  13.286  1.00  0.00     0.006 A 
HETATM    7  C   UNL     1     -45.709 -53.228  13.224  1.00  0.00     0.038 A 
HETATM    8  C   UNL     1     -46.392 -52.286  12.304  1.00  0.00     0.071 C 
HETATM    9  N   UNL     1     -46.431 -53.871  14.145  1.00  0.00    -0.265 N 
HETATM   10  O   UNL     1     -45.538 -54.671  14.823  1.00  0.00    -0.242 OA
ATOM     11  HN  UNL     1     -47.434 -53.787  14.312  1.00  0.00     0.194 HD
HETATM   12  C   UNL     1     -44.288 -54.506  14.314  1.00  0.00     0.081 A 
HETATM   13  C   UNL     1     -43.245 -55.327  14.961  1.00  0.00     0.079 C 
ENDBRANCH   5   6
ENDBRANCH   2   5
BRANCH   1  14
HETATM   14  C   UNL     1     -41.998 -49.407  12.407  1.00  0.00     0.109 C 
HETATM   15  C   UNL     1     -42.861 -48.640  13.411  1.00  0.00     0.035 C 
BRANCH  14  16
HETATM   16  C   UNL     1     -41.718 -48.603  11.117  1.00  0.00     0.143 C 
HETATM   17  C   UNL     1     -40.690 -47.487  11.290  1.00  0.00     0.036 C 
HETATM   18  C   UNL     1     -41.292 -46.280  10.608  1.00  0.00     0.029 C 
HETATM   19  C   UNL     1     -42.523 -46.807   9.908  1.00  0.00     0.168 C 
HETATM   20  O   UNL     1     -42.920 -47.980  10.625  1.00  0.00    -0.384 OA
ENDBRANCH  14  16
ENDBRANCH   1  14
TORSDOF 4
ENDMDL
MODEL 9
REMARK VINA RESULT:      -5.1      3.554      7.459
REMARK  4 active torsions:
REMARK  status: ('A' for Active; 'I' for Inactive)
REMARK    1  A    between atoms: C_2  and  N_3 
REMARK    2  A    between atoms: C_2  and  C_15 
REMARK       I    between atoms: N_3  and  C_4 
REMARK    3  A    between atoms: C_4  and  C_6 
REMARK    4  A    between atoms: C_6  and  C_7 
ROOT
HETATM    1  N   UNL     1     -39.899 -52.466  14.080  1.00  0.00    -0.354 N 
HETATM    2  C   UNL     1     -40.000 -53.774  13.653  1.00  0.00     0.222 C 
HETATM    3  O   UNL     1     -39.081 -54.583  13.756  1.00  0.00    -0.273 OA
HETATM    4  H   UNL     1     -40.684 -51.832  13.983  1.00  0.00     0.162 HD
ENDROOT
BRANCH   2   5
HETATM    5  C   UNL     1     -41.328 -54.147  13.022  1.00  0.00     0.146 C 
BRANCH   5   6
HETATM    6  C   UNL     1     -42.459 -54.379  13.969  1.00  0.00     0.006 A 
HETATM    7  C   UNL     1     -43.825 -54.031  13.729  1.00  0.00     0.038 A 
HETATM    8  C   UNL     1     -44.432 -53.399  12.531  1.00  0.00     0.071 C 
HETATM    9  N   UNL     1     -44.611 -54.348  14.760  1.00  0.00    -0.265 N 
HETATM   10  O   UNL     1     -43.779 -54.922  15.696  1.00  0.00    -0.242 OA
ATOM     11  HN  UNL     1     -45.617 -54.196  14.840  1.00  0.00     0.194 HD
HETATM   12  C   UNL     1     -42.503 -54.947  15.229  1.00  0.00     0.081 A 
HETATM   13  C   UNL     1     -41.521 -55.554  16.150  1.00  0.00     0.079 C 
ENDBRANCH   5   6
ENDBRANCH   2   5
BRANCH   1  14
HETATM   14  C   UNL     1     -38.672 -51.924  14.674  1.00  0.00     0.109 C 
HETATM   15  C   UNL     1     -38.983 -51.415  16.082  1.00  0.00     0.035 C 
BRANCH  14  16
HETATM   16  C   UNL     1     -38.057 -50.836  13.764  1.00  0.00     0.143 C 
HETATM   17  C   UNL     1     -39.082 -49.879  13.160  1.00  0.00     0.036 C 
HETATM   18  C   UNL     1     -38.709 -49.765  11.699  1.00  0.00     0.029 C 
HETATM   19  C   UNL     1     -37.387 -50.486  11.582  1.00  0.00     0.168 C 
HETATM   20  O   UNL     1     -37.347 -51.427  12.659  1.00  0.00    -0.384 OA
ENDBRANCH  14  16
ENDBRANCH   1  14
TORSDOF 4
ENDMDL
