MODEL 1
REMARK VINA RESULT:      -7.1      0.000      0.000
REMARK  4 active torsions:
REMARK  status: ('A' for Active; 'I' for Inactive)
REMARK    1  A    between atoms: N_1  and  C_8 
REMARK    2  A    between atoms: N_2  and  C_7 
REMARK    3  A    between atoms: C_8  and  C_9 
REMARK       I    between atoms: C_9  and  N_11 
REMARK    4  A    between atoms: N_11  and  C_15 
ROOT
HETATM    1  N   UNL     1     -40.309 -50.791  12.273  1.00  0.00    -0.255 N 
HETATM    2  N   UNL     1     -39.906 -48.502  12.696  1.00  0.00    -0.279 N 
HETATM    3  C   UNL     1     -40.588 -49.469  11.965  1.00  0.00     0.334 C 
HETATM    4  C   UNL     1     -39.166 -51.187  12.959  1.00  0.00     0.292 C 
HETATM    5  C   UNL     1     -38.369 -50.082  13.536  1.00  0.00     0.200 C 
HETATM    6  C   UNL     1     -38.778 -48.818  13.420  1.00  0.00     0.146 C 
HETATM    7  O   UNL     1     -41.425 -49.177  11.109  1.00  0.00    -0.246 OA
HETATM    8  O   UNL     1     -38.793 -52.350  13.060  1.00  0.00    -0.264 OA
HETATM    9  F   UNL     1     -37.238 -50.410  14.187  1.00  0.00    -0.199 F 
ENDROOT
BRANCH   1  10
HETATM   10  C   UNL     1     -41.188 -51.797  11.691  1.00  0.00     0.240 C 
BRANCH  10  11
HETATM   11  C   UNL     1     -42.248 -52.213  12.727  1.00  0.00     0.240 C 
HETATM   12  N   UNL     1     -43.336 -51.346  12.794  1.00  0.00    -0.326 N 
HETATM   13  H   UNL     1     -43.199 -50.434  12.358  1.00  0.00     0.169 HD
HETATM   14  O   UNL     1     -42.043 -53.164  13.478  1.00  0.00    -0.271 OA
BRANCH  12  15
HETATM   15  C   UNL     1     -44.408 -51.427  13.719  1.00  0.00     0.035 A 
HETATM   16  C   UNL     1     -44.245 -51.184  15.084  1.00  0.00     0.037 A 
HETATM   17  C   UNL     1     -45.371 -51.092  15.891  1.00  0.00    -0.050 A 
HETATM   18  C   UNL     1     -46.649 -51.308  15.382  1.00  0.00    -0.052 A 
HETATM   19  C   UNL     1     -45.407 -50.739  17.343  1.00  0.00     0.039 C 
HETATM   20  C   UNL     1     -47.694 -51.099  16.431  1.00  0.00     0.039 C 
HETATM   21  C   UNL     1     -46.825 -51.661  14.055  1.00  0.00     0.010 A 
HETATM   22  C   UNL     1     -46.894 -50.435  17.565  1.00  0.00     0.009 C 
HETATM   23  C   UNL     1     -45.696 -51.712  13.221  1.00  0.00     0.030 A 
ENDBRANCH  12  15
ENDBRANCH  10  11
ENDBRANCH   1  10
BRANCH   2  24
HETATM   24  C   UNL     1     -40.403 -47.137  12.576  1.00  0.00     0.232 C 
HETATM   25  O   UNL     1     -39.838 -46.438  11.454  1.00  0.00    -0.366 OA
HETATM   26  C   UNL     1     -39.757 -45.041  11.797  1.00  0.00     0.170 C 
HETATM   27  C   UNL     1     -40.224 -44.887  13.229  1.00  0.00     0.031 C 
HETATM   28  C   UNL     1     -40.044 -46.273  13.781  1.00  0.00     0.056 C 
ENDBRANCH   2  24
TORSDOF 4
ENDMDL
MODEL 2
REMARK VINA RESULT:      -7.0      2.718      3.576
REMARK  4 active torsions:
REMARK  status: ('A' for Active; 'I' for Inactive)
REMARK    1  A    between atoms: N_1  and  C_8 
REMARK    2  A    between atoms: N_2  and  C_7 
REMARK    3  A    between atoms: C_8  and  C_9 
REMARK       I    between atoms: C_9  and  N_11 
REMARK    4  A    between atoms: N_11  and  C_15 
ROOT
HETATM    1  N   UNL     1     -40.171 -48.722  12.350  1.00  0.00    -0.255 N 
HETATM    2  N   UNL     1     -41.389 -47.270  10.940  1.00  0.00    -0.279 N 
HETATM    3  C   UNL     1     -40.902 -48.549  11.185  1.00  0.00     0.334 C 
HETATM    4  C   UNL     1     -39.596 -47.666  13.051  1.00  0.00     0.292 C 
HETATM    5  C   UNL     1     -40.002 -46.319  12.595  1.00  0.00     0.200 C 
HETATM    6  C   UNL     1     -40.890 -46.175  11.609  1.00  0.00     0.146 C 
HETATM    7  O   UNL     1     -41.131 -49.496  10.432  1.00  0.00    -0.246 OA
HETATM    8  O   UNL     1     -38.780 -47.804  13.954  1.00  0.00    -0.264 OA
HETATM    9  F   UNL     1     -39.454 -45.263  13.222  1.00  0.00    -0.199 F 
ENDROOT
BRANCH   1  10
HETATM   10  C   UNL     1     -39.869 -50.094  12.735  1.00  0.00     0.240 C 
BRANCH  10  11
HETATM   11  C   UNL     1     -41.086 -50.706  13.451  1.00  0.00     0.240 C 
HETATM   12  N   UNL     1     -42.071 -51.171  12.583  1.00  0.00    -0.326 N 
HETATM   13  H   UNL     1     -42.003 -50.838  11.621  1.00  0.00     0.169 HD
HETATM   14  O   UNL     1     -41.178 -50.653  14.676  1.00  0.00    -0.271 OA
BRANCH  12  15
HETATM   15  C   UNL     1     -43.335 -51.690  12.962  1.00  0.00     0.035 A 
HETATM   16  C   UNL     1     -43.623 -53.056  12.946  1.00  0.00     0.037 A 
HETATM   17  C   UNL     1     -44.810 -53.502  13.512  1.00  0.00    -0.050 A 
HETATM   18  C   UNL     1     -45.747 -52.610  14.028  1.00  0.00    -0.052 A 
HETATM   19  C   UNL     1     -45.245 -54.921  13.683  1.00  0.00     0.039 C 
HETATM   20  C   UNL     1     -46.911 -53.333  14.627  1.00  0.00     0.039 C 
HETATM   21  C   UNL     1     -45.533 -51.244  13.951  1.00  0.00     0.010 A 
HETATM   22  C   UNL     1     -46.409 -54.786  14.674  1.00  0.00     0.009 C 
HETATM   23  C   UNL     1     -44.315 -50.787  13.421  1.00  0.00     0.030 A 
ENDBRANCH  12  15
ENDBRANCH  10  11
ENDBRANCH   1  10
BRANCH   2  24
HETATM   24  C   UNL     1     -42.386 -47.154   9.883  1.00  0.00     0.232 C 
HETATM   25  O   UNL     1     -42.520 -45.808   9.394  1.00  0.00    -0.366 OA
HETATM   26  C   UNL     1     -43.887 -45.624   8.975  1.00  0.00     0.170 C 
HETATM   27  C   UNL     1     -44.646 -46.894   9.295  1.00  0.00     0.031 C 
HETATM   28  C   UNL     1     -43.788 -47.529  10.353  1.00  0.00     0.056 C 
ENDBRANCH   2  24
TORSDOF 4
ENDMDL
MODEL 3
REMARK VINA RESULT:      -6.9      3.720      7.470
REMARK  4 active torsions:
REMARK  status: ('A' for Active; 'I' for Inactive)
REMARK    1  A    between atoms: N_1  and  C_8 
REMARK    2  A    between atoms: N_2  and  C_7 
REMARK    3  A    between atoms: C_8  and  C_9 
REMARK       I    between atoms: C_9  and  N_11 
REMARK    4  A    between atoms: N_11  and  C_15 
ROOT
HETATM    1  N   UNL     1     -41.455 -53.611  13.061  1.00  0.00    -0.255 N 
HETATM    2  N   UNL     1     -40.653 -54.554  15.073  1.00  0.00    -0.279 N 
HETATM    3  C   UNL     1     -40.373 -54.050  13.808  1.00  0.00     0.334 C 
HETATM    4  C   UNL     1     -42.767 -53.985  13.331  1.00  0.00     0.292 C 
HETATM    5  C   UNL     1     -42.960 -54.708  14.607  1.00  0.00     0.200 C 
HETATM    6  C   UNL     1     -41.931 -54.925  15.427  1.00  0.00     0.146 C 
HETATM    7  O   UNL     1     -39.222 -53.961  13.375  1.00  0.00    -0.246 OA
HETATM    8  O   UNL     1     -43.708 -53.785  12.574  1.00  0.00    -0.264 OA
HETATM    9  F   UNL     1     -44.207 -55.117  14.904  1.00  0.00    -0.199 F 
ENDROOT
BRANCH   1  10
HETATM   10  C   UNL     1     -41.152 -52.864  11.848  1.00  0.00     0.240 C 
BRANCH  10  11
HETATM   11  C   UNL     1     -41.288 -51.356  12.126  1.00  0.00     0.240 C 
HETATM   12  N   UNL     1     -40.807 -50.551  11.097  1.00  0.00    -0.326 N 
HETATM   13  H   UNL     1     -40.209 -51.018  10.416  1.00  0.00     0.169 HD
HETATM   14  O   UNL     1     -41.682 -50.960  13.221  1.00  0.00    -0.271 OA
BRANCH  12  15
HETATM   15  C   UNL     1     -40.717 -49.136  11.121  1.00  0.00     0.035 A 
HETATM   16  C   UNL     1     -41.650 -48.311  10.492  1.00  0.00     0.037 A 
HETATM   17  C   UNL     1     -41.604 -46.942  10.722  1.00  0.00    -0.050 A 
HETATM   18  C   UNL     1     -40.605 -46.372  11.507  1.00  0.00    -0.052 A 
HETATM   19  C   UNL     1     -42.570 -45.916  10.226  1.00  0.00     0.039 C 
HETATM   20  C   UNL     1     -40.802 -44.896  11.649  1.00  0.00     0.039 C 
HETATM   21  C   UNL     1     -39.604 -47.160  12.050  1.00  0.00     0.010 A 
HETATM   22  C   UNL     1     -42.222 -44.698  11.092  1.00  0.00     0.009 C 
HETATM   23  C   UNL     1     -39.668 -48.549  11.859  1.00  0.00     0.030 A 
ENDBRANCH  12  15
ENDBRANCH  10  11
ENDBRANCH   1  10
BRANCH   2  24
HETATM   24  C   UNL     1     -39.510 -54.742  15.957  1.00  0.00     0.232 C 
HETATM   25  O   UNL     1     -39.001 -56.087  15.926  1.00  0.00    -0.366 OA
HETATM   26  C   UNL     1     -38.460 -56.387  17.227  1.00  0.00     0.170 C 
HETATM   27  C   UNL     1     -38.719 -55.194  18.124  1.00  0.00     0.031 C 
HETATM   28  C   UNL     1     -39.854 -54.501  17.424  1.00  0.00     0.056 C 
ENDBRANCH   2  24
TORSDOF 4
ENDMDL
MODEL 4
REMARK VINA RESULT:      -6.8      1.861      2.478
REMARK  4 active torsions:
REMARK  status: ('A' for Active; 'I' for Inactive)
REMARK    1  A    between atoms: N_1  and  C_8 
REMARK    2  A    between atoms: N_2  and  C_7 
REMARK    3  A    between atoms: C_8  and  C_9 
REMARK       I    between atoms: C_9  and  N_11 
REMARK    4  A    between atoms: N_11  and  C_15 
ROOT
HETATM    1  N   UNL     1     -39.064 -49.879  12.924  1.00  0.00    -0.255 N 
HETATM    2  N   UNL     1     -39.672 -47.635  12.506  1.00  0.00    -0.279 N 
HETATM    3  C   UNL     1     -39.675 -48.960  12.085  1.00  0.00     0.334 C 
HETATM    4  C   UNL     1     -38.156 -49.518  13.915  1.00  0.00     0.292 C 
HETATM    5  C   UNL     1     -38.052 -48.064  14.166  1.00  0.00     0.200 C 
HETATM    6  C   UNL     1     -38.821 -47.203  13.498  1.00  0.00     0.146 C 
HETATM    7  O   UNL     1     -40.221 -49.318  11.040  1.00  0.00    -0.246 OA
HETATM    8  O   UNL     1     -37.451 -50.313  14.523  1.00  0.00    -0.264 OA
HETATM    9  F   UNL     1     -37.169 -47.659  15.096  1.00  0.00    -0.199 F 
ENDROOT
BRANCH   1  10
HETATM   10  C   UNL     1     -39.273 -51.287  12.615  1.00  0.00     0.240 C 
BRANCH  10  11
HETATM   11  C   UNL     1     -40.558 -51.778  13.307  1.00  0.00     0.240 C 
HETATM   12  N   UNL     1     -41.670 -51.805  12.470  1.00  0.00    -0.326 N 
HETATM   13  H   UNL     1     -41.580 -51.277  11.601  1.00  0.00     0.169 HD
HETATM   14  O   UNL     1     -40.567 -51.998  14.516  1.00  0.00    -0.271 OA
BRANCH  12  15
HETATM   15  C   UNL     1     -42.997 -52.119  12.859  1.00  0.00     0.035 A 
HETATM   16  C   UNL     1     -43.477 -53.429  12.910  1.00  0.00     0.037 A 
HETATM   17  C   UNL     1     -44.718 -53.670  13.484  1.00  0.00    -0.050 A 
HETATM   18  C   UNL     1     -45.521 -52.629  13.942  1.00  0.00    -0.052 A 
HETATM   19  C   UNL     1     -45.352 -55.002  13.721  1.00  0.00     0.039 C 
HETATM   20  C   UNL     1     -46.779 -53.146  14.564  1.00  0.00     0.039 C 
HETATM   21  C   UNL     1     -45.112 -51.313  13.799  1.00  0.00     0.010 A 
HETATM   22  C   UNL     1     -46.489 -54.651  14.690  1.00  0.00     0.009 C 
HETATM   23  C   UNL     1     -43.840 -51.063  13.261  1.00  0.00     0.030 A 
ENDBRANCH  12  15
ENDBRANCH  10  11
ENDBRANCH   1  10
BRANCH   2  24
HETATM   24  C   UNL     1     -40.553 -46.729  11.781  1.00  0.00     0.232 C 
HETATM   25  O   UNL     1     -39.854 -45.946  10.797  1.00  0.00    -0.366 OA
HETATM   26  C   UNL     1     -40.526 -44.677  10.682  1.00  0.00     0.170 C 
HETATM   27  C   UNL     1     -41.646 -44.650  11.701  1.00  0.00     0.031 C 
HETATM   28  C   UNL     1     -41.213 -45.696  12.689  1.00  0.00     0.056 C 
ENDBRANCH   2  24
TORSDOF 4
ENDMDL
MODEL 5
REMARK VINA RESULT:      -6.6      7.140      9.043
REMARK  4 active torsions:
REMARK  status: ('A' for Active; 'I' for Inactive)
REMARK    1  A    between atoms: N_1  and  C_8 
REMARK    2  A    between atoms: N_2  and  C_7 
REMARK    3  A    between atoms: C_8  and  C_9 
REMARK       I    between atoms: C_9  and  N_11 
REMARK    4  A    between atoms: N_11  and  C_15 
ROOT
HETATM    1  N   UNL     1     -38.121 -57.127  18.695  1.00  0.00    -0.255 N 
HETATM    2  N   UNL     1     -35.854 -56.855  18.089  1.00  0.00    -0.279 N 
HETATM    3  C   UNL     1     -37.169 -56.417  17.980  1.00  0.00     0.334 C 
HETATM    4  C   UNL     1     -37.907 -58.415  19.175  1.00  0.00     0.292 C 
HETATM    5  C   UNL     1     -36.514 -58.898  19.066  1.00  0.00     0.200 C 
HETATM    6  C   UNL     1     -35.557 -58.107  18.577  1.00  0.00     0.146 C 
HETATM    7  O   UNL     1     -37.481 -55.428  17.313  1.00  0.00    -0.246 OA
HETATM    8  O   UNL     1     -38.790 -59.137  19.621  1.00  0.00    -0.264 OA
HETATM    9  F   UNL     1     -36.258 -60.148  19.492  1.00  0.00    -0.199 F 
ENDROOT
BRANCH   1  10
HETATM   10  C   UNL     1     -39.450 -56.535  18.782  1.00  0.00     0.240 C 
BRANCH  10  11
HETATM   11  C   UNL     1     -40.105 -56.539  17.389  1.00  0.00     0.240 C 
HETATM   12  N   UNL     1     -40.584 -55.293  16.991  1.00  0.00    -0.326 N 
HETATM   13  H   UNL     1     -40.678 -54.600  17.734  1.00  0.00     0.169 HD
HETATM   14  O   UNL     1     -40.270 -57.596  16.783  1.00  0.00    -0.271 OA
BRANCH  12  15
HETATM   15  C   UNL     1     -41.315 -55.023  15.807  1.00  0.00     0.035 A 
HETATM   16  C   UNL     1     -42.673 -55.320  15.676  1.00  0.00     0.037 A 
HETATM   17  C   UNL     1     -43.362 -54.851  14.565  1.00  0.00    -0.050 A 
HETATM   18  C   UNL     1     -42.712 -54.155  13.549  1.00  0.00    -0.052 A 
HETATM   19  C   UNL     1     -44.827 -54.977  14.299  1.00  0.00     0.039 C 
HETATM   20  C   UNL     1     -43.674 -53.711  12.494  1.00  0.00     0.039 C 
HETATM   21  C   UNL     1     -41.344 -53.946  13.605  1.00  0.00     0.010 A 
HETATM   22  C   UNL     1     -45.036 -53.972  13.159  1.00  0.00     0.009 C 
HETATM   23  C   UNL     1     -40.648 -54.378  14.745  1.00  0.00     0.030 A 
ENDBRANCH  12  15
ENDBRANCH  10  11
ENDBRANCH   1  10
BRANCH   2  24
HETATM   24  C   UNL     1     -34.832 -55.950  17.580  1.00  0.00     0.232 C 
HETATM   25  O   UNL     1     -33.854 -56.620  16.767  1.00  0.00    -0.366 OA
HETATM   26  C   UNL     1     -32.598 -55.933  16.927  1.00  0.00     0.170 C 
HETATM   27  C   UNL     1     -32.798 -54.832  17.947  1.00  0.00     0.031 C 
HETATM   28  C   UNL     1     -34.017 -55.297  18.693  1.00  0.00     0.056 C 
ENDBRANCH   2  24
TORSDOF 4
ENDMDL
MODEL 6
REMARK VINA RESULT:      -6.5      8.259     10.702
REMARK  4 active torsions:
REMARK  status: ('A' for Active; 'I' for Inactive)
REMARK    1  A    between atoms: N_1  and  C_8 
REMARK    2  A    between atoms: N_2  and  C_7 
REMARK    3  A    between atoms: C_8  and  C_9 
REMARK       I    between atoms: C_9  and  N_11 
REMARK    4  A    between atoms: N_11  and  C_15 
ROOT
HETATM    1  N   UNL     1     -36.443 -57.118  18.564  1.00  0.00    -0.255 N 
HETATM    2  N   UNL     1     -34.776 -58.791  18.508  1.00  0.00    -0.279 N 
HETATM    3  C   UNL     1     -35.979 -58.335  19.037  1.00  0.00     0.334 C 
HETATM    4  C   UNL     1     -35.629 -56.192  17.919  1.00  0.00     0.292 C 
HETATM    5  C   UNL     1     -34.279 -56.684  17.571  1.00  0.00     0.200 C 
HETATM    6  C   UNL     1     -33.925 -57.943  17.835  1.00  0.00     0.146 C 
HETATM    7  O   UNL     1     -36.626 -58.988  19.858  1.00  0.00    -0.246 OA
HETATM    8  O   UNL     1     -35.958 -55.037  17.680  1.00  0.00    -0.264 OA
HETATM    9  F   UNL     1     -33.441 -55.820  16.969  1.00  0.00    -0.199 F 
ENDROOT
BRANCH   1  10
HETATM   10  C   UNL     1     -37.806 -56.753  18.924  1.00  0.00     0.240 C 
BRANCH  10  11
HETATM   11  C   UNL     1     -38.692 -56.771  17.666  1.00  0.00     0.240 C 
HETATM   12  N   UNL     1     -38.956 -55.505  17.148  1.00  0.00    -0.326 N 
HETATM   13  H   UNL     1     -38.760 -54.724  17.774  1.00  0.00     0.169 HD
HETATM   14  O   UNL     1     -39.190 -57.824  17.272  1.00  0.00    -0.271 OA
BRANCH  12  15
HETATM   15  C   UNL     1     -39.817 -55.215  16.060  1.00  0.00     0.035 A 
HETATM   16  C   UNL     1     -41.205 -55.344  16.142  1.00  0.00     0.037 A 
HETATM   17  C   UNL     1     -41.990 -54.858  15.105  1.00  0.00    -0.050 A 
HETATM   18  C   UNL     1     -41.420 -54.312  13.958  1.00  0.00    -0.052 A 
HETATM   19  C   UNL     1     -43.483 -54.812  15.056  1.00  0.00     0.039 C 
HETATM   20  C   UNL     1     -42.469 -53.812  13.016  1.00  0.00     0.039 C 
HETATM   21  C   UNL     1     -40.044 -54.276  13.807  1.00  0.00     0.010 A 
HETATM   22  C   UNL     1     -43.739 -53.858  13.882  1.00  0.00     0.009 C 
HETATM   23  C   UNL     1     -39.243 -54.724  14.869  1.00  0.00     0.030 A 
ENDBRANCH  12  15
ENDBRANCH  10  11
ENDBRANCH   1  10
BRANCH   2  24
HETATM   24  C   UNL     1     -34.440 -60.182  18.783  1.00  0.00     0.232 C 
HETATM   25  O   UNL     1     -33.024 -60.393  18.920  1.00  0.00    -0.366 OA
HETATM   26  C   UNL     1     -32.728 -61.725  18.458  1.00  0.00     0.170 C 
HETATM   27  C   UNL     1     -34.014 -62.334  17.941  1.00  0.00     0.031 C 
HETATM   28  C   UNL     1     -34.856 -61.123  17.656  1.00  0.00     0.056 C 
ENDBRANCH   2  24
TORSDOF 4
ENDMDL
MODEL 7
REMARK VINA RESULT:      -6.4      2.096      2.774
REMARK  4 active torsions:
REMARK  status: ('A' for Active; 'I' for Inactive)
REMARK    1  A    between atoms: N_1  and  C_8 
REMARK    2  A    between atoms: N_2  and  C_7 
REMARK    3  A    between atoms: C_8  and  C_9 
REMARK       I    between atoms: C_9  and  N_11 
REMARK    4  A    between atoms: N_11  and  C_15 
ROOT
HETATM    1  N   UNL     1     -38.675 -50.324  13.602  1.00  0.00    -0.255 N 
HETATM    2  N   UNL     1     -39.590 -48.404  12.576  1.00  0.00    -0.279 N 
HETATM    3  C   UNL     1     -39.403 -49.781  12.555  1.00  0.00     0.334 C 
HETATM    4  C   UNL     1     -37.835 -49.571  14.416  1.00  0.00     0.292 C 
HETATM    5  C   UNL     1     -37.939 -48.107  14.234  1.00  0.00     0.200 C 
HETATM    6  C   UNL     1     -38.816 -47.590  13.372  1.00  0.00     0.146 C 
HETATM    7  O   UNL     1     -39.884 -50.498  11.676  1.00  0.00    -0.246 OA
HETATM    8  O   UNL     1     -37.030 -50.050  15.204  1.00  0.00    -0.264 OA
HETATM    9  F   UNL     1     -37.129 -47.332  14.978  1.00  0.00    -0.199 F 
ENDROOT
BRANCH   1  10
HETATM   10  C   UNL     1     -38.682 -51.776  13.720  1.00  0.00     0.240 C 
BRANCH  10  11
HETATM   11  C   UNL     1     -39.928 -52.222  14.506  1.00  0.00     0.240 C 
HETATM   12  N   UNL     1     -40.970 -52.670  13.698  1.00  0.00    -0.326 N 
HETATM   13  H   UNL     1     -40.898 -52.423  12.710  1.00  0.00     0.169 HD
HETATM   14  O   UNL     1     -39.984 -52.061  15.724  1.00  0.00    -0.271 OA
BRANCH  12  15
HETATM   15  C   UNL     1     -42.263 -53.047  14.141  1.00  0.00     0.035 A 
HETATM   16  C   UNL     1     -43.287 -52.121  14.350  1.00  0.00     0.037 A 
HETATM   17  C   UNL     1     -44.573 -52.582  14.595  1.00  0.00    -0.050 A 
HETATM   18  C   UNL     1     -44.847 -53.943  14.706  1.00  0.00    -0.052 A 
HETATM   19  C   UNL     1     -45.810 -51.756  14.741  1.00  0.00     0.039 C 
HETATM   20  C   UNL     1     -46.308 -54.187  14.916  1.00  0.00     0.039 C 
HETATM   21  C   UNL     1     -43.826 -54.874  14.613  1.00  0.00     0.010 A 
HETATM   22  C   UNL     1     -46.919 -52.809  14.615  1.00  0.00     0.009 C 
HETATM   23  C   UNL     1     -42.531 -54.419  14.322  1.00  0.00     0.030 A 
ENDBRANCH  12  15
ENDBRANCH  10  11
ENDBRANCH   1  10
BRANCH   2  24
HETATM   24  C   UNL     1     -40.584 -47.877  11.649  1.00  0.00     0.232 C 
HETATM   25  O   UNL     1     -40.128 -46.701  10.958  1.00  0.00    -0.366 OA
HETATM   26  C   UNL     1     -41.276 -45.872  10.691  1.00  0.00     0.170 C 
HETATM   27  C   UNL     1     -42.485 -46.536  11.316  1.00  0.00     0.031 C 
HETATM   28  C   UNL     1     -41.865 -47.433  12.350  1.00  0.00     0.056 C 
ENDBRANCH   2  24
TORSDOF 4
ENDMDL
MODEL 8
REMARK VINA RESULT:      -6.4      2.789      4.105
REMARK  4 active torsions:
REMARK  status: ('A' for Active; 'I' for Inactive)
REMARK    1  A    between atoms: N_1  and  C_8 
REMARK    2  A    between atoms: N_2  and  C_7 
REMARK    3  A    between atoms: C_8  and  C_9 
REMARK       I    between atoms: C_9  and  N_11 
REMARK    4  A    between atoms: N_11  and  C_15 
ROOT
HETATM    1  N   UNL     1     -38.644 -48.532  13.294  1.00  0.00    -0.255 N 
HETATM    2  N   UNL     1     -40.218 -47.375  11.965  1.00  0.00    -0.279 N 
HETATM    3  C   UNL     1     -39.427 -48.503  12.150  1.00  0.00     0.334 C 
HETATM    4  C   UNL     1     -38.326 -47.392  14.026  1.00  0.00     0.292 C 
HETATM    5  C   UNL     1     -39.061 -46.171  13.632  1.00  0.00     0.200 C 
HETATM    6  C   UNL     1     -39.984 -46.215  12.669  1.00  0.00     0.146 C 
HETATM    7  O   UNL     1     -39.438 -49.451  11.362  1.00  0.00    -0.246 OA
HETATM    8  O   UNL     1     -37.477 -47.357  14.908  1.00  0.00    -0.264 OA
HETATM    9  F   UNL     1     -38.771 -45.035  14.291  1.00  0.00    -0.199 F 
ENDROOT
BRANCH   1  10
HETATM   10  C   UNL     1     -38.006 -49.800  13.617  1.00  0.00     0.240 C 
BRANCH  10  11
HETATM   11  C   UNL     1     -39.020 -50.721  14.318  1.00  0.00     0.240 C 
HETATM   12  N   UNL     1     -39.844 -51.420  13.440  1.00  0.00    -0.326 N 
HETATM   13  H   UNL     1     -39.863 -51.068  12.482  1.00  0.00     0.169 HD
HETATM   14  O   UNL     1     -39.126 -50.710  15.543  1.00  0.00    -0.271 OA
BRANCH  12  15
HETATM   15  C   UNL     1     -40.927 -52.259  13.804  1.00  0.00     0.035 A 
HETATM   16  C   UNL     1     -42.252 -51.962  13.483  1.00  0.00     0.037 A 
HETATM   17  C   UNL     1     -43.231 -52.922  13.702  1.00  0.00    -0.050 A 
HETATM   18  C   UNL     1     -42.929 -54.143  14.299  1.00  0.00    -0.052 A 
HETATM   19  C   UNL     1     -44.676 -52.830  13.332  1.00  0.00     0.039 C 
HETATM   20  C   UNL     1     -44.135 -55.024  14.375  1.00  0.00     0.039 C 
HETATM   21  C   UNL     1     -41.640 -54.415  14.728  1.00  0.00     0.010 A 
HETATM   22  C   UNL     1     -45.139 -54.287  13.472  1.00  0.00     0.009 C 
HETATM   23  C   UNL     1     -40.636 -53.468  14.470  1.00  0.00     0.030 A 
ENDBRANCH  12  15
ENDBRANCH  10  11
ENDBRANCH   1  10
BRANCH   2  24
HETATM   24  C   UNL     1     -41.241 -47.470  10.932  1.00  0.00     0.232 C 
HETATM   25  O   UNL     1     -41.495 -46.211  10.285  1.00  0.00    -0.366 OA
HETATM   26  C   UNL     1     -42.879 -46.187   9.887  1.00  0.00     0.170 C 
HETATM   27  C   UNL     1     -43.526 -47.464  10.382  1.00  0.00     0.031 C 
HETATM   28  C   UNL     1     -42.599 -47.892  11.485  1.00  0.00     0.056 C 
ENDBRANCH   2  24
TORSDOF 4
ENDMDL
MODEL 9
REMARK VINA RESULT:      -6.3      2.506      3.665
REMARK  4 active torsions:
REMARK  status: ('A' for Active; 'I' for Inactive)
REMARK    1  A    between atoms: N_1  and  C_8 
REMARK    2  A    between atoms: N_2  and  C_7 
REMARK    3  A    between atoms: C_8  and  C_9 
REMARK       I    between atoms: C_9  and  N_11 
REMARK    4  A    between atoms: N_11  and  C_15 
ROOT
HETATM    1  N   UNL     1     -41.482 -53.898  14.147  1.00  0.00    -0.255 N 
HETATM    2  N   UNL     1     -39.869 -52.311  13.471  1.00  0.00    -0.279 N 
HETATM    3  C   UNL     1     -41.043 -52.999  13.188  1.00  0.00     0.334 C 
HETATM    4  C   UNL     1     -40.657 -54.412  15.142  1.00  0.00     0.292 C 
HETATM    5  C   UNL     1     -39.331 -53.765  15.249  1.00  0.00     0.200 C 
HETATM    6  C   UNL     1     -39.010 -52.740  14.457  1.00  0.00     0.146 C 
HETATM    7  O   UNL     1     -41.689 -52.803  12.156  1.00  0.00    -0.246 OA
HETATM    8  O   UNL     1     -40.956 -55.354  15.865  1.00  0.00    -0.264 OA
HETATM    9  F   UNL     1     -38.484 -54.242  16.179  1.00  0.00    -0.199 F 
ENDROOT
BRANCH   1  10
HETATM   10  C   UNL     1     -42.824 -54.437  13.972  1.00  0.00     0.240 C 
BRANCH  10  11
HETATM   11  C   UNL     1     -43.773 -53.794  15.000  1.00  0.00     0.240 C 
HETATM   12  N   UNL     1     -44.014 -52.442  14.772  1.00  0.00    -0.326 N 
HETATM   13  H   UNL     1     -43.364 -51.981  14.133  1.00  0.00     0.169 HD
HETATM   14  O   UNL     1     -44.155 -54.435  15.978  1.00  0.00    -0.271 OA
BRANCH  12  15
HETATM   15  C   UNL     1     -44.764 -51.578  15.608  1.00  0.00     0.035 A 
HETATM   16  C   UNL     1     -46.147 -51.692  15.761  1.00  0.00     0.037 A 
HETATM   17  C   UNL     1     -46.782 -50.940  16.740  1.00  0.00    -0.050 A 
HETATM   18  C   UNL     1     -46.080 -50.025  17.521  1.00  0.00    -0.052 A 
HETATM   19  C   UNL     1     -48.225 -50.999  17.122  1.00  0.00     0.039 C 
HETATM   20  C   UNL     1     -46.970 -49.382  18.536  1.00  0.00     0.039 C 
HETATM   21  C   UNL     1     -44.728 -49.814  17.310  1.00  0.00     0.010 A 
HETATM   22  C   UNL     1     -48.237 -50.251  18.462  1.00  0.00     0.009 C 
HETATM   23  C   UNL     1     -44.070 -50.603  16.352  1.00  0.00     0.030 A 
ENDBRANCH  12  15
ENDBRANCH  10  11
ENDBRANCH   1  10
BRANCH   2  24
HETATM   24  C   UNL     1     -39.568 -51.174  12.611  1.00  0.00     0.232 C 
HETATM   25  O   UNL     1     -38.207 -51.176  12.145  1.00  0.00    -0.366 OA
HETATM   26  C   UNL     1     -37.793 -49.806  11.979  1.00  0.00     0.170 C 
HETATM   27  C   UNL     1     -38.930 -48.918  12.439  1.00  0.00     0.031 C 
HETATM   28  C   UNL     1     -39.720 -49.836  13.329  1.00  0.00     0.056 C 
ENDBRANCH   2  24
TORSDOF 4
ENDMDL
