MODEL 1
REMARK VINA RESULT:      -7.5      0.000      0.000
REMARK  5 active torsions:
REMARK  status: ('A' for Active; 'I' for Inactive)
REMARK    1  A    between atoms: C_8  and  N_9 
REMARK       I    between atoms: N_9  and  C_10 
REMARK       I    between atoms: C_10  and  N_12 
REMARK    2  A    between atoms: N_12  and  C_13 
REMARK    3  A    between atoms: C_13  and  C_14 
REMARK    4  A    between atoms: N_17  and  C_18 
REMARK    5  A    between atoms: C_18  and  C_19 
ROOT
HETATM    1  N   UNL     1     -43.035 -52.974  12.705  1.00  0.00    -0.295 N 
HETATM    2  C   UNL     1     -41.960 -52.288  12.216  1.00  0.00     0.321 C 
HETATM    3  O   UNL     1     -40.909 -52.878  11.983  1.00  0.00    -0.247 OA
HETATM    4  N   UNL     1     -42.113 -50.945  12.073  1.00  0.00    -0.342 N 
HETATM    5  H   UNL     1     -42.834 -53.945  12.892  1.00  0.00     0.172 HD
HETATM    6  H   UNL     1     -43.060 -50.600  12.212  1.00  0.00     0.164 HD
ENDROOT
BRANCH   1   7
HETATM    7  C   UNL     1     -44.294 -52.472  13.047  1.00  0.00     0.109 A 
HETATM    8  N   UNL     1     -45.235 -52.339  12.085  1.00  0.00    -0.346 N 
HETATM    9  C   UNL     1     -46.438 -51.829  12.425  1.00  0.00     0.007 A 
ATOM     10  HN  UNL     1     -45.040 -52.617  11.123  1.00  0.00     0.167 HD
HETATM   11  C   UNL     1     -46.732 -51.405  13.712  1.00  0.00     0.031 A 
HETATM   12  C   UNL     1     -47.445 -51.741  11.318  1.00  0.00     0.068 C 
HETATM   13  C   UNL     1     -45.755 -51.532  14.703  1.00  0.00    -0.057 A 
HETATM   14  C   UNL     1     -46.006 -51.045  16.098  1.00  0.00     0.048 C 
HETATM   15  C   UNL     1     -44.522 -52.098  14.364  1.00  0.00     0.055 A 
ENDBRANCH   1   7
BRANCH   4  16
HETATM   16  C   UNL     1     -41.057 -50.023  11.754  1.00  0.00     0.130 C 
BRANCH  16  17
HETATM   17  C   UNL     1     -41.514 -48.760  11.036  1.00  0.00     0.033 C 
HETATM   18  C   UNL     1     -40.645 -47.529  11.267  1.00  0.00     0.038 C 
HETATM   19  C   UNL     1     -41.599 -46.345  11.114  1.00  0.00     0.273 C 
HETATM   20  N   UNL     1     -42.947 -46.886  10.865  1.00  0.00     0.097 N 
HETATM   21  C   UNL     1     -42.908 -48.265  11.396  1.00  0.00     0.279 C 
BRANCH  20  22
HETATM   22  C   UNL     1     -43.323 -46.864   9.427  1.00  0.00     0.389 C 
BRANCH  22  23
HETATM   23  C   UNL     1     -44.781 -47.199   9.028  1.00  0.00     0.413 C 
HETATM   24  F   UNL     1     -45.468 -47.848   9.992  1.00  0.00    -0.169 F 
HETATM   25  F   UNL     1     -45.463 -46.061   8.746  1.00  0.00    -0.169 F 
HETATM   26  F   UNL     1     -44.815 -47.969   7.915  1.00  0.00    -0.169 F 
ENDBRANCH  22  23
ENDBRANCH  20  22
ENDBRANCH  16  17
ENDBRANCH   4  16
TORSDOF 5
ENDMDL
MODEL 2
REMARK VINA RESULT:      -7.0      2.485      5.970
REMARK  5 active torsions:
REMARK  status: ('A' for Active; 'I' for Inactive)
REMARK    1  A    between atoms: C_8  and  N_9 
REMARK       I    between atoms: N_9  and  C_10 
REMARK       I    between atoms: C_10  and  N_12 
REMARK    2  A    between atoms: N_12  and  C_13 
REMARK    3  A    between atoms: C_13  and  C_14 
REMARK    4  A    between atoms: N_17  and  C_18 
REMARK    5  A    between atoms: C_18  and  C_19 
ROOT
HETATM    1  N   UNL     1     -39.942 -49.359  11.335  1.00  0.00    -0.295 N 
HETATM    2  C   UNL     1     -39.906 -50.652  11.773  1.00  0.00     0.321 C 
HETATM    3  O   UNL     1     -38.833 -51.242  11.860  1.00  0.00    -0.247 OA
HETATM    4  N   UNL     1     -41.105 -51.236  12.035  1.00  0.00    -0.342 N 
HETATM    5  H   UNL     1     -39.037 -49.011  11.054  1.00  0.00     0.172 HD
HETATM    6  H   UNL     1     -41.906 -50.609  12.012  1.00  0.00     0.164 HD
ENDROOT
BRANCH   1   7
HETATM    7  C   UNL     1     -41.061 -48.543  11.152  1.00  0.00     0.109 A 
HETATM    8  N   UNL     1     -41.644 -48.487   9.932  1.00  0.00    -0.346 N 
HETATM    9  C   UNL     1     -42.710 -47.675   9.762  1.00  0.00     0.007 A 
ATOM     10  HN  UNL     1     -41.287 -49.046   9.158  1.00  0.00     0.167 HD
HETATM   11  C   UNL     1     -43.204 -46.871  10.779  1.00  0.00     0.031 A 
HETATM   12  C   UNL     1     -43.328 -47.688   8.397  1.00  0.00     0.068 C 
HETATM   13  C   UNL     1     -42.594 -46.920  12.034  1.00  0.00    -0.057 A 
HETATM   14  C   UNL     1     -43.060 -46.037  13.152  1.00  0.00     0.048 C 
HETATM   15  C   UNL     1     -41.517 -47.791  12.226  1.00  0.00     0.055 A 
ENDBRANCH   1   7
BRANCH   4  16
HETATM   16  C   UNL     1     -41.298 -52.631  12.325  1.00  0.00     0.130 C 
BRANCH  16  17
HETATM   17  C   UNL     1     -42.527 -52.937  13.172  1.00  0.00     0.033 C 
HETATM   18  C   UNL     1     -42.408 -54.161  14.074  1.00  0.00     0.038 C 
HETATM   19  C   UNL     1     -43.839 -54.675  14.223  1.00  0.00     0.273 C 
HETATM   20  N   UNL     1     -44.710 -53.818  13.401  1.00  0.00     0.097 N 
HETATM   21  C   UNL     1     -43.810 -53.208  12.398  1.00  0.00     0.279 C 
BRANCH  20  22
HETATM   22  C   UNL     1     -45.422 -52.783  14.198  1.00  0.00     0.389 C 
BRANCH  22  23
HETATM   23  C   UNL     1     -46.227 -51.689  13.455  1.00  0.00     0.413 C 
HETATM   24  F   UNL     1     -45.461 -50.688  12.971  1.00  0.00    -0.169 F 
HETATM   25  F   UNL     1     -46.892 -52.230  12.404  1.00  0.00    -0.169 F 
HETATM   26  F   UNL     1     -47.156 -51.133  14.269  1.00  0.00    -0.169 F 
ENDBRANCH  22  23
ENDBRANCH  20  22
ENDBRANCH  16  17
ENDBRANCH   4  16
TORSDOF 5
ENDMDL
MODEL 3
REMARK VINA RESULT:      -6.8      2.423      2.913
REMARK  5 active torsions:
REMARK  status: ('A' for Active; 'I' for Inactive)
REMARK    1  A    between atoms: C_8  and  N_9 
REMARK       I    between atoms: N_9  and  C_10 
REMARK       I    between atoms: C_10  and  N_12 
REMARK    2  A    between atoms: N_12  and  C_13 
REMARK    3  A    between atoms: C_13  and  C_14 
REMARK    4  A    between atoms: N_17  and  C_18 
REMARK    5  A    between atoms: C_18  and  C_19 
ROOT
HETATM    1  N   UNL     1     -43.138 -53.105  12.783  1.00  0.00    -0.295 N 
HETATM    2  C   UNL     1     -42.040 -52.456  12.295  1.00  0.00     0.321 C 
HETATM    3  O   UNL     1     -40.990 -53.069  12.122  1.00  0.00    -0.247 OA
HETATM    4  N   UNL     1     -42.170 -51.120  12.082  1.00  0.00    -0.342 N 
HETATM    5  H   UNL     1     -42.955 -54.068  13.023  1.00  0.00     0.172 HD
HETATM    6  H   UNL     1     -43.117 -50.758  12.176  1.00  0.00     0.164 HD
ENDROOT
BRANCH   1   7
HETATM    7  C   UNL     1     -44.399 -52.573  13.062  1.00  0.00     0.109 A 
HETATM    8  N   UNL     1     -45.285 -52.409  12.053  1.00  0.00    -0.346 N 
HETATM    9  C   UNL     1     -46.491 -51.870  12.332  1.00  0.00     0.007 A 
ATOM     10  HN  UNL     1     -45.046 -52.687  11.100  1.00  0.00     0.167 HD
HETATM   11  C   UNL     1     -46.841 -51.446  13.605  1.00  0.00     0.031 A 
HETATM   12  C   UNL     1     -47.434 -51.750  11.174  1.00  0.00     0.068 C 
HETATM   13  C   UNL     1     -45.922 -51.604  14.645  1.00  0.00    -0.057 A 
HETATM   14  C   UNL     1     -46.233 -51.120  16.029  1.00  0.00     0.048 C 
HETATM   15  C   UNL     1     -44.687 -52.201  14.368  1.00  0.00     0.055 A 
ENDBRANCH   1   7
BRANCH   4  16
HETATM   16  C   UNL     1     -41.093 -50.227  11.752  1.00  0.00     0.130 C 
BRANCH  16  17
HETATM   17  C   UNL     1     -41.444 -48.748  11.851  1.00  0.00     0.033 C 
HETATM   18  C   UNL     1     -42.925 -48.442  12.046  1.00  0.00     0.038 C 
HETATM   19  C   UNL     1     -43.125 -47.067  11.412  1.00  0.00     0.273 C 
HETATM   20  N   UNL     1     -41.834 -46.646  10.840  1.00  0.00     0.097 N 
HETATM   21  C   UNL     1     -41.078 -47.901  10.640  1.00  0.00     0.279 C 
BRANCH  20  22
HETATM   22  C   UNL     1     -41.095 -45.696  11.714  1.00  0.00     0.389 C 
BRANCH  22  23
HETATM   23  C   UNL     1     -40.101 -44.701  11.068  1.00  0.00     0.413 C 
HETATM   24  F   UNL     1     -40.648 -43.500  10.782  1.00  0.00    -0.169 F 
HETATM   25  F   UNL     1     -39.054 -44.477  11.901  1.00  0.00    -0.169 F 
HETATM   26  F   UNL     1     -39.592 -45.201   9.916  1.00  0.00    -0.169 F 
ENDBRANCH  22  23
ENDBRANCH  20  22
ENDBRANCH  16  17
ENDBRANCH   4  16
TORSDOF 5
ENDMDL
MODEL 4
REMARK VINA RESULT:      -6.8      2.756      6.226
REMARK  5 active torsions:
REMARK  status: ('A' for Active; 'I' for Inactive)
REMARK    1  A    between atoms: C_8  and  N_9 
REMARK       I    between atoms: N_9  and  C_10 
REMARK       I    between atoms: C_10  and  N_12 
REMARK    2  A    between atoms: N_12  and  C_13 
REMARK    3  A    between atoms: C_13  and  C_14 
REMARK    4  A    between atoms: N_17  and  C_18 
REMARK    5  A    between atoms: C_18  and  C_19 
ROOT
HETATM    1  N   UNL     1     -40.520 -49.787  10.854  1.00  0.00    -0.295 N 
HETATM    2  C   UNL     1     -40.445 -50.639  11.919  1.00  0.00     0.321 C 
HETATM    3  O   UNL     1     -39.814 -51.688  11.823  1.00  0.00    -0.247 OA
HETATM    4  N   UNL     1     -41.145 -50.284  13.029  1.00  0.00    -0.342 N 
HETATM    5  H   UNL     1     -40.073 -50.149  10.025  1.00  0.00     0.172 HD
HETATM    6  H   UNL     1     -41.546 -49.349  13.007  1.00  0.00     0.164 HD
ENDROOT
BRANCH   1   7
HETATM    7  C   UNL     1     -41.204 -48.571  10.770  1.00  0.00     0.109 A 
HETATM    8  N   UNL     1     -42.485 -48.563  10.336  1.00  0.00    -0.346 N 
HETATM    9  C   UNL     1     -43.127 -47.379  10.236  1.00  0.00     0.007 A 
ATOM     10  HN  UNL     1     -42.957 -49.433  10.089  1.00  0.00     0.167 HD
HETATM   11  C   UNL     1     -42.511 -46.171  10.527  1.00  0.00     0.031 A 
HETATM   12  C   UNL     1     -44.553 -47.447   9.782  1.00  0.00     0.068 C 
HETATM   13  C   UNL     1     -41.184 -46.179  10.964  1.00  0.00    -0.057 A 
HETATM   14  C   UNL     1     -40.458 -44.898  11.246  1.00  0.00     0.048 C 
HETATM   15  C   UNL     1     -40.530 -47.406  11.109  1.00  0.00     0.055 A 
ENDBRANCH   1   7
BRANCH   4  16
HETATM   16  C   UNL     1     -41.348 -51.122  14.179  1.00  0.00     0.130 C 
BRANCH  16  17
HETATM   17  C   UNL     1     -42.606 -51.979  14.125  1.00  0.00     0.033 C 
HETATM   18  C   UNL     1     -42.455 -53.314  13.403  1.00  0.00     0.038 C 
HETATM   19  C   UNL     1     -43.846 -53.617  12.850  1.00  0.00     0.273 C 
HETATM   20  N   UNL     1     -44.722 -52.484  13.196  1.00  0.00     0.097 N 
HETATM   21  C   UNL     1     -43.804 -51.348  13.427  1.00  0.00     0.279 C 
BRANCH  20  22
HETATM   22  C   UNL     1     -45.571 -52.751  14.387  1.00  0.00     0.389 C 
BRANCH  22  23
HETATM   23  C   UNL     1     -46.642 -51.709  14.793  1.00  0.00     0.413 C 
HETATM   24  F   UNL     1     -46.174 -50.746  15.616  1.00  0.00    -0.169 F 
HETATM   25  F   UNL     1     -47.134 -51.090  13.691  1.00  0.00    -0.169 F 
HETATM   26  F   UNL     1     -47.687 -52.303  15.416  1.00  0.00    -0.169 F 
ENDBRANCH  22  23
ENDBRANCH  20  22
ENDBRANCH  16  17
ENDBRANCH   4  16
TORSDOF 5
ENDMDL
MODEL 5
REMARK VINA RESULT:      -6.7      1.370      2.432
REMARK  5 active torsions:
REMARK  status: ('A' for Active; 'I' for Inactive)
REMARK    1  A    between atoms: C_8  and  N_9 
REMARK       I    between atoms: N_9  and  C_10 
REMARK       I    between atoms: C_10  and  N_12 
REMARK    2  A    between atoms: N_12  and  C_13 
REMARK    3  A    between atoms: C_13  and  C_14 
REMARK    4  A    between atoms: N_17  and  C_18 
REMARK    5  A    between atoms: C_18  and  C_19 
ROOT
HETATM    1  N   UNL     1     -43.413 -53.829  13.620  1.00  0.00    -0.295 N 
HETATM    2  C   UNL     1     -42.177 -53.543  13.115  1.00  0.00     0.321 C 
HETATM    3  O   UNL     1     -41.291 -54.394  13.140  1.00  0.00    -0.247 OA
HETATM    4  N   UNL     1     -41.987 -52.278  12.657  1.00  0.00    -0.342 N 
HETATM    5  H   UNL     1     -43.467 -54.744  14.042  1.00  0.00     0.172 HD
HETATM    6  H   UNL     1     -42.826 -51.705  12.608  1.00  0.00     0.164 HD
ENDROOT
BRANCH   1   7
HETATM    7  C   UNL     1     -44.526 -52.988  13.697  1.00  0.00     0.109 A 
HETATM    8  N   UNL     1     -44.887 -52.480  14.898  1.00  0.00    -0.346 N 
HETATM    9  C   UNL     1     -45.980 -51.690  14.963  1.00  0.00     0.007 A 
ATOM     10  HN  UNL     1     -44.345 -52.690  15.737  1.00  0.00     0.167 HD
HETATM   11  C   UNL     1     -46.764 -51.409  13.854  1.00  0.00     0.031 A 
HETATM   12  C   UNL     1     -46.301 -51.133  16.317  1.00  0.00     0.068 C 
HETATM   13  C   UNL     1     -46.399 -51.944  12.617  1.00  0.00    -0.057 A 
HETATM   14  C   UNL     1     -47.239 -51.711  11.398  1.00  0.00     0.048 C 
HETATM   15  C   UNL     1     -45.244 -52.729  12.538  1.00  0.00     0.055 A 
ENDBRANCH   1   7
BRANCH   4  16
HETATM   16  C   UNL     1     -40.720 -51.725  12.261  1.00  0.00     0.130 C 
BRANCH  16  17
HETATM   17  C   UNL     1     -40.808 -50.362  11.586  1.00  0.00     0.033 C 
HETATM   18  C   UNL     1     -39.624 -49.434  11.835  1.00  0.00     0.038 C 
HETATM   19  C   UNL     1     -40.205 -48.025  11.731  1.00  0.00     0.273 C 
HETATM   20  N   UNL     1     -41.653 -48.155  11.492  1.00  0.00     0.097 N 
HETATM   21  C   UNL     1     -42.002 -49.504  11.985  1.00  0.00     0.279 C 
BRANCH  20  22
HETATM   22  C   UNL     1     -42.021 -47.983  10.062  1.00  0.00     0.389 C 
BRANCH  22  23
HETATM   23  C   UNL     1     -43.416 -47.411   9.711  1.00  0.00     0.413 C 
HETATM   24  F   UNL     1     -43.425 -46.070   9.546  1.00  0.00    -0.169 F 
HETATM   25  F   UNL     1     -43.871 -47.960   8.556  1.00  0.00    -0.169 F 
HETATM   26  F   UNL     1     -44.320 -47.708  10.675  1.00  0.00    -0.169 F 
ENDBRANCH  22  23
ENDBRANCH  20  22
ENDBRANCH  16  17
ENDBRANCH   4  16
TORSDOF 5
ENDMDL
MODEL 6
REMARK VINA RESULT:      -6.4      4.545      5.427
REMARK  5 active torsions:
REMARK  status: ('A' for Active; 'I' for Inactive)
REMARK    1  A    between atoms: C_8  and  N_9 
REMARK       I    between atoms: N_9  and  C_10 
REMARK       I    between atoms: C_10  and  N_12 
REMARK    2  A    between atoms: N_12  and  C_13 
REMARK    3  A    between atoms: C_13  and  C_14 
REMARK    4  A    between atoms: N_17  and  C_18 
REMARK    5  A    between atoms: C_18  and  C_19 
ROOT
HETATM    1  N   UNL     1     -42.835 -53.075  12.672  1.00  0.00    -0.295 N 
HETATM    2  C   UNL     1     -41.772 -52.422  12.115  1.00  0.00     0.321 C 
HETATM    3  O   UNL     1     -40.731 -53.031  11.885  1.00  0.00    -0.247 OA
HETATM    4  N   UNL     1     -41.924 -51.089  11.901  1.00  0.00    -0.342 N 
HETATM    5  H   UNL     1     -42.632 -54.035  12.908  1.00  0.00     0.172 HD
HETATM    6  H   UNL     1     -42.865 -50.732  12.049  1.00  0.00     0.164 HD
ENDROOT
BRANCH   1   7
HETATM    7  C   UNL     1     -44.081 -52.547  13.023  1.00  0.00     0.109 A 
HETATM    8  N   UNL     1     -45.046 -52.452  12.080  1.00  0.00    -0.346 N 
HETATM    9  C   UNL     1     -46.237 -51.917  12.425  1.00  0.00     0.007 A 
ATOM     10  HN  UNL     1     -44.878 -52.777  11.127  1.00  0.00     0.167 HD
HETATM   11  C   UNL     1     -46.494 -51.431  13.698  1.00  0.00     0.031 A 
HETATM   12  C   UNL     1     -47.271 -51.874  11.341  1.00  0.00     0.068 C 
HETATM   13  C   UNL     1     -45.494 -51.518  14.668  1.00  0.00    -0.057 A 
HETATM   14  C   UNL     1     -45.705 -50.965  16.045  1.00  0.00     0.048 C 
HETATM   15  C   UNL     1     -44.273 -52.110  14.326  1.00  0.00     0.055 A 
ENDBRANCH   1   7
BRANCH   4  16
HETATM   16  C   UNL     1     -40.873 -50.193  11.501  1.00  0.00     0.130 C 
BRANCH  16  17
HETATM   17  C   UNL     1     -40.010 -49.679  12.647  1.00  0.00     0.033 C 
HETATM   18  C   UNL     1     -40.228 -48.217  13.022  1.00  0.00     0.038 C 
HETATM   19  C   UNL     1     -38.884 -47.755  13.584  1.00  0.00     0.273 C 
HETATM   20  N   UNL     1     -37.943 -48.884  13.480  1.00  0.00     0.097 N 
HETATM   21  C   UNL     1     -38.505 -49.752  12.422  1.00  0.00     0.279 C 
BRANCH  20  22
HETATM   22  C   UNL     1     -37.778 -49.620  14.761  1.00  0.00     0.389 C 
BRANCH  22  23
HETATM   23  C   UNL     1     -36.668 -49.173  15.743  1.00  0.00     0.413 C 
HETATM   24  F   UNL     1     -35.623 -50.027  15.804  1.00  0.00    -0.169 F 
HETATM   25  F   UNL     1     -36.175 -47.964  15.374  1.00  0.00    -0.169 F 
HETATM   26  F   UNL     1     -37.156 -49.037  16.999  1.00  0.00    -0.169 F 
ENDBRANCH  22  23
ENDBRANCH  20  22
ENDBRANCH  16  17
ENDBRANCH   4  16
TORSDOF 5
ENDMDL
MODEL 7
REMARK VINA RESULT:      -6.1      3.624      6.759
REMARK  5 active torsions:
REMARK  status: ('A' for Active; 'I' for Inactive)
REMARK    1  A    between atoms: C_8  and  N_9 
REMARK       I    between atoms: N_9  and  C_10 
REMARK       I    between atoms: C_10  and  N_12 
REMARK    2  A    between atoms: N_12  and  C_13 
REMARK    3  A    between atoms: C_13  and  C_14 
REMARK    4  A    between atoms: N_17  and  C_18 
REMARK    5  A    between atoms: C_18  and  C_19 
ROOT
HETATM    1  N   UNL     1     -40.605 -49.771  10.927  1.00  0.00    -0.295 N 
HETATM    2  C   UNL     1     -40.408 -50.440  12.102  1.00  0.00     0.321 C 
HETATM    3  O   UNL     1     -39.854 -51.536  12.099  1.00  0.00    -0.247 OA
HETATM    4  N   UNL     1     -40.905 -49.855  13.223  1.00  0.00    -0.342 N 
HETATM    5  H   UNL     1     -40.313 -50.298  10.117  1.00  0.00     0.172 HD
HETATM    6  H   UNL     1     -41.256 -48.908  13.097  1.00  0.00     0.164 HD
ENDROOT
BRANCH   1   7
HETATM    7  C   UNL     1     -41.230 -48.537  10.734  1.00  0.00     0.109 A 
HETATM    8  N   UNL     1     -42.518 -48.506  10.322  1.00  0.00    -0.346 N 
HETATM    9  C   UNL     1     -43.103 -47.307  10.115  1.00  0.00     0.007 A 
ATOM     10  HN  UNL     1     -43.037 -49.372  10.170  1.00  0.00     0.167 HD
HETATM   11  C   UNL     1     -42.423 -46.109  10.274  1.00  0.00     0.031 A 
HETATM   12  C   UNL     1     -44.541 -47.347   9.693  1.00  0.00     0.068 C 
HETATM   13  C   UNL     1     -41.089 -46.141  10.688  1.00  0.00    -0.057 A 
HETATM   14  C   UNL     1     -40.296 -44.877  10.830  1.00  0.00     0.048 C 
HETATM   15  C   UNL     1     -40.493 -47.380  10.944  1.00  0.00     0.055 A 
ENDBRANCH   1   7
BRANCH   4  16
HETATM   16  C   UNL     1     -40.967 -50.474  14.519  1.00  0.00     0.130 C 
BRANCH  16  17
HETATM   17  C   UNL     1     -42.276 -51.197  14.813  1.00  0.00     0.033 C 
HETATM   18  C   UNL     1     -42.961 -50.799  16.116  1.00  0.00     0.038 C 
HETATM   19  C   UNL     1     -43.738 -52.044  16.542  1.00  0.00     0.273 C 
HETATM   20  N   UNL     1     -43.459 -53.105  15.558  1.00  0.00     0.097 N 
HETATM   21  C   UNL     1     -42.181 -52.713  14.927  1.00  0.00     0.279 C 
BRANCH  20  22
HETATM   22  C   UNL     1     -44.542 -53.259  14.551  1.00  0.00     0.389 C 
BRANCH  22  23
HETATM   23  C   UNL     1     -44.642 -54.584  13.757  1.00  0.00     0.413 C 
HETATM   24  F   UNL     1     -43.998 -55.616  14.343  1.00  0.00    -0.169 F 
HETATM   25  F   UNL     1     -45.941 -54.949  13.617  1.00  0.00    -0.169 F 
HETATM   26  F   UNL     1     -44.133 -54.443  12.509  1.00  0.00    -0.169 F 
ENDBRANCH  22  23
ENDBRANCH  20  22
ENDBRANCH  16  17
ENDBRANCH   4  16
TORSDOF 5
ENDMDL
MODEL 8
REMARK VINA RESULT:      -5.9      3.003      6.570
REMARK  5 active torsions:
REMARK  status: ('A' for Active; 'I' for Inactive)
REMARK    1  A    between atoms: C_8  and  N_9 
REMARK       I    between atoms: N_9  and  C_10 
REMARK       I    between atoms: C_10  and  N_12 
REMARK    2  A    between atoms: N_12  and  C_13 
REMARK    3  A    between atoms: C_13  and  C_14 
REMARK    4  A    between atoms: N_17  and  C_18 
REMARK    5  A    between atoms: C_18  and  C_19 
ROOT
HETATM    1  N   UNL     1     -38.978 -50.347  12.283  1.00  0.00    -0.295 N 
HETATM    2  C   UNL     1     -39.291 -51.294  13.216  1.00  0.00     0.321 C 
HETATM    3  O   UNL     1     -38.617 -52.318  13.301  1.00  0.00    -0.247 OA
HETATM    4  N   UNL     1     -40.396 -51.060  13.971  1.00  0.00    -0.342 N 
HETATM    5  H   UNL     1     -38.216 -50.620  11.681  1.00  0.00     0.172 HD
HETATM    6  H   UNL     1     -40.805 -50.135  13.863  1.00  0.00     0.164 HD
ENDROOT
BRANCH   1   7
HETATM    7  C   UNL     1     -39.637 -49.141  12.027  1.00  0.00     0.109 A 
HETATM    8  N   UNL     1     -39.275 -48.033  12.714  1.00  0.00    -0.346 N 
HETATM    9  C   UNL     1     -39.937 -46.880  12.475  1.00  0.00     0.007 A 
ATOM     10  HN  UNL     1     -38.519 -48.067  13.397  1.00  0.00     0.167 HD
HETATM   11  C   UNL     1     -40.993 -46.799  11.580  1.00  0.00     0.031 A 
HETATM   12  C   UNL     1     -39.462 -45.685  13.244  1.00  0.00     0.068 C 
HETATM   13  C   UNL     1     -41.374 -47.946  10.881  1.00  0.00    -0.057 A 
HETATM   14  C   UNL     1     -42.540 -47.923   9.938  1.00  0.00     0.048 C 
HETATM   15  C   UNL     1     -40.664 -49.132  11.094  1.00  0.00     0.055 A 
ENDBRANCH   1   7
BRANCH   4  16
HETATM   16  C   UNL     1     -40.997 -52.007  14.870  1.00  0.00     0.130 C 
BRANCH  16  17
HETATM   17  C   UNL     1     -42.369 -52.510  14.436  1.00  0.00     0.033 C 
HETATM   18  C   UNL     1     -42.360 -53.526  13.299  1.00  0.00     0.038 C 
HETATM   19  C   UNL     1     -43.697 -53.325  12.588  1.00  0.00     0.273 C 
HETATM   20  N   UNL     1     -44.398 -52.215  13.257  1.00  0.00     0.097 N 
HETATM   21  C   UNL     1     -43.332 -51.444  13.933  1.00  0.00     0.279 C 
BRANCH  20  22
HETATM   22  C   UNL     1     -45.431 -52.679  14.220  1.00  0.00     0.389 C 
BRANCH  22  23
HETATM   23  C   UNL     1     -46.549 -51.698  14.650  1.00  0.00     0.413 C 
HETATM   24  F   UNL     1     -47.097 -51.018  13.620  1.00  0.00    -0.169 F 
HETATM   25  F   UNL     1     -47.552 -52.372  15.265  1.00  0.00    -0.169 F 
HETATM   26  F   UNL     1     -46.081 -50.787  15.536  1.00  0.00    -0.169 F 
ENDBRANCH  22  23
ENDBRANCH  20  22
ENDBRANCH  16  17
ENDBRANCH   4  16
TORSDOF 5
ENDMDL
MODEL 9
REMARK VINA RESULT:      -5.9      1.724      2.108
REMARK  5 active torsions:
REMARK  status: ('A' for Active; 'I' for Inactive)
REMARK    1  A    between atoms: C_8  and  N_9 
REMARK       I    between atoms: N_9  and  C_10 
REMARK       I    between atoms: C_10  and  N_12 
REMARK    2  A    between atoms: N_12  and  C_13 
REMARK    3  A    between atoms: C_13  and  C_14 
REMARK    4  A    between atoms: N_17  and  C_18 
REMARK    5  A    between atoms: C_18  and  C_19 
ROOT
HETATM    1  N   UNL     1     -43.217 -53.245  14.838  1.00  0.00    -0.295 N 
HETATM    2  C   UNL     1     -41.989 -52.686  14.619  1.00  0.00     0.321 C 
HETATM    3  O   UNL     1     -40.972 -53.350  14.799  1.00  0.00    -0.247 OA
HETATM    4  N   UNL     1     -41.974 -51.375  14.263  1.00  0.00    -0.342 N 
HETATM    5  H   UNL     1     -43.166 -54.184  15.202  1.00  0.00     0.172 HD
HETATM    6  H   UNL     1     -42.886 -50.972  14.059  1.00  0.00     0.164 HD
ENDROOT
BRANCH   1   7
HETATM    7  C   UNL     1     -44.471 -52.643  14.709  1.00  0.00     0.109 A 
HETATM    8  N   UNL     1     -45.016 -52.509  13.477  1.00  0.00    -0.346 N 
HETATM    9  C   UNL     1     -46.217 -51.903  13.364  1.00  0.00     0.007 A 
ATOM     10  HN  UNL     1     -44.529 -52.859  12.652  1.00  0.00     0.167 HD
HETATM   11  C   UNL     1     -46.894 -51.382  14.456  1.00  0.00     0.031 A 
HETATM   12  C   UNL     1     -46.777 -51.820  11.976  1.00  0.00     0.068 C 
HETATM   13  C   UNL     1     -46.326 -51.509  15.726  1.00  0.00    -0.057 A 
HETATM   14  C   UNL     1     -46.995 -50.921  16.932  1.00  0.00     0.048 C 
HETATM   15  C   UNL     1     -45.102 -52.173  15.852  1.00  0.00     0.055 A 
ENDBRANCH   1   7
BRANCH   4  16
HETATM   16  C   UNL     1     -40.795 -50.559  14.169  1.00  0.00     0.130 C 
BRANCH  16  17
HETATM   17  C   UNL     1     -40.737 -49.671  12.932  1.00  0.00     0.033 C 
HETATM   18  C   UNL     1     -39.460 -48.852  12.777  1.00  0.00     0.038 C 
HETATM   19  C   UNL     1     -39.888 -47.609  11.999  1.00  0.00     0.273 C 
HETATM   20  N   UNL     1     -41.341 -47.699  11.775  1.00  0.00     0.097 N 
HETATM   21  C   UNL     1     -41.832 -48.619  12.823  1.00  0.00     0.279 C 
BRANCH  20  22
HETATM   22  C   UNL     1     -41.689 -48.185  10.414  1.00  0.00     0.389 C 
BRANCH  22  23
HETATM   23  C   UNL     1     -42.880 -47.535   9.668  1.00  0.00     0.413 C 
HETATM   24  F   UNL     1     -42.774 -46.195   9.545  1.00  0.00    -0.169 F 
HETATM   25  F   UNL     1     -42.982 -48.046   8.415  1.00  0.00    -0.169 F 
HETATM   26  F   UNL     1     -44.050 -47.795  10.299  1.00  0.00    -0.169 F 
ENDBRANCH  22  23
ENDBRANCH  20  22
ENDBRANCH  16  17
ENDBRANCH   4  16
TORSDOF 5
ENDMDL
