MODEL 1
REMARK VINA RESULT:      -6.2      0.000      0.000
REMARK  3 active torsions:
REMARK  status: ('A' for Active; 'I' for Inactive)
REMARK    1  A    between atoms: N_5  and  C_6 
REMARK    2  A    between atoms: C_6  and  C_7 
REMARK    3  A    between atoms: C_7  and  O_8 
ROOT
HETATM    1  C   UNL     1     -39.516 -52.093  13.660  1.00  0.00     0.161 C 
HETATM    2  N   UNL     1     -40.748 -52.825  13.732  1.00  0.00    -0.302 N 
HETATM    3  C   UNL     1     -41.825 -52.729  12.822  1.00  0.00     0.329 A 
HETATM    4  O   UNL     1     -41.904 -51.995  11.848  1.00  0.00    -0.246 OA
HETATM    5  N   UNL     1     -42.796 -53.657  13.259  1.00  0.00    -0.294 N 
HETATM    6  C   UNL     1     -42.308 -54.319  14.399  1.00  0.00     0.066 A 
HETATM    7  C   UNL     1     -42.875 -55.310  15.172  1.00  0.00     0.032 A 
HETATM    8  C   UNL     1     -42.141 -55.772  16.270  1.00  0.00     0.002 A 
HETATM    9  C   UNL     1     -40.864 -55.251  16.560  1.00  0.00     0.002 A 
HETATM   10  C   UNL     1     -40.300 -54.251  15.764  1.00  0.00     0.032 A 
HETATM   11  C   UNL     1     -41.046 -53.800  14.691  1.00  0.00     0.065 A 
ENDROOT
BRANCH   5  12
HETATM   12  C   UNL     1     -44.034 -53.962  12.564  1.00  0.00     0.171 C 
BRANCH  12  13
HETATM   13  C   UNL     1     -45.297 -53.299  13.173  1.00  0.00     0.074 C 
HETATM   14  C   UNL     1     -45.972 -54.161  14.253  1.00  0.00     0.039 C 
HETATM   15  C   UNL     1     -47.216 -53.474  14.828  1.00  0.00     0.003 C 
HETATM   16  C   UNL     1     -46.922 -52.069  15.349  1.00  0.00     0.000 C 
HETATM   17  C   UNL     1     -46.159 -51.212  14.344  1.00  0.00     0.003 C 
HETATM   18  C   UNL     1     -44.928 -51.935  13.790  1.00  0.00     0.039 C 
BRANCH  13  19
HETATM   19  O   UNL     1     -46.241 -53.039  12.122  1.00  0.00    -0.388 OA
HETATM   20  H   UNL     1     -46.261 -53.840  11.566  1.00  0.00     0.210 HD
ENDBRANCH  13  19
ENDBRANCH  12  13
ENDBRANCH   5  12
TORSDOF 3
ENDMDL
MODEL 2
REMARK VINA RESULT:      -6.0      1.378      2.774
REMARK  3 active torsions:
REMARK  status: ('A' for Active; 'I' for Inactive)
REMARK    1  A    between atoms: N_5  and  C_6 
REMARK    2  A    between atoms: C_6  and  C_7 
REMARK    3  A    between atoms: C_7  and  O_8 
ROOT
HETATM    1  C   UNL     1     -40.696 -54.745  16.314  1.00  0.00     0.161 C 
HETATM    2  N   UNL     1     -41.352 -54.328  15.108  1.00  0.00    -0.302 N 
HETATM    3  C   UNL     1     -42.597 -54.800  14.635  1.00  0.00     0.329 A 
HETATM    4  O   UNL     1     -43.305 -55.654  15.148  1.00  0.00    -0.246 OA
HETATM    5  N   UNL     1     -42.867 -54.083  13.448  1.00  0.00    -0.294 N 
HETATM    6  C   UNL     1     -41.816 -53.179  13.218  1.00  0.00     0.066 A 
HETATM    7  C   UNL     1     -41.630 -52.259  12.207  1.00  0.00     0.032 A 
HETATM    8  C   UNL     1     -40.460 -51.492  12.239  1.00  0.00     0.002 A 
HETATM    9  C   UNL     1     -39.518 -51.648  13.276  1.00  0.00     0.002 A 
HETATM   10  C   UNL     1     -39.724 -52.579  14.297  1.00  0.00     0.032 A 
HETATM   11  C   UNL     1     -40.881 -53.335  14.242  1.00  0.00     0.065 A 
ENDROOT
BRANCH   5  12
HETATM   12  C   UNL     1     -44.090 -54.180  12.672  1.00  0.00     0.171 C 
BRANCH  12  13
HETATM   13  C   UNL     1     -45.284 -53.371  13.243  1.00  0.00     0.074 C 
HETATM   14  C   UNL     1     -46.061 -54.127  14.335  1.00  0.00     0.039 C 
HETATM   15  C   UNL     1     -47.232 -53.298  14.872  1.00  0.00     0.003 C 
HETATM   16  C   UNL     1     -46.799 -51.919  15.362  1.00  0.00     0.000 C 
HETATM   17  C   UNL     1     -45.936 -51.174  14.347  1.00  0.00     0.003 C 
HETATM   18  C   UNL     1     -44.781 -52.037  13.831  1.00  0.00     0.039 C 
BRANCH  13  19
HETATM   19  O   UNL     1     -46.181 -53.042  12.172  1.00  0.00    -0.388 OA
HETATM   20  H   UNL     1     -46.535 -52.155  12.372  1.00  0.00     0.210 HD
ENDBRANCH  13  19
ENDBRANCH  12  13
ENDBRANCH   5  12
TORSDOF 3
ENDMDL
MODEL 3
REMARK VINA RESULT:      -5.9      1.808      5.457
REMARK  3 active torsions:
REMARK  status: ('A' for Active; 'I' for Inactive)
REMARK    1  A    between atoms: N_5  and  C_6 
REMARK    2  A    between atoms: C_6  and  C_7 
REMARK    3  A    between atoms: C_7  and  O_8 
ROOT
HETATM    1  C   UNL     1     -46.529 -54.268  14.772  1.00  0.00     0.161 C 
HETATM    2  N   UNL     1     -45.424 -53.434  14.396  1.00  0.00    -0.302 N 
HETATM    3  C   UNL     1     -44.563 -53.644  13.295  1.00  0.00     0.329 A 
HETATM    4  O   UNL     1     -44.592 -54.573  12.503  1.00  0.00    -0.246 OA
HETATM    5  N   UNL     1     -43.660 -52.557  13.288  1.00  0.00    -0.294 N 
HETATM    6  C   UNL     1     -43.980 -51.695  14.350  1.00  0.00     0.066 A 
HETATM    7  C   UNL     1     -43.404 -50.506  14.745  1.00  0.00     0.032 A 
HETATM    8  C   UNL     1     -43.945 -49.867  15.867  1.00  0.00     0.002 A 
HETATM    9  C   UNL     1     -45.045 -50.418  16.554  1.00  0.00     0.002 A 
HETATM   10  C   UNL     1     -45.622 -51.620  16.138  1.00  0.00     0.032 A 
HETATM   11  C   UNL     1     -45.067 -52.241  15.035  1.00  0.00     0.065 A 
ENDROOT
BRANCH   5  12
HETATM   12  C   UNL     1     -42.652 -52.314  12.270  1.00  0.00     0.171 C 
BRANCH  12  13
HETATM   13  C   UNL     1     -41.221 -52.771  12.655  1.00  0.00     0.074 C 
HETATM   14  C   UNL     1     -40.385 -51.657  13.309  1.00  0.00     0.039 C 
HETATM   15  C   UNL     1     -38.979 -52.145  13.673  1.00  0.00     0.003 C 
HETATM   16  C   UNL     1     -39.000 -53.400  14.543  1.00  0.00     0.000 C 
HETATM   17  C   UNL     1     -39.903 -54.494  13.982  1.00  0.00     0.003 C 
HETATM   18  C   UNL     1     -41.294 -53.966  13.627  1.00  0.00     0.039 C 
BRANCH  13  19
HETATM   19  O   UNL     1     -40.544 -53.234  11.476  1.00  0.00    -0.388 OA
HETATM   20  H   UNL     1     -39.725 -52.710  11.406  1.00  0.00     0.210 HD
ENDBRANCH  13  19
ENDBRANCH  12  13
ENDBRANCH   5  12
TORSDOF 3
ENDMDL
MODEL 4
REMARK VINA RESULT:      -5.9      2.032      5.549
REMARK  3 active torsions:
REMARK  status: ('A' for Active; 'I' for Inactive)
REMARK    1  A    between atoms: N_5  and  C_6 
REMARK    2  A    between atoms: C_6  and  C_7 
REMARK    3  A    between atoms: C_7  and  O_8 
ROOT
HETATM    1  C   UNL     1     -44.951 -54.080  17.490  1.00  0.00     0.161 C 
HETATM    2  N   UNL     1     -44.543 -53.795  16.144  1.00  0.00    -0.302 N 
HETATM    3  C   UNL     1     -43.442 -54.370  15.471  1.00  0.00     0.329 A 
HETATM    4  O   UNL     1     -42.641 -55.176  15.923  1.00  0.00    -0.246 OA
HETATM    5  N   UNL     1     -43.451 -53.833  14.165  1.00  0.00    -0.294 N 
HETATM    6  C   UNL     1     -44.550 -52.966  14.041  1.00  0.00     0.066 A 
HETATM    7  C   UNL     1     -44.988 -52.221  12.966  1.00  0.00     0.032 A 
HETATM    8  C   UNL     1     -46.127 -51.429  13.150  1.00  0.00     0.002 A 
HETATM    9  C   UNL     1     -46.805 -51.410  14.385  1.00  0.00     0.002 A 
HETATM   10  C   UNL     1     -46.353 -52.175  15.463  1.00  0.00     0.032 A 
HETATM   11  C   UNL     1     -45.220 -52.941  15.265  1.00  0.00     0.065 A 
ENDROOT
BRANCH   5  12
HETATM   12  C   UNL     1     -42.548 -54.217  13.096  1.00  0.00     0.171 C 
BRANCH  12  13
HETATM   13  C   UNL     1     -41.188 -53.470  13.097  1.00  0.00     0.074 C 
HETATM   14  C   UNL     1     -41.303 -52.006  13.554  1.00  0.00     0.039 C 
HETATM   15  C   UNL     1     -39.942 -51.301  13.540  1.00  0.00     0.003 C 
HETATM   16  C   UNL     1     -38.886 -52.049  14.351  1.00  0.00     0.000 C 
HETATM   17  C   UNL     1     -38.812 -53.532  14.002  1.00  0.00     0.003 C 
HETATM   18  C   UNL     1     -40.191 -54.197  14.021  1.00  0.00     0.039 C 
BRANCH  13  19
HETATM   19  O   UNL     1     -40.633 -53.506  11.774  1.00  0.00    -0.388 OA
HETATM   20  H   UNL     1     -41.377 -53.681  11.168  1.00  0.00     0.210 HD
ENDBRANCH  13  19
ENDBRANCH  12  13
ENDBRANCH   5  12
TORSDOF 3
ENDMDL
MODEL 5
REMARK VINA RESULT:      -5.8      1.190      1.294
REMARK  3 active torsions:
REMARK  status: ('A' for Active; 'I' for Inactive)
REMARK    1  A    between atoms: N_5  and  C_6 
REMARK    2  A    between atoms: C_6  and  C_7 
REMARK    3  A    between atoms: C_7  and  O_8 
ROOT
HETATM    1  C   UNL     1     -40.273 -52.634  12.931  1.00  0.00     0.161 C 
HETATM    2  N   UNL     1     -41.366 -53.363  13.508  1.00  0.00    -0.302 N 
HETATM    3  C   UNL     1     -42.702 -53.356  13.050  1.00  0.00     0.329 A 
HETATM    4  O   UNL     1     -43.157 -52.715  12.114  1.00  0.00    -0.246 OA
HETATM    5  N   UNL     1     -43.412 -54.246  13.887  1.00  0.00    -0.294 N 
HETATM    6  C   UNL     1     -42.519 -54.798  14.821  1.00  0.00     0.066 A 
HETATM    7  C   UNL     1     -42.729 -55.717  15.827  1.00  0.00     0.032 A 
HETATM    8  C   UNL     1     -41.629 -56.074  16.616  1.00  0.00     0.002 A 
HETATM    9  C   UNL     1     -40.355 -55.521  16.376  1.00  0.00     0.002 A 
HETATM   10  C   UNL     1     -40.157 -54.595  15.348  1.00  0.00     0.032 A 
HETATM   11  C   UNL     1     -41.257 -54.248  14.588  1.00  0.00     0.065 A 
ENDROOT
BRANCH   5  12
HETATM   12  C   UNL     1     -44.805 -54.619  13.720  1.00  0.00     0.171 C 
BRANCH  12  13
HETATM   13  C   UNL     1     -45.814 -53.699  14.456  1.00  0.00     0.074 C 
HETATM   14  C   UNL     1     -45.462 -53.478  15.937  1.00  0.00     0.039 C 
HETATM   15  C   UNL     1     -46.481 -52.567  16.630  1.00  0.00     0.003 C 
HETATM   16  C   UNL     1     -46.668 -51.237  15.904  1.00  0.00     0.000 C 
HETATM   17  C   UNL     1     -46.917 -51.408  14.409  1.00  0.00     0.003 C 
HETATM   18  C   UNL     1     -45.882 -52.328  13.755  1.00  0.00     0.039 C 
BRANCH  13  19
HETATM   19  O   UNL     1     -47.125 -54.278  14.368  1.00  0.00    -0.388 OA
HETATM   20  H   UNL     1     -47.039 -55.202  14.665  1.00  0.00     0.210 HD
ENDBRANCH  13  19
ENDBRANCH  12  13
ENDBRANCH   5  12
TORSDOF 3
ENDMDL
MODEL 6
REMARK VINA RESULT:      -5.7      1.727      5.337
REMARK  3 active torsions:
REMARK  status: ('A' for Active; 'I' for Inactive)
REMARK    1  A    between atoms: N_5  and  C_6 
REMARK    2  A    between atoms: C_6  and  C_7 
REMARK    3  A    between atoms: C_7  and  O_8 
ROOT
HETATM    1  C   UNL     1     -46.732 -51.890  12.171  1.00  0.00     0.161 C 
HETATM    2  N   UNL     1     -45.938 -52.481  13.210  1.00  0.00    -0.302 N 
HETATM    3  C   UNL     1     -44.875 -53.392  13.025  1.00  0.00     0.329 A 
HETATM    4  O   UNL     1     -44.473 -53.852  11.966  1.00  0.00    -0.246 OA
HETATM    5  N   UNL     1     -44.361 -53.666  14.312  1.00  0.00    -0.294 N 
HETATM    6  C   UNL     1     -45.084 -52.919  15.256  1.00  0.00     0.066 A 
HETATM    7  C   UNL     1     -44.951 -52.835  16.627  1.00  0.00     0.032 A 
HETATM    8  C   UNL     1     -45.839 -51.998  17.312  1.00  0.00     0.002 A 
HETATM    9  C   UNL     1     -46.820 -51.260  16.620  1.00  0.00     0.002 A 
HETATM   10  C   UNL     1     -46.939 -51.350  15.231  1.00  0.00     0.032 A 
HETATM   11  C   UNL     1     -46.060 -52.190  14.574  1.00  0.00     0.065 A 
ENDROOT
BRANCH   5  12
HETATM   12  C   UNL     1     -43.195 -54.487  14.590  1.00  0.00     0.171 C 
BRANCH  12  13
HETATM   13  C   UNL     1     -41.857 -53.908  14.061  1.00  0.00     0.074 C 
HETATM   14  C   UNL     1     -41.776 -52.375  14.168  1.00  0.00     0.039 C 
HETATM   15  C   UNL     1     -40.442 -51.842  13.635  1.00  0.00     0.003 C 
HETATM   16  C   UNL     1     -39.237 -52.503  14.301  1.00  0.00     0.000 C 
HETATM   17  C   UNL     1     -39.328 -54.026  14.310  1.00  0.00     0.003 C 
HETATM   18  C   UNL     1     -40.676 -54.518  14.843  1.00  0.00     0.039 C 
BRANCH  13  19
HETATM   19  O   UNL     1     -41.690 -54.292  12.688  1.00  0.00    -0.388 OA
HETATM   20  H   UNL     1     -41.254 -53.542  12.243  1.00  0.00     0.210 HD
ENDBRANCH  13  19
ENDBRANCH  12  13
ENDBRANCH   5  12
TORSDOF 3
ENDMDL
MODEL 7
REMARK VINA RESULT:      -5.4      2.359      5.185
REMARK  3 active torsions:
REMARK  status: ('A' for Active; 'I' for Inactive)
REMARK    1  A    between atoms: N_5  and  C_6 
REMARK    2  A    between atoms: C_6  and  C_7 
REMARK    3  A    between atoms: C_7  and  O_8 
ROOT
HETATM    1  C   UNL     1     -40.873 -55.290  16.017  1.00  0.00     0.161 C 
HETATM    2  N   UNL     1     -41.276 -54.480  14.903  1.00  0.00    -0.302 N 
HETATM    3  C   UNL     1     -40.429 -53.660  14.123  1.00  0.00     0.329 A 
HETATM    4  O   UNL     1     -39.230 -53.480  14.278  1.00  0.00    -0.246 OA
HETATM    5  N   UNL     1     -41.244 -53.092  13.119  1.00  0.00    -0.294 N 
HETATM    6  C   UNL     1     -42.555 -53.573  13.274  1.00  0.00     0.066 A 
HETATM    7  C   UNL     1     -43.695 -53.323  12.539  1.00  0.00     0.032 A 
HETATM    8  C   UNL     1     -44.877 -53.951  12.947  1.00  0.00     0.002 A 
HETATM    9  C   UNL     1     -44.892 -54.816  14.060  1.00  0.00     0.002 A 
HETATM   10  C   UNL     1     -43.727 -55.065  14.791  1.00  0.00     0.032 A 
HETATM   11  C   UNL     1     -42.573 -54.427  14.378  1.00  0.00     0.065 A 
ENDROOT
BRANCH   5  12
HETATM   12  C   UNL     1     -40.770 -52.251  12.034  1.00  0.00     0.171 C 
BRANCH  12  13
HETATM   13  C   UNL     1     -40.423 -50.797  12.447  1.00  0.00     0.074 C 
HETATM   14  C   UNL     1     -38.967 -50.411  12.134  1.00  0.00     0.039 C 
HETATM   15  C   UNL     1     -38.661 -48.970  12.557  1.00  0.00     0.003 C 
HETATM   16  C   UNL     1     -39.639 -47.962  11.956  1.00  0.00     0.000 C 
HETATM   17  C   UNL     1     -41.098 -48.362  12.154  1.00  0.00     0.003 C 
HETATM   18  C   UNL     1     -41.360 -49.808  11.725  1.00  0.00     0.039 C 
BRANCH  13  19
HETATM   19  O   UNL     1     -40.657 -50.641  13.855  1.00  0.00    -0.388 OA
HETATM   20  H   UNL     1     -39.941 -50.071  14.191  1.00  0.00     0.210 HD
ENDBRANCH  13  19
ENDBRANCH  12  13
ENDBRANCH   5  12
TORSDOF 3
ENDMDL
MODEL 8
REMARK VINA RESULT:      -5.3      2.162      4.529
REMARK  3 active torsions:
REMARK  status: ('A' for Active; 'I' for Inactive)
REMARK    1  A    between atoms: N_5  and  C_6 
REMARK    2  A    between atoms: C_6  and  C_7 
REMARK    3  A    between atoms: C_7  and  O_8 
ROOT
HETATM    1  C   UNL     1     -44.429 -54.569  14.802  1.00  0.00     0.161 C 
HETATM    2  N   UNL     1     -43.194 -54.156  14.202  1.00  0.00    -0.302 N 
HETATM    3  C   UNL     1     -43.059 -53.323  13.069  1.00  0.00     0.329 A 
HETATM    4  O   UNL     1     -43.959 -52.842  12.396  1.00  0.00    -0.246 OA
HETATM    5  N   UNL     1     -41.671 -53.150  12.868  1.00  0.00    -0.294 N 
HETATM    6  C   UNL     1     -40.979 -53.846  13.872  1.00  0.00     0.066 A 
HETATM    7  C   UNL     1     -39.625 -53.968  14.109  1.00  0.00     0.032 A 
HETATM    8  C   UNL     1     -39.228 -54.749  15.200  1.00  0.00     0.002 A 
HETATM    9  C   UNL     1     -40.181 -55.374  16.030  1.00  0.00     0.002 A 
HETATM   10  C   UNL     1     -41.549 -55.236  15.781  1.00  0.00     0.032 A 
HETATM   11  C   UNL     1     -41.920 -54.470  14.692  1.00  0.00     0.065 A 
ENDROOT
BRANCH   5  12
HETATM   12  C   UNL     1     -41.073 -52.288  11.864  1.00  0.00     0.171 C 
BRANCH  12  13
HETATM   13  C   UNL     1     -41.133 -50.774  12.192  1.00  0.00     0.074 C 
HETATM   14  C   UNL     1     -40.935 -50.471  13.688  1.00  0.00     0.039 C 
HETATM   15  C   UNL     1     -41.003 -48.966  13.973  1.00  0.00     0.003 C 
HETATM   16  C   UNL     1     -40.028 -48.162  13.116  1.00  0.00     0.000 C 
HETATM   17  C   UNL     1     -40.119 -48.509  11.633  1.00  0.00     0.003 C 
HETATM   18  C   UNL     1     -40.053 -50.019  11.390  1.00  0.00     0.039 C 
BRANCH  13  19
HETATM   19  O   UNL     1     -42.403 -50.253  11.772  1.00  0.00    -0.388 OA
HETATM   20  H   UNL     1     -42.568 -50.616  10.882  1.00  0.00     0.210 HD
ENDBRANCH  13  19
ENDBRANCH  12  13
ENDBRANCH   5  12
TORSDOF 3
ENDMDL
MODEL 9
REMARK VINA RESULT:      -5.3      2.132      5.708
REMARK  3 active torsions:
REMARK  status: ('A' for Active; 'I' for Inactive)
REMARK    1  A    between atoms: N_5  and  C_6 
REMARK    2  A    between atoms: C_6  and  C_7 
REMARK    3  A    between atoms: C_7  and  O_8 
ROOT
HETATM    1  C   UNL     1     -45.481 -51.595  12.941  1.00  0.00     0.161 C 
HETATM    2  N   UNL     1     -44.140 -51.818  13.399  1.00  0.00    -0.302 N 
HETATM    3  C   UNL     1     -43.099 -50.863  13.415  1.00  0.00     0.329 A 
HETATM    4  O   UNL     1     -43.152 -49.708  13.020  1.00  0.00    -0.246 OA
HETATM    5  N   UNL     1     -41.979 -51.508  13.986  1.00  0.00    -0.294 N 
HETATM    6  C   UNL     1     -42.340 -52.821  14.329  1.00  0.00     0.066 A 
HETATM    7  C   UNL     1     -41.606 -53.828  14.921  1.00  0.00     0.032 A 
HETATM    8  C   UNL     1     -42.245 -55.055  15.133  1.00  0.00     0.002 A 
HETATM    9  C   UNL     1     -43.593 -55.243  14.766  1.00  0.00     0.002 A 
HETATM   10  C   UNL     1     -44.325 -54.212  14.173  1.00  0.00     0.032 A 
HETATM   11  C   UNL     1     -43.673 -53.012  13.962  1.00  0.00     0.065 A 
ENDROOT
BRANCH   5  12
HETATM   12  C   UNL     1     -40.708 -50.871  14.282  1.00  0.00     0.171 C 
BRANCH  12  13
HETATM   13  C   UNL     1     -39.705 -50.847  13.100  1.00  0.00     0.074 C 
HETATM   14  C   UNL     1     -39.723 -49.521  12.318  1.00  0.00     0.039 C 
HETATM   15  C   UNL     1     -38.721 -49.537  11.158  1.00  0.00     0.003 C 
HETATM   16  C   UNL     1     -37.306 -49.890  11.609  1.00  0.00     0.000 C 
HETATM   17  C   UNL     1     -37.257 -51.144  12.477  1.00  0.00     0.003 C 
HETATM   18  C   UNL     1     -38.275 -51.093  13.620  1.00  0.00     0.039 C 
BRANCH  13  19
HETATM   19  O   UNL     1     -40.013 -51.924  12.203  1.00  0.00    -0.388 OA
HETATM   20  H   UNL     1     -40.960 -52.122  12.325  1.00  0.00     0.210 HD
ENDBRANCH  13  19
ENDBRANCH  12  13
ENDBRANCH   5  12
TORSDOF 3
ENDMDL
