MODEL 1
REMARK VINA RESULT:      -4.2      0.000      0.000
REMARK  3 active torsions:
REMARK  status: ('A' for Active; 'I' for Inactive)
REMARK    1  A    between atoms: N_3  and  C_4 
REMARK    2  A    between atoms: C_4  and  C_5 
REMARK    3  A    between atoms: C_5  and  C_6 
ROOT
HETATM    1  C   UNL     2     -44.597 -47.168   8.789  1.00  0.00     0.098 A 
HETATM    2  N   UNL     2     -44.799 -48.182   7.927  1.00  0.00    -0.288 N 
ATOM      3  HN  UNL     2     -44.108 -48.596   7.302  1.00  0.00     0.188 HD
HETATM    4  N   UNL     2     -46.070 -48.539   8.044  1.00  0.00    -0.295 N 
ATOM      5  HN  UNL     2     -46.540 -49.282   7.527  1.00  0.00     0.187 HD
HETATM    6  C   UNL     2     -46.626 -47.739   8.974  1.00  0.00     0.198 A 
HETATM    7  N   UNL     2     -45.724 -46.869   9.456  1.00  0.00    -0.340 N 
HETATM    8  H   UNL     2     -45.870 -46.132  10.183  1.00  0.00     0.168 HD
ENDROOT
BRANCH   1   9
HETATM    9  C   UNL     2     -43.283 -46.472   8.976  1.00  0.00     0.107 C 
BRANCH   9  10
HETATM   10  C   UNL     2     -42.485 -47.077  10.135  1.00  0.00     0.274 C 
BRANCH  10  11
HETATM   11  N   UNL     2     -41.805 -48.301   9.720  1.00  0.00     0.078 N 
HETATM   12  H   UNL     2     -41.967 -48.439   8.696  1.00  0.00     0.312 HD
HETATM   13  H   UNL     2     -42.221 -49.118  10.223  1.00  0.00     0.312 HD
ENDBRANCH  10  11
ENDBRANCH   9  10
ENDBRANCH   1   9
TORSDOF 3
ENDMDL
MODEL 2
REMARK VINA RESULT:      -4.1      1.755      2.546
REMARK  3 active torsions:
REMARK  status: ('A' for Active; 'I' for Inactive)
REMARK    1  A    between atoms: N_3  and  C_4 
REMARK    2  A    between atoms: C_4  and  C_5 
REMARK    3  A    between atoms: C_5  and  C_6 
ROOT
HETATM    1  C   UNL     2     -42.764 -47.790   9.831  1.00  0.00     0.098 A 
HETATM    2  N   UNL     2     -43.996 -47.820  10.374  1.00  0.00    -0.288 N 
ATOM      3  HN  UNL     2     -44.223 -47.822  11.368  1.00  0.00     0.188 HD
HETATM    4  N   UNL     2     -44.858 -47.846   9.367  1.00  0.00    -0.295 N 
ATOM      5  HN  UNL     2     -45.875 -47.871   9.443  1.00  0.00     0.187 HD
HETATM    6  C   UNL     2     -44.142 -47.834   8.227  1.00  0.00     0.198 A 
HETATM    7  N   UNL     2     -42.826 -47.800   8.489  1.00  0.00    -0.340 N 
HETATM    8  H   UNL     2     -42.037 -47.785   7.805  1.00  0.00     0.168 HD
ENDROOT
BRANCH   1   9
HETATM    9  C   UNL     2     -41.494 -47.749  10.628  1.00  0.00     0.107 C 
BRANCH   9  10
HETATM   10  C   UNL     2     -41.182 -49.110  11.260  1.00  0.00     0.274 C 
BRANCH  10  11
HETATM   11  N   UNL     2     -40.443 -49.961  10.331  1.00  0.00     0.078 N 
HETATM   12  H   UNL     2     -39.720 -49.377   9.851  1.00  0.00     0.312 HD
HETATM   13  H   UNL     2     -41.096 -50.329   9.602  1.00  0.00     0.312 HD
ENDBRANCH  10  11
ENDBRANCH   9  10
ENDBRANCH   1   9
TORSDOF 3
ENDMDL
MODEL 3
REMARK VINA RESULT:      -3.9      2.220      4.083
REMARK  3 active torsions:
REMARK  status: ('A' for Active; 'I' for Inactive)
REMARK    1  A    between atoms: N_3  and  C_4 
REMARK    2  A    between atoms: C_4  and  C_5 
REMARK    3  A    between atoms: C_5  and  C_6 
ROOT
HETATM    1  C   UNL     2     -42.274 -47.509  10.055  1.00  0.00     0.098 A 
HETATM    2  N   UNL     2     -41.008 -47.082  10.223  1.00  0.00    -0.288 N 
ATOM      3  HN  UNL     2     -40.592 -46.240   9.826  1.00  0.00     0.188 HD
HETATM    4  N   UNL     2     -40.405 -47.968  11.004  1.00  0.00    -0.295 N 
ATOM      5  HN  UNL     2     -39.436 -47.933  11.321  1.00  0.00     0.187 HD
HETATM    6  C   UNL     2     -41.308 -48.922  11.298  1.00  0.00     0.198 A 
HETATM    7  N   UNL     2     -42.489 -48.659  10.716  1.00  0.00    -0.340 N 
HETATM    8  H   UNL     2     -43.368 -49.221  10.768  1.00  0.00     0.168 HD
ENDROOT
BRANCH   1   9
HETATM    9  C   UNL     2     -43.303 -46.787   9.238  1.00  0.00     0.107 C 
BRANCH   9  10
HETATM   10  C   UNL     2     -43.948 -47.712   8.201  1.00  0.00     0.274 C 
BRANCH  10  11
HETATM   11  N   UNL     2     -42.953 -48.215   7.258  1.00  0.00     0.078 N 
HETATM   12  H   UNL     2     -42.016 -47.844   7.536  1.00  0.00     0.312 HD
HETATM   13  H   UNL     2     -43.170 -47.856   6.300  1.00  0.00     0.312 HD
ENDBRANCH  10  11
ENDBRANCH   9  10
ENDBRANCH   1   9
TORSDOF 3
ENDMDL
MODEL 4
REMARK VINA RESULT:      -3.9      6.124      6.723
REMARK  3 active torsions:
REMARK  status: ('A' for Active; 'I' for Inactive)
REMARK    1  A    between atoms: N_3  and  C_4 
REMARK    2  A    between atoms: C_4  and  C_5 
REMARK    3  A    between atoms: C_5  and  C_6 
ROOT
HETATM    1  C   UNL     2     -39.950 -50.839  11.996  1.00  0.00     0.098 A 
HETATM    2  N   UNL     2     -40.778 -51.176  10.989  1.00  0.00    -0.288 N 
ATOM      3  HN  UNL     2     -40.973 -50.626  10.153  1.00  0.00     0.188 HD
HETATM    4  N   UNL     2     -41.290 -52.360  11.293  1.00  0.00    -0.295 N 
ATOM      5  HN  UNL     2     -41.955 -52.892  10.733  1.00  0.00     0.187 HD
HETATM    6  C   UNL     2     -40.771 -52.727  12.480  1.00  0.00     0.198 A 
HETATM    7  N   UNL     2     -39.928 -51.791  12.944  1.00  0.00    -0.340 N 
HETATM    8  H   UNL     2     -39.383 -51.805  13.835  1.00  0.00     0.168 HD
ENDROOT
BRANCH   1   9
HETATM    9  C   UNL     2     -39.158 -49.567  12.045  1.00  0.00     0.107 C 
BRANCH   9  10
HETATM   10  C   UNL     2     -37.669 -49.821  11.790  1.00  0.00     0.274 C 
BRANCH  10  11
HETATM   11  N   UNL     2     -37.415 -50.069  10.373  1.00  0.00     0.078 N 
HETATM   12  H   UNL     2     -36.639 -50.766  10.293  1.00  0.00     0.312 HD
HETATM   13  H   UNL     2     -37.100 -49.183   9.916  1.00  0.00     0.312 HD
ENDBRANCH  10  11
ENDBRANCH   9  10
ENDBRANCH   1   9
TORSDOF 3
ENDMDL
MODEL 5
REMARK VINA RESULT:      -3.8      3.352      4.894
REMARK  3 active torsions:
REMARK  status: ('A' for Active; 'I' for Inactive)
REMARK    1  A    between atoms: N_3  and  C_4 
REMARK    2  A    between atoms: C_4  and  C_5 
REMARK    3  A    between atoms: C_5  and  C_6 
ROOT
HETATM    1  C   UNL     2     -41.561 -49.607  11.582  1.00  0.00     0.098 A 
HETATM    2  N   UNL     2     -40.916 -49.254  10.454  1.00  0.00    -0.288 N 
ATOM      3  HN  UNL     2     -40.038 -49.643  10.108  1.00  0.00     0.188 HD
HETATM    4  N   UNL     2     -41.639 -48.304   9.879  1.00  0.00    -0.295 N 
ATOM      5  HN  UNL     2     -41.422 -47.825   9.005  1.00  0.00     0.187 HD
HETATM    6  C   UNL     2     -42.713 -48.089  10.662  1.00  0.00     0.198 A 
HETATM    7  N   UNL     2     -42.688 -48.893  11.738  1.00  0.00    -0.340 N 
HETATM    8  H   UNL     2     -43.386 -48.946  12.513  1.00  0.00     0.168 HD
ENDROOT
BRANCH   1   9
HETATM    9  C   UNL     2     -41.080 -50.662  12.532  1.00  0.00     0.107 C 
BRANCH   9  10
HETATM   10  C   UNL     2     -41.801 -51.995  12.305  1.00  0.00     0.274 C 
BRANCH  10  11
HETATM   11  N   UNL     2     -41.245 -52.703  11.156  1.00  0.00     0.078 N 
HETATM   12  H   UNL     2     -40.202 -52.685  11.229  1.00  0.00     0.312 HD
HETATM   13  H   UNL     2     -41.514 -52.204  10.277  1.00  0.00     0.312 HD
ENDBRANCH  10  11
ENDBRANCH   9  10
ENDBRANCH   1   9
TORSDOF 3
ENDMDL
MODEL 6
REMARK VINA RESULT:      -3.8      1.542      1.963
REMARK  3 active torsions:
REMARK  status: ('A' for Active; 'I' for Inactive)
REMARK    1  A    between atoms: N_3  and  C_4 
REMARK    2  A    between atoms: C_4  and  C_5 
REMARK    3  A    between atoms: C_5  and  C_6 
ROOT
HETATM    1  C   UNL     2     -43.183 -47.653   9.579  1.00  0.00     0.098 A 
HETATM    2  N   UNL     2     -42.975 -47.728   8.251  1.00  0.00    -0.288 N 
ATOM      3  HN  UNL     2     -42.073 -47.707   7.774  1.00  0.00     0.188 HD
HETATM    4  N   UNL     2     -44.167 -47.836   7.681  1.00  0.00    -0.295 N 
ATOM      5  HN  UNL     2     -44.354 -47.913   6.681  1.00  0.00     0.187 HD
HETATM    6  C   UNL     2     -45.084 -47.822   8.667  1.00  0.00     0.198 A 
HETATM    7  N   UNL     2     -44.494 -47.708   9.867  1.00  0.00    -0.340 N 
HETATM    8  H   UNL     2     -44.952 -47.671  10.805  1.00  0.00     0.168 HD
ENDROOT
BRANCH   1   9
HETATM    9  C   UNL     2     -42.089 -47.527  10.596  1.00  0.00     0.107 C 
BRANCH   9  10
HETATM   10  C   UNL     2     -41.408 -46.157  10.524  1.00  0.00     0.274 C 
BRANCH  10  11
HETATM   11  N   UNL     2     -39.960 -46.297  10.393  1.00  0.00     0.078 N 
HETATM   12  H   UNL     2     -39.707 -47.296  10.572  1.00  0.00     0.312 HD
HETATM   13  H   UNL     2     -39.487 -45.711  11.118  1.00  0.00     0.312 HD
ENDBRANCH  10  11
ENDBRANCH   9  10
ENDBRANCH   1   9
TORSDOF 3
ENDMDL
MODEL 7
REMARK VINA RESULT:      -3.7      6.984      8.101
REMARK  3 active torsions:
REMARK  status: ('A' for Active; 'I' for Inactive)
REMARK    1  A    between atoms: N_3  and  C_4 
REMARK    2  A    between atoms: C_4  and  C_5 
REMARK    3  A    between atoms: C_5  and  C_6 
ROOT
HETATM    1  C   UNL     2     -43.010 -53.324  12.577  1.00  0.00     0.098 A 
HETATM    2  N   UNL     2     -42.600 -52.615  11.508  1.00  0.00    -0.288 N 
ATOM      3  HN  UNL     2     -43.193 -52.125  10.839  1.00  0.00     0.188 HD
HETATM    4  N   UNL     2     -41.276 -52.675  11.493  1.00  0.00    -0.295 N 
ATOM      5  HN  UNL     2     -40.659 -52.239  10.808  1.00  0.00     0.187 HD
HETATM    6  C   UNL     2     -40.897 -53.421  12.549  1.00  0.00     0.198 A 
HETATM    7  N   UNL     2     -41.966 -53.841  13.245  1.00  0.00    -0.340 N 
HETATM    8  H   UNL     2     -41.976 -54.432  14.106  1.00  0.00     0.168 HD
ENDROOT
BRANCH   1   9
HETATM    9  C   UNL     2     -44.447 -53.506  12.965  1.00  0.00     0.107 C 
BRANCH   9  10
HETATM   10  C   UNL     2     -44.629 -54.704  13.903  1.00  0.00     0.274 C 
BRANCH  10  11
HETATM   11  N   UNL     2     -46.021 -55.147  13.922  1.00  0.00     0.078 N 
HETATM   12  H   UNL     2     -46.300 -55.402  12.947  1.00  0.00     0.312 HD
HETATM   13  H   UNL     2     -46.632 -54.359  14.236  1.00  0.00     0.312 HD
ENDBRANCH  10  11
ENDBRANCH   9  10
ENDBRANCH   1   9
TORSDOF 3
ENDMDL
MODEL 8
REMARK VINA RESULT:      -3.6      5.316      5.869
REMARK  3 active torsions:
REMARK  status: ('A' for Active; 'I' for Inactive)
REMARK    1  A    between atoms: N_3  and  C_4 
REMARK    2  A    between atoms: C_4  and  C_5 
REMARK    3  A    between atoms: C_5  and  C_6 
ROOT
HETATM    1  C   UNL     2     -41.952 -51.883  12.414  1.00  0.00     0.098 A 
HETATM    2  N   UNL     2     -42.494 -52.809  11.601  1.00  0.00    -0.288 N 
ATOM      3  HN  UNL     2     -42.048 -53.247  10.795  1.00  0.00     0.188 HD
HETATM    4  N   UNL     2     -43.720 -53.043  12.048  1.00  0.00    -0.295 N 
ATOM      5  HN  UNL     2     -44.394 -53.696  11.650  1.00  0.00     0.187 HD
HETATM    6  C   UNL     2     -43.909 -52.257  13.124  1.00  0.00     0.198 A 
HETATM    7  N   UNL     2     -42.816 -51.518  13.376  1.00  0.00    -0.340 N 
HETATM    8  H   UNL     2     -42.676 -50.823  14.143  1.00  0.00     0.168 HD
ENDROOT
BRANCH   1   9
HETATM    9  C   UNL     2     -40.564 -51.338  12.261  1.00  0.00     0.107 C 
BRANCH   9  10
HETATM   10  C   UNL     2     -40.578 -49.910  11.708  1.00  0.00     0.274 C 
BRANCH  10  11
HETATM   11  N   UNL     2     -40.449 -49.910  10.253  1.00  0.00     0.078 N 
HETATM   12  H   UNL     2     -40.092 -48.975   9.952  1.00  0.00     0.312 HD
HETATM   13  H   UNL     2     -41.390 -50.049   9.821  1.00  0.00     0.312 HD
ENDBRANCH  10  11
ENDBRANCH   9  10
ENDBRANCH   1   9
TORSDOF 3
ENDMDL
MODEL 9
REMARK VINA RESULT:      -3.4     22.624     23.599
REMARK  3 active torsions:
REMARK  status: ('A' for Active; 'I' for Inactive)
REMARK    1  A    between atoms: N_3  and  C_4 
REMARK    2  A    between atoms: C_4  and  C_5 
REMARK    3  A    between atoms: C_5  and  C_6 
ROOT
HETATM    1  C   UNL     2     -27.443 -63.003  15.402  1.00  0.00     0.098 A 
HETATM    2  N   UNL     2     -27.812 -64.280  15.187  1.00  0.00    -0.288 N 
ATOM      3  HN  UNL     2     -27.192 -65.072  15.019  1.00  0.00     0.188 HD
HETATM    4  N   UNL     2     -29.137 -64.311  15.235  1.00  0.00    -0.295 N 
ATOM      5  HN  UNL     2     -29.727 -65.133  15.112  1.00  0.00     0.187 HD
HETATM    6  C   UNL     2     -29.557 -63.055  15.477  1.00  0.00     0.198 A 
HETATM    7  N   UNL     2     -28.515 -62.214  15.585  1.00  0.00    -0.340 N 
HETATM    8  H   UNL     2     -28.539 -61.186  15.769  1.00  0.00     0.168 HD
ENDROOT
BRANCH   1   9
HETATM    9  C   UNL     2     -26.020 -62.532  15.435  1.00  0.00     0.107 C 
BRANCH   9  10
HETATM   10  C   UNL     2     -25.922 -61.069  15.880  1.00  0.00     0.274 C 
BRANCH  10  11
HETATM   11  N   UNL     2     -25.311 -60.246  14.840  1.00  0.00     0.078 N 
HETATM   12  H   UNL     2     -24.309 -60.082  15.093  1.00  0.00     0.312 HD
HETATM   13  H   UNL     2     -25.790 -59.317  14.805  1.00  0.00     0.312 HD
ENDBRANCH  10  11
ENDBRANCH   9  10
ENDBRANCH   1   9
TORSDOF 3
ENDMDL
