MODEL 1
REMARK VINA RESULT:      -6.7      0.000      0.000
REMARK  6 active torsions:
REMARK  status: ('A' for Active; 'I' for Inactive)
REMARK    1  A    between atoms: C_2  and  C_3 
REMARK    2  A    between atoms: C_8  and  N_9 
REMARK       I    between atoms: N_9  and  C_10 
REMARK    3  A    between atoms: C_10  and  C_12 
REMARK    4  A    between atoms: N_17  and  C_18 
REMARK    5  A    between atoms: C_18  and  C_19 
REMARK    6  A    between atoms: C_19  and  O_20 
ROOT
HETATM    1  C   UNL     1     -41.370 -48.922  11.277  1.00  0.00     0.116 A 
HETATM    2  C   UNL     1     -40.296 -48.041  11.775  1.00  0.00     0.042 A 
HETATM    3  C   UNL     1     -40.290 -46.786  11.327  1.00  0.00     0.078 A 
HETATM    4  C   UNL     1     -41.327 -46.314  10.387  1.00  0.00     0.262 A 
HETATM    5  O   UNL     1     -41.269 -45.161   9.969  1.00  0.00    -0.267 OA
HETATM    6  N   UNL     1     -42.316 -47.233  10.054  1.00  0.00    -0.255 N 
HETATM    7  N   UNL     1     -42.322 -48.556  10.470  1.00  0.00    -0.290 N 
ATOM      8  HN  UNL     1     -43.040 -49.210  10.158  1.00  0.00     0.187 HD
ENDROOT
BRANCH   1   9
HETATM    9  C   UNL     1     -41.331 -50.375  11.767  1.00  0.00     0.269 C 
HETATM   10  N   UNL     1     -42.532 -50.857  12.243  1.00  0.00    -0.351 N 
HETATM   11  H   UNL     1     -43.339 -50.252  12.127  1.00  0.00     0.163 HD
HETATM   12  O   UNL     1     -40.289 -51.012  11.708  1.00  0.00    -0.266 OA
BRANCH  10  13
HETATM   13  C   UNL     1     -42.701 -52.252  12.620  1.00  0.00     0.088 C 
HETATM   14  C   UNL     1     -44.183 -52.708  12.542  1.00  0.00     0.008 C 
HETATM   15  C   UNL     1     -44.227 -54.221  12.828  1.00  0.00     0.007 C 
HETATM   16  C   UNL     1     -43.642 -54.570  14.195  1.00  0.00     0.001 C 
HETATM   17  C   UNL     1     -42.227 -54.020  14.377  1.00  0.00     0.002 C 
HETATM   18  C   UNL     1     -42.093 -52.543  13.998  1.00  0.00     0.025 C 
BRANCH  14  19
HETATM   19  C   UNL     1     -45.097 -51.882  13.480  1.00  0.00     0.002 C 
HETATM   20  C   UNL     1     -46.480 -51.598  12.911  1.00  0.00     0.005 C 
ENDBRANCH  14  19
ENDBRANCH  10  13
ENDBRANCH   1   9
BRANCH   6  21
HETATM   21  C   UNL     1     -43.420 -46.810   9.200  1.00  0.00     0.178 C 
BRANCH  21  22
HETATM   22  C   UNL     1     -43.670 -47.762   8.034  1.00  0.00     0.189 C 
BRANCH  22  23
HETATM   23  O   UNL     1     -45.052 -48.135   8.032  1.00  0.00    -0.394 OA
HETATM   24  C   UNL     1     -45.739 -47.622   9.164  1.00  0.00     0.201 C 
ENDBRANCH  22  23
ENDBRANCH  21  22
ENDBRANCH   6  21
TORSDOF 6
ENDMDL
MODEL 2
REMARK VINA RESULT:      -6.2      1.147      1.473
REMARK  6 active torsions:
REMARK  status: ('A' for Active; 'I' for Inactive)
REMARK    1  A    between atoms: C_2  and  C_3 
REMARK    2  A    between atoms: C_8  and  N_9 
REMARK       I    between atoms: N_9  and  C_10 
REMARK    3  A    between atoms: C_10  and  C_12 
REMARK    4  A    between atoms: N_17  and  C_18 
REMARK    5  A    between atoms: C_18  and  C_19 
REMARK    6  A    between atoms: C_19  and  O_20 
ROOT
HETATM    1  C   UNL     1     -41.549 -49.635  11.779  1.00  0.00     0.116 A 
HETATM    2  C   UNL     1     -40.353 -49.128  12.478  1.00  0.00     0.042 A 
HETATM    3  C   UNL     1     -39.939 -47.903  12.153  1.00  0.00     0.078 A 
HETATM    4  C   UNL     1     -40.666 -47.102  11.149  1.00  0.00     0.262 A 
HETATM    5  O   UNL     1     -40.236 -45.992  10.850  1.00  0.00    -0.267 OA
HETATM    6  N   UNL     1     -41.815 -47.679  10.620  1.00  0.00    -0.255 N 
HETATM    7  N   UNL     1     -42.243 -48.966  10.906  1.00  0.00    -0.290 N 
ATOM      8  HN  UNL     1     -43.064 -49.369  10.453  1.00  0.00     0.187 HD
ENDROOT
BRANCH   1   9
HETATM    9  C   UNL     1     -41.980 -51.064  12.133  1.00  0.00     0.269 C 
HETATM   10  N   UNL     1     -43.187 -51.157  12.794  1.00  0.00    -0.351 N 
HETATM   11  H   UNL     1     -43.718 -50.297  12.888  1.00  0.00     0.163 HD
HETATM   12  O   UNL     1     -41.273 -52.011  11.819  1.00  0.00    -0.266 OA
BRANCH  10  13
HETATM   13  C   UNL     1     -43.804 -52.443  13.082  1.00  0.00     0.088 C 
HETATM   14  C   UNL     1     -45.312 -52.308  13.427  1.00  0.00     0.008 C 
HETATM   15  C   UNL     1     -45.890 -53.727  13.580  1.00  0.00     0.007 C 
HETATM   16  C   UNL     1     -45.173 -54.532  14.663  1.00  0.00     0.001 C 
HETATM   17  C   UNL     1     -43.660 -54.577  14.445  1.00  0.00     0.002 C 
HETATM   18  C   UNL     1     -43.041 -53.205  14.173  1.00  0.00     0.025 C 
BRANCH  14  19
HETATM   19  C   UNL     1     -45.547 -51.415  14.670  1.00  0.00     0.002 C 
HETATM   20  C   UNL     1     -46.954 -51.504  15.245  1.00  0.00     0.005 C 
ENDBRANCH  14  19
ENDBRANCH  10  13
ENDBRANCH   1   9
BRANCH   6  21
HETATM   21  C   UNL     1     -42.632 -46.909   9.687  1.00  0.00     0.178 C 
BRANCH  21  22
HETATM   22  C   UNL     1     -44.106 -47.301   9.723  1.00  0.00     0.189 C 
BRANCH  22  23
HETATM   23  O   UNL     1     -44.439 -47.959   8.496  1.00  0.00    -0.394 OA
HETATM   24  C   UNL     1     -43.385 -47.870   7.547  1.00  0.00     0.201 C 
ENDBRANCH  22  23
ENDBRANCH  21  22
ENDBRANCH   6  21
TORSDOF 6
ENDMDL
MODEL 3
REMARK VINA RESULT:      -6.0      1.600      3.150
REMARK  6 active torsions:
REMARK  status: ('A' for Active; 'I' for Inactive)
REMARK    1  A    between atoms: C_2  and  C_3 
REMARK    2  A    between atoms: C_8  and  N_9 
REMARK       I    between atoms: N_9  and  C_10 
REMARK    3  A    between atoms: C_10  and  C_12 
REMARK    4  A    between atoms: N_17  and  C_18 
REMARK    5  A    between atoms: C_18  and  C_19 
REMARK    6  A    between atoms: C_19  and  O_20 
ROOT
HETATM    1  C   UNL     1     -41.740 -48.462  11.184  1.00  0.00     0.116 A 
HETATM    2  C   UNL     1     -43.146 -48.111  10.906  1.00  0.00     0.042 A 
HETATM    3  C   UNL     1     -43.390 -46.856  10.528  1.00  0.00     0.078 A 
HETATM    4  C   UNL     1     -42.290 -45.882  10.386  1.00  0.00     0.262 A 
HETATM    5  O   UNL     1     -42.557 -44.727  10.069  1.00  0.00    -0.267 OA
HETATM    6  N   UNL     1     -41.008 -46.368  10.616  1.00  0.00    -0.255 N 
HETATM    7  N   UNL     1     -40.729 -47.655  11.053  1.00  0.00    -0.290 N 
ATOM      8  HN  UNL     1     -39.776 -47.953  11.260  1.00  0.00     0.187 HD
ENDROOT
BRANCH   1   9
HETATM    9  C   UNL     1     -41.487 -49.897  11.664  1.00  0.00     0.269 C 
HETATM   10  N   UNL     1     -42.559 -50.495  12.291  1.00  0.00    -0.351 N 
HETATM   11  H   UNL     1     -43.434 -49.978  12.282  1.00  0.00     0.163 HD
HETATM   12  O   UNL     1     -40.401 -50.423  11.468  1.00  0.00    -0.266 OA
BRANCH  10  13
HETATM   13  C   UNL     1     -42.532 -51.895  12.685  1.00  0.00     0.088 C 
HETATM   14  C   UNL     1     -43.936 -52.554  12.617  1.00  0.00     0.008 C 
HETATM   15  C   UNL     1     -43.769 -54.055  12.921  1.00  0.00     0.007 C 
HETATM   16  C   UNL     1     -43.139 -54.302  14.290  1.00  0.00     0.001 C 
HETATM   17  C   UNL     1     -41.814 -53.558  14.461  1.00  0.00     0.002 C 
HETATM   18  C   UNL     1     -41.888 -52.081  14.065  1.00  0.00     0.025 C 
BRANCH  14  19
HETATM   19  C   UNL     1     -44.955 -51.852  13.547  1.00  0.00     0.002 C 
HETATM   20  C   UNL     1     -46.305 -51.578  12.900  1.00  0.00     0.005 C 
ENDBRANCH  14  19
ENDBRANCH  10  13
ENDBRANCH   1   9
BRANCH   6  21
HETATM   21  C   UNL     1     -39.865 -45.485  10.409  1.00  0.00     0.178 C 
BRANCH  21  22
HETATM   22  C   UNL     1     -39.511 -44.669  11.649  1.00  0.00     0.189 C 
BRANCH  22  23
HETATM   23  O   UNL     1     -39.866 -45.422  12.814  1.00  0.00    -0.394 OA
HETATM   24  C   UNL     1     -38.851 -45.371  13.806  1.00  0.00     0.201 C 
ENDBRANCH  22  23
ENDBRANCH  21  22
ENDBRANCH   6  21
TORSDOF 6
ENDMDL
MODEL 4
REMARK VINA RESULT:      -5.8      3.372      4.462
REMARK  6 active torsions:
REMARK  status: ('A' for Active; 'I' for Inactive)
REMARK    1  A    between atoms: C_2  and  C_3 
REMARK    2  A    between atoms: C_8  and  N_9 
REMARK       I    between atoms: N_9  and  C_10 
REMARK    3  A    between atoms: C_10  and  C_12 
REMARK    4  A    between atoms: N_17  and  C_18 
REMARK    5  A    between atoms: C_18  and  C_19 
REMARK    6  A    between atoms: C_19  and  O_20 
ROOT
HETATM    1  C   UNL     1     -42.234 -47.807  10.760  1.00  0.00     0.116 A 
HETATM    2  C   UNL     1     -41.564 -46.495  10.830  1.00  0.00     0.042 A 
HETATM    3  C   UNL     1     -42.171 -45.475  10.224  1.00  0.00     0.078 A 
HETATM    4  C   UNL     1     -43.460 -45.666   9.531  1.00  0.00     0.262 A 
HETATM    5  O   UNL     1     -43.972 -44.711   8.955  1.00  0.00    -0.267 OA
HETATM    6  N   UNL     1     -44.009 -46.941   9.601  1.00  0.00    -0.255 N 
HETATM    7  N   UNL     1     -43.380 -48.030  10.186  1.00  0.00    -0.290 N 
ATOM      8  HN  UNL     1     -43.797 -48.961  10.167  1.00  0.00     0.187 HD
ENDROOT
BRANCH   1   9
HETATM    9  C   UNL     1     -41.496 -48.977  11.422  1.00  0.00     0.269 C 
HETATM   10  N   UNL     1     -40.123 -48.856  11.444  1.00  0.00    -0.351 N 
HETATM   11  H   UNL     1     -39.742 -47.972  11.122  1.00  0.00     0.163 HD
HETATM   12  O   UNL     1     -42.130 -49.913  11.888  1.00  0.00    -0.266 OA
BRANCH  10  13
HETATM   13  C   UNL     1     -39.282 -49.809  12.153  1.00  0.00     0.088 C 
HETATM   14  C   UNL     1     -39.099 -49.436  13.648  1.00  0.00     0.008 C 
HETATM   15  C   UNL     1     -38.312 -50.573  14.326  1.00  0.00     0.007 C 
HETATM   16  C   UNL     1     -36.951 -50.806  13.673  1.00  0.00     0.001 C 
HETATM   17  C   UNL     1     -37.065 -51.041  12.166  1.00  0.00     0.002 C 
HETATM   18  C   UNL     1     -37.932 -50.003  11.450  1.00  0.00     0.025 C 
BRANCH  14  19
HETATM   19  C   UNL     1     -38.439 -48.047  13.825  1.00  0.00     0.002 C 
HETATM   20  C   UNL     1     -38.953 -47.260  15.023  1.00  0.00     0.005 C 
ENDBRANCH  14  19
ENDBRANCH  10  13
ENDBRANCH   1   9
BRANCH   6  21
HETATM   21  C   UNL     1     -45.323 -47.182   9.014  1.00  0.00     0.178 C 
BRANCH  21  22
HETATM   22  C   UNL     1     -45.285 -48.170   7.852  1.00  0.00     0.189 C 
BRANCH  22  23
HETATM   23  O   UNL     1     -46.519 -48.896   7.823  1.00  0.00    -0.394 OA
HETATM   24  C   UNL     1     -47.088 -49.021   9.118  1.00  0.00     0.201 C 
ENDBRANCH  22  23
ENDBRANCH  21  22
ENDBRANCH   6  21
TORSDOF 6
ENDMDL
MODEL 5
REMARK VINA RESULT:      -5.8      2.232      6.623
REMARK  6 active torsions:
REMARK  status: ('A' for Active; 'I' for Inactive)
REMARK    1  A    between atoms: C_2  and  C_3 
REMARK    2  A    between atoms: C_8  and  N_9 
REMARK       I    between atoms: N_9  and  C_10 
REMARK    3  A    between atoms: C_10  and  C_12 
REMARK    4  A    between atoms: N_17  and  C_18 
REMARK    5  A    between atoms: C_18  and  C_19 
REMARK    6  A    between atoms: C_19  and  O_20 
ROOT
HETATM    1  C   UNL     1     -41.492 -51.459  12.284  1.00  0.00     0.116 A 
HETATM    2  C   UNL     1     -40.427 -52.012  13.143  1.00  0.00     0.042 A 
HETATM    3  C   UNL     1     -40.708 -53.135  13.804  1.00  0.00     0.078 A 
HETATM    4  C   UNL     1     -42.023 -53.788  13.659  1.00  0.00     0.262 A 
HETATM    5  O   UNL     1     -42.258 -54.803  14.309  1.00  0.00    -0.267 OA
HETATM    6  N   UNL     1     -42.907 -53.194  12.765  1.00  0.00    -0.255 N 
HETATM    7  N   UNL     1     -42.659 -52.003  12.099  1.00  0.00    -0.290 N 
ATOM      8  HN  UNL     1     -43.358 -51.575  11.493  1.00  0.00     0.187 HD
ENDROOT
BRANCH   1   9
HETATM    9  C   UNL     1     -41.165 -50.142  11.571  1.00  0.00     0.269 C 
HETATM   10  N   UNL     1     -42.251 -49.323  11.343  1.00  0.00    -0.351 N 
HETATM   11  H   UNL     1     -43.132 -49.615  11.757  1.00  0.00     0.163 HD
HETATM   12  O   UNL     1     -40.011 -49.885  11.259  1.00  0.00    -0.266 OA
BRANCH  10  13
HETATM   13  C   UNL     1     -42.098 -47.982  10.800  1.00  0.00     0.088 C 
HETATM   14  C   UNL     1     -41.858 -46.921  11.907  1.00  0.00     0.008 C 
HETATM   15  C   UNL     1     -41.578 -45.573  11.218  1.00  0.00     0.007 C 
HETATM   16  C   UNL     1     -42.726 -45.135  10.311  1.00  0.00     0.001 C 
HETATM   17  C   UNL     1     -43.097 -46.208   9.287  1.00  0.00     0.002 C 
HETATM   18  C   UNL     1     -43.278 -47.599   9.898  1.00  0.00     0.025 C 
BRANCH  14  19
HETATM   19  C   UNL     1     -43.030 -46.858  12.917  1.00  0.00     0.002 C 
HETATM   20  C   UNL     1     -42.681 -47.363  14.310  1.00  0.00     0.005 C 
ENDBRANCH  14  19
ENDBRANCH  10  13
ENDBRANCH   1   9
BRANCH   6  21
HETATM   21  C   UNL     1     -44.193 -53.833  12.506  1.00  0.00     0.178 C 
BRANCH  21  22
HETATM   22  C   UNL     1     -45.299 -53.346  13.437  1.00  0.00     0.189 C 
BRANCH  22  23
HETATM   23  O   UNL     1     -45.374 -51.919  13.357  1.00  0.00    -0.394 OA
HETATM   24  C   UNL     1     -46.492 -51.408  14.069  1.00  0.00     0.201 C 
ENDBRANCH  22  23
ENDBRANCH  21  22
ENDBRANCH   6  21
TORSDOF 6
ENDMDL
MODEL 6
REMARK VINA RESULT:      -5.7      2.210      3.300
REMARK  6 active torsions:
REMARK  status: ('A' for Active; 'I' for Inactive)
REMARK    1  A    between atoms: C_2  and  C_3 
REMARK    2  A    between atoms: C_8  and  N_9 
REMARK       I    between atoms: N_9  and  C_10 
REMARK    3  A    between atoms: C_10  and  C_12 
REMARK    4  A    between atoms: N_17  and  C_18 
REMARK    5  A    between atoms: C_18  and  C_19 
REMARK    6  A    between atoms: C_19  and  O_20 
ROOT
HETATM    1  C   UNL     1     -42.576 -48.510  11.714  1.00  0.00     0.116 A 
HETATM    2  C   UNL     1     -41.457 -47.564  11.889  1.00  0.00     0.042 A 
HETATM    3  C   UNL     1     -41.478 -46.460  11.142  1.00  0.00     0.078 A 
HETATM    4  C   UNL     1     -42.585 -46.207  10.199  1.00  0.00     0.262 A 
HETATM    5  O   UNL     1     -42.553 -45.197   9.503  1.00  0.00    -0.267 OA
HETATM    6  N   UNL     1     -43.606 -47.151  10.185  1.00  0.00    -0.255 N 
HETATM    7  N   UNL     1     -43.589 -48.328  10.918  1.00  0.00    -0.290 N 
ATOM      8  HN  UNL     1     -44.335 -49.019  10.836  1.00  0.00     0.187 HD
ENDROOT
BRANCH   1   9
HETATM    9  C   UNL     1     -42.508 -49.796  12.547  1.00  0.00     0.269 C 
HETATM   10  N   UNL     1     -41.379 -50.560  12.341  1.00  0.00    -0.351 N 
HETATM   11  H   UNL     1     -40.661 -50.155  11.747  1.00  0.00     0.163 HD
HETATM   12  O   UNL     1     -43.410 -50.066  13.327  1.00  0.00    -0.266 OA
BRANCH  10  13
HETATM   13  C   UNL     1     -41.094 -51.738  13.146  1.00  0.00     0.088 C 
HETATM   14  C   UNL     1     -39.846 -51.546  14.048  1.00  0.00     0.008 C 
HETATM   15  C   UNL     1     -39.717 -52.790  14.948  1.00  0.00     0.007 C 
HETATM   16  C   UNL     1     -39.588 -54.079  14.139  1.00  0.00     0.001 C 
HETATM   17  C   UNL     1     -40.726 -54.247  13.131  1.00  0.00     0.002 C 
HETATM   18  C   UNL     1     -40.978 -52.999  12.281  1.00  0.00     0.025 C 
BRANCH  14  19
HETATM   19  C   UNL     1     -38.569 -51.256  13.222  1.00  0.00     0.002 C 
HETATM   20  C   UNL     1     -37.492 -50.496  13.984  1.00  0.00     0.005 C 
ENDBRANCH  14  19
ENDBRANCH  10  13
ENDBRANCH   1   9
BRANCH   6  21
HETATM   21  C   UNL     1     -44.774 -46.922   9.342  1.00  0.00     0.178 C 
BRANCH  21  22
HETATM   22  C   UNL     1     -44.914 -47.953   8.225  1.00  0.00     0.189 C 
BRANCH  22  23
HETATM   23  O   UNL     1     -46.294 -48.316   8.104  1.00  0.00    -0.394 OA
HETATM   24  C   UNL     1     -47.105 -47.633   9.050  1.00  0.00     0.201 C 
ENDBRANCH  22  23
ENDBRANCH  21  22
ENDBRANCH   6  21
TORSDOF 6
ENDMDL
MODEL 7
REMARK VINA RESULT:      -5.7      2.497      7.312
REMARK  6 active torsions:
REMARK  status: ('A' for Active; 'I' for Inactive)
REMARK    1  A    between atoms: C_2  and  C_3 
REMARK    2  A    between atoms: C_8  and  N_9 
REMARK       I    between atoms: N_9  and  C_10 
REMARK    3  A    between atoms: C_10  and  C_12 
REMARK    4  A    between atoms: N_17  and  C_18 
REMARK    5  A    between atoms: C_18  and  C_19 
REMARK    6  A    between atoms: C_19  and  O_20 
ROOT
HETATM    1  C   UNL     1     -43.787 -51.063  13.282  1.00  0.00     0.116 A 
HETATM    2  C   UNL     1     -45.245 -51.157  13.074  1.00  0.00     0.042 A 
HETATM    3  C   UNL     1     -45.769 -52.381  13.025  1.00  0.00     0.078 A 
HETATM    4  C   UNL     1     -44.917 -53.576  13.187  1.00  0.00     0.262 A 
HETATM    5  O   UNL     1     -45.430 -54.688  13.102  1.00  0.00    -0.267 OA
HETATM    6  N   UNL     1     -43.572 -53.337  13.443  1.00  0.00    -0.255 N 
HETATM    7  N   UNL     1     -42.992 -52.078  13.456  1.00  0.00    -0.290 N 
ATOM      8  HN  UNL     1     -41.989 -51.953  13.595  1.00  0.00     0.187 HD
ENDROOT
BRANCH   1   9
HETATM    9  C   UNL     1     -43.198 -49.648  13.288  1.00  0.00     0.269 C 
HETATM   10  N   UNL     1     -42.603 -49.264  12.105  1.00  0.00    -0.351 N 
HETATM   11  H   UNL     1     -42.703 -49.902  11.321  1.00  0.00     0.163 HD
HETATM   12  O   UNL     1     -43.286 -48.953  14.291  1.00  0.00    -0.266 OA
BRANCH  10  13
HETATM   13  C   UNL     1     -42.115 -47.909  11.898  1.00  0.00     0.088 C 
HETATM   14  C   UNL     1     -43.114 -47.040  11.088  1.00  0.00     0.008 C 
HETATM   15  C   UNL     1     -42.563 -45.603  11.044  1.00  0.00     0.007 C 
HETATM   16  C   UNL     1     -41.174 -45.533  10.412  1.00  0.00     0.001 C 
HETATM   17  C   UNL     1     -40.182 -46.480  11.088  1.00  0.00     0.002 C 
HETATM   18  C   UNL     1     -40.718 -47.902  11.263  1.00  0.00     0.025 C 
BRANCH  14  19
HETATM   19  C   UNL     1     -43.393 -47.630   9.683  1.00  0.00     0.002 C 
HETATM   20  C   UNL     1     -44.404 -46.839   8.864  1.00  0.00     0.005 C 
ENDBRANCH  14  19
ENDBRANCH  10  13
ENDBRANCH   1   9
BRANCH   6  21
HETATM   21  C   UNL     1     -42.686 -54.468  13.701  1.00  0.00     0.178 C 
BRANCH  21  22
HETATM   22  C   UNL     1     -41.237 -54.191  13.310  1.00  0.00     0.189 C 
BRANCH  22  23
HETATM   23  O   UNL     1     -40.541 -53.682  14.453  1.00  0.00    -0.394 OA
HETATM   24  C   UNL     1     -39.151 -53.534  14.201  1.00  0.00     0.201 C 
ENDBRANCH  22  23
ENDBRANCH  21  22
ENDBRANCH   6  21
TORSDOF 6
ENDMDL
MODEL 8
REMARK VINA RESULT:      -5.6      2.550      3.698
REMARK  6 active torsions:
REMARK  status: ('A' for Active; 'I' for Inactive)
REMARK    1  A    between atoms: C_2  and  C_3 
REMARK    2  A    between atoms: C_8  and  N_9 
REMARK       I    between atoms: N_9  and  C_10 
REMARK    3  A    between atoms: C_10  and  C_12 
REMARK    4  A    between atoms: N_17  and  C_18 
REMARK    5  A    between atoms: C_18  and  C_19 
REMARK    6  A    between atoms: C_19  and  O_20 
ROOT
HETATM    1  C   UNL     1     -39.479 -50.882  13.731  1.00  0.00     0.116 A 
HETATM    2  C   UNL     1     -38.179 -51.009  14.418  1.00  0.00     0.042 A 
HETATM    3  C   UNL     1     -37.464 -49.895  14.566  1.00  0.00     0.078 A 
HETATM    4  C   UNL     1     -37.971 -48.600  14.072  1.00  0.00     0.262 A 
HETATM    5  O   UNL     1     -37.269 -47.600  14.196  1.00  0.00    -0.267 OA
HETATM    6  N   UNL     1     -39.240 -48.615  13.505  1.00  0.00    -0.255 N 
HETATM    7  N   UNL     1     -39.987 -49.765  13.298  1.00  0.00    -0.290 N 
ATOM      8  HN  UNL     1     -40.892 -49.737  12.828  1.00  0.00     0.187 HD
ENDROOT
BRANCH   1   9
HETATM    9  C   UNL     1     -40.264 -52.183  13.528  1.00  0.00     0.269 C 
HETATM   10  N   UNL     1     -41.584 -52.130  13.923  1.00  0.00    -0.351 N 
HETATM   11  H   UNL     1     -41.934 -51.219  14.207  1.00  0.00     0.163 HD
HETATM   12  O   UNL     1     -39.713 -53.159  13.039  1.00  0.00    -0.266 OA
BRANCH  10  13
HETATM   13  C   UNL     1     -42.502 -53.231  13.676  1.00  0.00     0.088 C 
HETATM   14  C   UNL     1     -43.816 -52.761  12.997  1.00  0.00     0.008 C 
HETATM   15  C   UNL     1     -44.649 -54.013  12.662  1.00  0.00     0.007 C 
HETATM   16  C   UNL     1     -44.968 -54.846  13.903  1.00  0.00     0.001 C 
HETATM   17  C   UNL     1     -43.710 -55.218  14.689  1.00  0.00     0.002 C 
HETATM   18  C   UNL     1     -42.783 -54.030  14.955  1.00  0.00     0.025 C 
BRANCH  14  19
HETATM   19  C   UNL     1     -44.583 -51.731  13.861  1.00  0.00     0.002 C 
HETATM   20  C   UNL     1     -45.988 -51.422  13.363  1.00  0.00     0.005 C 
ENDBRANCH  14  19
ENDBRANCH  10  13
ENDBRANCH   1   9
BRANCH   6  21
HETATM   21  C   UNL     1     -39.842 -47.358  13.074  1.00  0.00     0.178 C 
BRANCH  21  22
HETATM   22  C   UNL     1     -39.905 -47.216  11.556  1.00  0.00     0.189 C 
BRANCH  22  23
HETATM   23  O   UNL     1     -40.754 -48.242  11.032  1.00  0.00    -0.394 OA
HETATM   24  C   UNL     1     -41.978 -47.714  10.540  1.00  0.00     0.201 C 
ENDBRANCH  22  23
ENDBRANCH  21  22
ENDBRANCH   6  21
TORSDOF 6
ENDMDL
MODEL 9
REMARK VINA RESULT:      -5.4      4.275      8.105
REMARK  6 active torsions:
REMARK  status: ('A' for Active; 'I' for Inactive)
REMARK    1  A    between atoms: C_2  and  C_3 
REMARK    2  A    between atoms: C_8  and  N_9 
REMARK       I    between atoms: N_9  and  C_10 
REMARK    3  A    between atoms: C_10  and  C_12 
REMARK    4  A    between atoms: N_17  and  C_18 
REMARK    5  A    between atoms: C_18  and  C_19 
REMARK    6  A    between atoms: C_19  and  O_20 
ROOT
HETATM    1  C   UNL     1     -42.847 -53.665  13.748  1.00  0.00     0.116 A 
HETATM    2  C   UNL     1     -43.972 -53.977  12.847  1.00  0.00     0.042 A 
HETATM    3  C   UNL     1     -45.120 -54.340  13.419  1.00  0.00     0.078 A 
HETATM    4  C   UNL     1     -45.244 -54.406  14.888  1.00  0.00     0.262 A 
HETATM    5  O   UNL     1     -46.307 -54.777  15.379  1.00  0.00    -0.267 OA
HETATM    6  N   UNL     1     -44.124 -54.021  15.615  1.00  0.00    -0.255 N 
HETATM    7  N   UNL     1     -42.905 -53.682  15.048  1.00  0.00    -0.290 N 
ATOM      8  HN  UNL     1     -42.092 -53.457  15.622  1.00  0.00     0.187 HD
ENDROOT
BRANCH   1   9
HETATM    9  C   UNL     1     -41.522 -53.297  13.069  1.00  0.00     0.269 C 
HETATM   10  N   UNL     1     -41.221 -51.951  13.081  1.00  0.00    -0.351 N 
HETATM   11  H   UNL     1     -41.840 -51.354  13.622  1.00  0.00     0.163 HD
HETATM   12  O   UNL     1     -40.822 -54.172  12.580  1.00  0.00    -0.266 OA
BRANCH  10  13
HETATM   13  C   UNL     1     -39.942 -51.449  12.601  1.00  0.00     0.088 C 
HETATM   14  C   UNL     1     -38.828 -51.551  13.676  1.00  0.00     0.008 C 
HETATM   15  C   UNL     1     -37.500 -51.122  13.023  1.00  0.00     0.007 C 
HETATM   16  C   UNL     1     -37.562 -49.702  12.464  1.00  0.00     0.001 C 
HETATM   17  C   UNL     1     -38.734 -49.509  11.501  1.00  0.00     0.002 C 
HETATM   18  C   UNL     1     -40.067 -50.022  12.051  1.00  0.00     0.025 C 
BRANCH  14  19
HETATM   19  C   UNL     1     -39.171 -50.741  14.950  1.00  0.00     0.002 C 
HETATM   20  C   UNL     1     -39.094 -51.546  16.241  1.00  0.00     0.005 C 
ENDBRANCH  14  19
ENDBRANCH  10  13
ENDBRANCH   1   9
BRANCH   6  21
HETATM   21  C   UNL     1     -44.202 -53.978  17.072  1.00  0.00     0.178 C 
BRANCH  21  22
HETATM   22  C   UNL     1     -43.164 -54.867  17.751  1.00  0.00     0.189 C 
BRANCH  22  23
HETATM   23  O   UNL     1     -42.965 -56.037  16.951  1.00  0.00    -0.394 OA
HETATM   24  C   UNL     1     -41.609 -56.462  16.965  1.00  0.00     0.201 C 
ENDBRANCH  22  23
ENDBRANCH  21  22
ENDBRANCH   6  21
TORSDOF 6
ENDMDL
