MODEL 1
REMARK VINA RESULT:      -7.2      0.000      0.000
REMARK  4 active torsions:
REMARK  status: ('A' for Active; 'I' for Inactive)
REMARK       I    between atoms: N_2  and  C_3 
REMARK    1  A    between atoms: C_3  and  C_5 
REMARK    2  A    between atoms: C_9  and  N_10 
REMARK       I    between atoms: N_10  and  C_11 
REMARK       I    between atoms: C_11  and  N_13 
REMARK    3  A    between atoms: N_13  and  C_14 
REMARK    4  A    between atoms: C_18  and  C_20 
ROOT
HETATM    1  N   UNL     1     -41.411 -50.661  11.788  1.00  0.00    -0.295 N 
HETATM    2  C   UNL     1     -41.882 -51.806  12.366  1.00  0.00     0.322 C 
HETATM    3  O   UNL     1     -41.275 -52.861  12.211  1.00  0.00    -0.247 OA
HETATM    4  N   UNL     1     -43.090 -51.702  12.991  1.00  0.00    -0.338 N 
HETATM    5  H   UNL     1     -40.636 -50.821  11.161  1.00  0.00     0.172 HD
HETATM    6  H   UNL     1     -43.345 -50.749  13.228  1.00  0.00     0.164 HD
ENDROOT
BRANCH   1   7
HETATM    7  C   UNL     1     -41.942 -49.368  11.892  1.00  0.00     0.109 A 
HETATM    8  C   UNL     1     -41.608 -48.608  13.005  1.00  0.00     0.049 A 
HETATM    9  C   UNL     1     -42.078 -47.298  13.090  1.00  0.00     0.006 A 
HETATM   10  C   UNL     1     -42.900 -46.799  12.083  1.00  0.00     0.035 A 
HETATM   11  C   UNL     1     -43.215 -47.638  11.026  1.00  0.00     0.102 A 
HETATM   12  N   UNL     1     -42.740 -48.910  10.906  1.00  0.00    -0.338 N 
ATOM     13  HN  UNL     1     -42.978 -49.491  10.103  1.00  0.00     0.167 HD
BRANCH  11  14
HETATM   14  C   UNL     1     -44.119 -47.166   9.928  1.00  0.00     0.267 C 
HETATM   15  N   UNL     1     -45.308 -47.863   9.815  1.00  0.00    -0.360 N 
HETATM   16  C   UNL     1     -46.310 -47.479   8.855  1.00  0.00     0.149 C 
HETATM   17  H   UNL     1     -45.549 -48.488  10.573  1.00  0.00     0.162 HD
HETATM   18  O   UNL     1     -43.809 -46.224   9.213  1.00  0.00    -0.266 OA
ENDBRANCH  11  14
ENDBRANCH   1   7
BRANCH   4  19
HETATM   19  C   UNL     1     -43.901 -52.803  13.476  1.00  0.00     0.086 C 
HETATM   20  C   UNL     1     -45.033 -53.156  12.501  1.00  0.00     0.025 C 
HETATM   21  C   UNL     1     -45.987 -51.978  12.330  1.00  0.00     0.003 C 
HETATM   22  C   UNL     1     -46.622 -51.598  13.663  1.00  0.00     0.014 C 
HETATM   23  C   UNL     1     -45.594 -51.350  14.780  1.00  0.00     0.095 C 
HETATM   24  C   UNL     1     -44.515 -52.456  14.844  1.00  0.00     0.038 C 
BRANCH  23  25
HETATM   25  C   UNL     1     -46.292 -51.167  16.134  1.00  0.00     0.391 C 
HETATM   26  F   UNL     1     -45.869 -50.059  16.784  1.00  0.00    -0.171 F 
HETATM   27  F   UNL     1     -47.634 -51.066  16.010  1.00  0.00    -0.171 F 
HETATM   28  F   UNL     1     -46.044 -52.221  16.944  1.00  0.00    -0.171 F 
ENDBRANCH  23  25
ENDBRANCH   4  19
TORSDOF 4
ENDMDL
MODEL 2
REMARK VINA RESULT:      -6.9      1.437      1.789
REMARK  4 active torsions:
REMARK  status: ('A' for Active; 'I' for Inactive)
REMARK       I    between atoms: N_2  and  C_3 
REMARK    1  A    between atoms: C_3  and  C_5 
REMARK    2  A    between atoms: C_9  and  N_10 
REMARK       I    between atoms: N_10  and  C_11 
REMARK       I    between atoms: C_11  and  N_13 
REMARK    3  A    between atoms: N_13  and  C_14 
REMARK    4  A    between atoms: C_18  and  C_20 
ROOT
HETATM    1  N   UNL     1     -41.406 -51.216  12.287  1.00  0.00    -0.295 N 
HETATM    2  C   UNL     1     -42.177 -52.321  12.519  1.00  0.00     0.322 C 
HETATM    3  O   UNL     1     -41.663 -53.435  12.517  1.00  0.00    -0.247 OA
HETATM    4  N   UNL     1     -43.519 -52.097  12.621  1.00  0.00    -0.338 N 
HETATM    5  H   UNL     1     -40.463 -51.441  12.006  1.00  0.00     0.172 HD
HETATM    6  H   UNL     1     -43.756 -51.132  12.828  1.00  0.00     0.164 HD
ENDROOT
BRANCH   1   7
HETATM    7  C   UNL     1     -41.808 -49.873  12.296  1.00  0.00     0.109 A 
HETATM    8  C   UNL     1     -41.875 -49.216  13.517  1.00  0.00     0.049 A 
HETATM    9  C   UNL     1     -42.213 -47.863  13.533  1.00  0.00     0.006 A 
HETATM   10  C   UNL     1     -42.513 -47.217  12.337  1.00  0.00     0.035 A 
HETATM   11  C   UNL     1     -42.458 -47.959  11.167  1.00  0.00     0.102 A 
HETATM   12  N   UNL     1     -42.099 -49.272  11.124  1.00  0.00    -0.338 N 
ATOM     13  HN  UNL     1     -42.052 -49.781  10.241  1.00  0.00     0.167 HD
BRANCH  11  14
HETATM   14  C   UNL     1     -42.800 -47.326   9.853  1.00  0.00     0.267 C 
HETATM   15  N   UNL     1     -42.916 -48.209   8.795  1.00  0.00    -0.360 N 
HETATM   16  C   UNL     1     -43.312 -47.758   7.486  1.00  0.00     0.149 C 
HETATM   17  H   UNL     1     -42.947 -49.195   9.020  1.00  0.00     0.162 HD
HETATM   18  O   UNL     1     -42.973 -46.119   9.757  1.00  0.00    -0.266 OA
ENDBRANCH  11  14
ENDBRANCH   1   7
BRANCH   4  19
HETATM   19  C   UNL     1     -44.557 -53.110  12.637  1.00  0.00     0.086 C 
HETATM   20  C   UNL     1     -45.933 -52.528  12.286  1.00  0.00     0.025 C 
HETATM   21  C   UNL     1     -46.355 -51.480  13.311  1.00  0.00     0.003 C 
HETATM   22  C   UNL     1     -46.451 -52.093  14.703  1.00  0.00     0.014 C 
HETATM   23  C   UNL     1     -45.175 -52.836  15.132  1.00  0.00     0.095 C 
HETATM   24  C   UNL     1     -44.638 -53.773  14.024  1.00  0.00     0.038 C 
BRANCH  23  25
HETATM   25  C   UNL     1     -45.399 -53.594  16.447  1.00  0.00     0.391 C 
HETATM   26  F   UNL     1     -44.276 -54.209  16.882  1.00  0.00    -0.171 F 
HETATM   27  F   UNL     1     -45.817 -52.781  17.442  1.00  0.00    -0.171 F 
HETATM   28  F   UNL     1     -46.341 -54.552  16.291  1.00  0.00    -0.171 F 
ENDBRANCH  23  25
ENDBRANCH   4  19
TORSDOF 4
ENDMDL
MODEL 3
REMARK VINA RESULT:      -6.8      1.906      2.505
REMARK  4 active torsions:
REMARK  status: ('A' for Active; 'I' for Inactive)
REMARK       I    between atoms: N_2  and  C_3 
REMARK    1  A    between atoms: C_3  and  C_5 
REMARK    2  A    between atoms: C_9  and  N_10 
REMARK       I    between atoms: N_10  and  C_11 
REMARK       I    between atoms: C_11  and  N_13 
REMARK    3  A    between atoms: N_13  and  C_14 
REMARK    4  A    between atoms: C_18  and  C_20 
ROOT
HETATM    1  N   UNL     1     -39.736 -48.953  11.092  1.00  0.00    -0.295 N 
HETATM    2  C   UNL     1     -39.617 -49.930  12.040  1.00  0.00     0.322 C 
HETATM    3  O   UNL     1     -38.602 -50.619  12.082  1.00  0.00    -0.247 OA
HETATM    4  N   UNL     1     -40.721 -50.145  12.812  1.00  0.00    -0.338 N 
HETATM    5  H   UNL     1     -38.992 -48.969  10.409  1.00  0.00     0.172 HD
HETATM    6  H   UNL     1     -41.373 -49.367  12.815  1.00  0.00     0.164 HD
ENDROOT
BRANCH   1   7
HETATM    7  C   UNL     1     -40.792 -48.048  10.923  1.00  0.00     0.109 A 
HETATM    8  C   UNL     1     -40.809 -46.903  11.708  1.00  0.00     0.049 A 
HETATM    9  C   UNL     1     -41.819 -45.964  11.505  1.00  0.00     0.006 A 
HETATM   10  C   UNL     1     -42.806 -46.213  10.554  1.00  0.00     0.035 A 
HETATM   11  C   UNL     1     -42.734 -47.399   9.840  1.00  0.00     0.102 A 
HETATM   12  N   UNL     1     -41.738 -48.315   9.999  1.00  0.00    -0.338 N 
ATOM     13  HN  UNL     1     -41.708 -49.168   9.441  1.00  0.00     0.167 HD
BRANCH  11  14
HETATM   14  C   UNL     1     -43.784 -47.736   8.826  1.00  0.00     0.267 C 
HETATM   15  N   UNL     1     -45.047 -47.951   9.346  1.00  0.00    -0.360 N 
HETATM   16  C   UNL     1     -46.173 -48.211   8.488  1.00  0.00     0.149 C 
HETATM   17  H   UNL     1     -45.198 -47.686  10.311  1.00  0.00     0.162 HD
HETATM   18  O   UNL     1     -43.517 -47.795   7.634  1.00  0.00    -0.266 OA
ENDBRANCH  11  14
ENDBRANCH   1   7
BRANCH   4  19
HETATM   19  C   UNL     1     -40.928 -51.258  13.719  1.00  0.00     0.086 C 
HETATM   20  C   UNL     1     -40.997 -52.599  12.976  1.00  0.00     0.025 C 
HETATM   21  C   UNL     1     -42.177 -52.622  12.009  1.00  0.00     0.003 C 
HETATM   22  C   UNL     1     -43.492 -52.437  12.757  1.00  0.00     0.014 C 
HETATM   23  C   UNL     1     -43.511 -51.191  13.658  1.00  0.00     0.095 C 
HETATM   24  C   UNL     1     -42.231 -51.065  14.517  1.00  0.00     0.038 C 
BRANCH  23  25
HETATM   25  C   UNL     1     -44.775 -51.165  14.528  1.00  0.00     0.391 C 
HETATM   26  F   UNL     1     -44.722 -50.206  15.480  1.00  0.00    -0.171 F 
HETATM   27  F   UNL     1     -45.893 -50.943  13.802  1.00  0.00    -0.171 F 
HETATM   28  F   UNL     1     -44.940 -52.347  15.165  1.00  0.00    -0.171 F 
ENDBRANCH  23  25
ENDBRANCH   4  19
TORSDOF 4
ENDMDL
MODEL 4
REMARK VINA RESULT:      -6.7      3.577      5.960
REMARK  4 active torsions:
REMARK  status: ('A' for Active; 'I' for Inactive)
REMARK       I    between atoms: N_2  and  C_3 
REMARK    1  A    between atoms: C_3  and  C_5 
REMARK    2  A    between atoms: C_9  and  N_10 
REMARK       I    between atoms: N_10  and  C_11 
REMARK       I    between atoms: C_11  and  N_13 
REMARK    3  A    between atoms: N_13  and  C_14 
REMARK    4  A    between atoms: C_18  and  C_20 
ROOT
HETATM    1  N   UNL     1     -41.137 -50.980  12.959  1.00  0.00    -0.295 N 
HETATM    2  C   UNL     1     -40.699 -50.215  11.913  1.00  0.00     0.322 C 
HETATM    3  O   UNL     1     -39.538 -50.315  11.529  1.00  0.00    -0.247 OA
HETATM    4  N   UNL     1     -41.584 -49.290  11.443  1.00  0.00    -0.338 N 
HETATM    5  H   UNL     1     -40.397 -51.492  13.413  1.00  0.00     0.172 HD
HETATM    6  H   UNL     1     -42.547 -49.482  11.697  1.00  0.00     0.164 HD
ENDROOT
BRANCH   1   7
HETATM    7  C   UNL     1     -42.429 -51.032  13.499  1.00  0.00     0.109 A 
HETATM    8  C   UNL     1     -42.640 -50.475  14.753  1.00  0.00     0.049 A 
HETATM    9  C   UNL     1     -43.933 -50.464  15.274  1.00  0.00     0.006 A 
HETATM   10  C   UNL     1     -44.970 -51.043  14.547  1.00  0.00     0.035 A 
HETATM   11  C   UNL     1     -44.664 -51.610  13.320  1.00  0.00     0.102 A 
HETATM   12  N   UNL     1     -43.415 -51.603  12.777  1.00  0.00    -0.338 N 
ATOM     13  HN  UNL     1     -43.232 -52.013  11.861  1.00  0.00     0.167 HD
BRANCH  11  14
HETATM   14  C   UNL     1     -45.732 -52.274  12.506  1.00  0.00     0.267 C 
HETATM   15  N   UNL     1     -46.561 -51.409  11.816  1.00  0.00    -0.360 N 
HETATM   16  C   UNL     1     -47.587 -51.901  10.934  1.00  0.00     0.149 C 
HETATM   17  H   UNL     1     -46.273 -50.440  11.764  1.00  0.00     0.162 HD
HETATM   18  O   UNL     1     -45.831 -53.493  12.464  1.00  0.00    -0.266 OA
ENDBRANCH  11  14
ENDBRANCH   1   7
BRANCH   4  19
HETATM   19  C   UNL     1     -41.289 -48.220  10.509  1.00  0.00     0.086 C 
HETATM   20  C   UNL     1     -40.982 -46.899  11.227  1.00  0.00     0.025 C 
HETATM   21  C   UNL     1     -42.187 -46.428  12.034  1.00  0.00     0.003 C 
HETATM   22  C   UNL     1     -43.388 -46.195  11.125  1.00  0.00     0.014 C 
HETATM   23  C   UNL     1     -43.726 -47.405  10.238  1.00  0.00     0.095 C 
HETATM   24  C   UNL     1     -42.474 -48.000   9.552  1.00  0.00     0.038 C 
BRANCH  23  25
HETATM   25  C   UNL     1     -44.810 -47.045   9.213  1.00  0.00     0.391 C 
HETATM   26  F   UNL     1     -44.696 -45.773   8.770  1.00  0.00    -0.171 F 
HETATM   27  F   UNL     1     -44.775 -47.848   8.127  1.00  0.00    -0.171 F 
HETATM   28  F   UNL     1     -46.042 -47.165   9.759  1.00  0.00    -0.171 F 
ENDBRANCH  23  25
ENDBRANCH   4  19
TORSDOF 4
ENDMDL
MODEL 5
REMARK VINA RESULT:      -6.4      3.990      6.217
REMARK  4 active torsions:
REMARK  status: ('A' for Active; 'I' for Inactive)
REMARK       I    between atoms: N_2  and  C_3 
REMARK    1  A    between atoms: C_3  and  C_5 
REMARK    2  A    between atoms: C_9  and  N_10 
REMARK       I    between atoms: N_10  and  C_11 
REMARK       I    between atoms: C_11  and  N_13 
REMARK    3  A    between atoms: N_13  and  C_14 
REMARK    4  A    between atoms: C_18  and  C_20 
ROOT
HETATM    1  N   UNL     1     -40.637 -51.611  11.362  1.00  0.00    -0.295 N 
HETATM    2  C   UNL     1     -40.364 -50.301  11.642  1.00  0.00     0.322 C 
HETATM    3  O   UNL     1     -39.723 -49.627  10.841  1.00  0.00    -0.247 OA
HETATM    4  N   UNL     1     -40.738 -49.868  12.881  1.00  0.00    -0.338 N 
HETATM    5  H   UNL     1     -40.163 -51.949  10.539  1.00  0.00     0.172 HD
HETATM    6  H   UNL     1     -41.440 -50.452  13.321  1.00  0.00     0.164 HD
ENDROOT
BRANCH   1   7
HETATM    7  C   UNL     1     -41.388 -52.511  12.130  1.00  0.00     0.109 A 
HETATM    8  C   UNL     1     -40.708 -53.381  12.973  1.00  0.00     0.049 A 
HETATM    9  C   UNL     1     -41.446 -54.238  13.789  1.00  0.00     0.006 A 
HETATM   10  C   UNL     1     -42.836 -54.231  13.711  1.00  0.00     0.035 A 
HETATM   11  C   UNL     1     -43.432 -53.357  12.815  1.00  0.00     0.102 A 
HETATM   12  N   UNL     1     -42.733 -52.488  12.033  1.00  0.00    -0.338 N 
ATOM     13  HN  UNL     1     -43.207 -51.846  11.399  1.00  0.00     0.167 HD
BRANCH  11  14
HETATM   14  C   UNL     1     -44.922 -53.326  12.666  1.00  0.00     0.267 C 
HETATM   15  N   UNL     1     -45.431 -52.144  12.161  1.00  0.00    -0.360 N 
HETATM   16  C   UNL     1     -46.838 -51.991  11.892  1.00  0.00     0.149 C 
HETATM   17  H   UNL     1     -44.768 -51.488  11.768  1.00  0.00     0.162 HD
HETATM   18  O   UNL     1     -45.609 -54.294  12.963  1.00  0.00    -0.266 OA
ENDBRANCH  11  14
ENDBRANCH   1   7
BRANCH   4  19
HETATM   19  C   UNL     1     -40.363 -48.609  13.497  1.00  0.00     0.086 C 
HETATM   20  C   UNL     1     -41.133 -48.355  14.800  1.00  0.00     0.025 C 
HETATM   21  C   UNL     1     -42.632 -48.261  14.533  1.00  0.00     0.003 C 
HETATM   22  C   UNL     1     -42.940 -47.112  13.579  1.00  0.00     0.014 C 
HETATM   23  C   UNL     1     -42.125 -47.165  12.276  1.00  0.00     0.095 C 
HETATM   24  C   UNL     1     -40.624 -47.439  12.531  1.00  0.00     0.038 C 
BRANCH  23  25
HETATM   25  C   UNL     1     -42.330 -45.888  11.451  1.00  0.00     0.391 C 
HETATM   26  F   UNL     1     -41.193 -45.485  10.839  1.00  0.00    -0.171 F 
HETATM   27  F   UNL     1     -43.265 -46.045  10.487  1.00  0.00    -0.171 F 
HETATM   28  F   UNL     1     -42.738 -44.869  12.241  1.00  0.00    -0.171 F 
ENDBRANCH  23  25
ENDBRANCH   4  19
TORSDOF 4
ENDMDL
MODEL 6
REMARK VINA RESULT:      -6.4      3.574      5.437
REMARK  4 active torsions:
REMARK  status: ('A' for Active; 'I' for Inactive)
REMARK       I    between atoms: N_2  and  C_3 
REMARK    1  A    between atoms: C_3  and  C_5 
REMARK    2  A    between atoms: C_9  and  N_10 
REMARK       I    between atoms: N_10  and  C_11 
REMARK       I    between atoms: C_11  and  N_13 
REMARK    3  A    between atoms: N_13  and  C_14 
REMARK    4  A    between atoms: C_18  and  C_20 
ROOT
HETATM    1  N   UNL     1     -41.357 -47.936  11.815  1.00  0.00    -0.295 N 
HETATM    2  C   UNL     1     -42.536 -48.615  11.948  1.00  0.00     0.322 C 
HETATM    3  O   UNL     1     -43.554 -48.179  11.421  1.00  0.00    -0.247 OA
HETATM    4  N   UNL     1     -42.508 -49.696  12.780  1.00  0.00    -0.338 N 
HETATM    5  H   UNL     1     -41.465 -47.035  11.374  1.00  0.00     0.172 HD
HETATM    6  H   UNL     1     -41.574 -50.055  12.950  1.00  0.00     0.164 HD
ENDROOT
BRANCH   1   7
HETATM    7  C   UNL     1     -40.097 -48.304  12.306  1.00  0.00     0.109 A 
HETATM    8  C   UNL     1     -39.694 -47.792  13.532  1.00  0.00     0.049 A 
HETATM    9  C   UNL     1     -38.470 -48.201  14.060  1.00  0.00     0.006 A 
HETATM   10  C   UNL     1     -37.667 -49.075  13.332  1.00  0.00     0.035 A 
HETATM   11  C   UNL     1     -38.130 -49.508  12.100  1.00  0.00     0.102 A 
HETATM   12  N   UNL     1     -39.336 -49.148  11.579  1.00  0.00    -0.338 N 
ATOM     13  HN  UNL     1     -39.651 -49.503  10.676  1.00  0.00     0.167 HD
BRANCH  11  14
HETATM   14  C   UNL     1     -37.296 -50.425  11.258  1.00  0.00     0.267 C 
HETATM   15  N   UNL     1     -37.089 -49.996   9.961  1.00  0.00    -0.360 N 
HETATM   16  C   UNL     1     -36.248 -50.734   9.055  1.00  0.00     0.149 C 
HETATM   17  H   UNL     1     -37.346 -49.041   9.745  1.00  0.00     0.162 HD
HETATM   18  O   UNL     1     -36.835 -51.461  11.716  1.00  0.00    -0.266 OA
ENDBRANCH  11  14
ENDBRANCH   1   7
BRANCH   4  19
HETATM   19  C   UNL     1     -43.659 -50.437  13.262  1.00  0.00     0.086 C 
HETATM   20  C   UNL     1     -43.891 -50.225  14.764  1.00  0.00     0.025 C 
HETATM   21  C   UNL     1     -42.700 -50.730  15.573  1.00  0.00     0.003 C 
HETATM   22  C   UNL     1     -42.484 -52.221  15.341  1.00  0.00     0.014 C 
HETATM   23  C   UNL     1     -42.372 -52.598  13.855  1.00  0.00     0.095 C 
HETATM   24  C   UNL     1     -43.479 -51.942  12.995  1.00  0.00     0.038 C 
BRANCH  23  25
HETATM   25  C   UNL     1     -42.354 -54.122  13.678  1.00  0.00     0.391 C 
HETATM   26  F   UNL     1     -42.051 -54.769  14.826  1.00  0.00    -0.171 F 
HETATM   27  F   UNL     1     -43.543 -54.603  13.253  1.00  0.00    -0.171 F 
HETATM   28  F   UNL     1     -41.427 -54.485  12.762  1.00  0.00    -0.171 F 
ENDBRANCH  23  25
ENDBRANCH   4  19
TORSDOF 4
ENDMDL
MODEL 7
REMARK VINA RESULT:      -6.3      2.446      3.593
REMARK  4 active torsions:
REMARK  status: ('A' for Active; 'I' for Inactive)
REMARK       I    between atoms: N_2  and  C_3 
REMARK    1  A    between atoms: C_3  and  C_5 
REMARK    2  A    between atoms: C_9  and  N_10 
REMARK       I    between atoms: N_10  and  C_11 
REMARK       I    between atoms: C_11  and  N_13 
REMARK    3  A    between atoms: N_13  and  C_14 
REMARK    4  A    between atoms: C_18  and  C_20 
ROOT
HETATM    1  N   UNL     1     -43.040 -53.351  12.256  1.00  0.00    -0.295 N 
HETATM    2  C   UNL     1     -44.221 -53.647  12.878  1.00  0.00     0.322 C 
HETATM    3  O   UNL     1     -44.898 -54.591  12.483  1.00  0.00    -0.247 OA
HETATM    4  N   UNL     1     -44.619 -52.770  13.844  1.00  0.00    -0.338 N 
HETATM    5  H   UNL     1     -42.888 -53.889  11.416  1.00  0.00     0.172 HD
HETATM    6  H   UNL     1     -43.867 -52.193  14.205  1.00  0.00     0.164 HD
ENDROOT
BRANCH   1   7
HETATM    7  C   UNL     1     -42.122 -52.348  12.594  1.00  0.00     0.109 A 
HETATM    8  C   UNL     1     -41.258 -52.579  13.656  1.00  0.00     0.049 A 
HETATM    9  C   UNL     1     -40.298 -51.616  13.963  1.00  0.00     0.006 A 
HETATM   10  C   UNL     1     -40.254 -50.434  13.228  1.00  0.00     0.035 A 
HETATM   11  C   UNL     1     -41.179 -50.269  12.209  1.00  0.00     0.102 A 
HETATM   12  N   UNL     1     -42.104 -51.210  11.871  1.00  0.00    -0.338 N 
ATOM     13  HN  UNL     1     -42.756 -51.060  11.101  1.00  0.00     0.167 HD
BRANCH  11  14
HETATM   14  C   UNL     1     -41.200 -49.005  11.404  1.00  0.00     0.267 C 
HETATM   15  N   UNL     1     -42.374 -48.776  10.712  1.00  0.00    -0.360 N 
HETATM   16  C   UNL     1     -42.571 -47.568   9.954  1.00  0.00     0.149 C 
HETATM   17  H   UNL     1     -43.167 -49.360  10.946  1.00  0.00     0.162 HD
HETATM   18  O   UNL     1     -40.241 -48.246  11.392  1.00  0.00    -0.266 OA
ENDBRANCH  11  14
ENDBRANCH   1   7
BRANCH   4  19
HETATM   19  C   UNL     1     -45.921 -52.733  14.483  1.00  0.00     0.086 C 
HETATM   20  C   UNL     1     -46.299 -51.316  14.935  1.00  0.00     0.025 C 
HETATM   21  C   UNL     1     -45.308 -50.796  15.973  1.00  0.00     0.003 C 
HETATM   22  C   UNL     1     -45.299 -51.692  17.207  1.00  0.00     0.014 C 
HETATM   23  C   UNL     1     -45.067 -53.177  16.882  1.00  0.00     0.095 C 
HETATM   24  C   UNL     1     -45.945 -53.667  15.706  1.00  0.00     0.038 C 
BRANCH  23  25
HETATM   25  C   UNL     1     -45.264 -54.047  18.130  1.00  0.00     0.391 C 
HETATM   26  F   UNL     1     -45.422 -53.307  19.251  1.00  0.00    -0.171 F 
HETATM   27  F   UNL     1     -46.345 -54.851  18.029  1.00  0.00    -0.171 F 
HETATM   28  F   UNL     1     -44.190 -54.845  18.329  1.00  0.00    -0.171 F 
ENDBRANCH  23  25
ENDBRANCH   4  19
TORSDOF 4
ENDMDL
MODEL 8
REMARK VINA RESULT:      -6.3      3.546      4.548
REMARK  4 active torsions:
REMARK  status: ('A' for Active; 'I' for Inactive)
REMARK       I    between atoms: N_2  and  C_3 
REMARK    1  A    between atoms: C_3  and  C_5 
REMARK    2  A    between atoms: C_9  and  N_10 
REMARK       I    between atoms: N_10  and  C_11 
REMARK       I    between atoms: C_11  and  N_13 
REMARK    3  A    between atoms: N_13  and  C_14 
REMARK    4  A    between atoms: C_18  and  C_20 
ROOT
HETATM    1  N   UNL     1     -40.509 -50.265  15.578  1.00  0.00    -0.295 N 
HETATM    2  C   UNL     1     -41.436 -51.205  15.932  1.00  0.00     0.322 C 
HETATM    3  O   UNL     1     -41.598 -51.486  17.116  1.00  0.00    -0.247 OA
HETATM    4  N   UNL     1     -42.043 -51.859  14.900  1.00  0.00    -0.338 N 
HETATM    5  H   UNL     1     -39.935 -49.962  16.350  1.00  0.00     0.172 HD
HETATM    6  H   UNL     1     -41.979 -51.369  14.014  1.00  0.00     0.164 HD
ENDROOT
BRANCH   1   7
HETATM    7  C   UNL     1     -40.223 -49.788  14.291  1.00  0.00     0.109 A 
HETATM    8  C   UNL     1     -41.018 -48.774  13.775  1.00  0.00     0.049 A 
HETATM    9  C   UNL     1     -40.704 -48.247  12.523  1.00  0.00     0.006 A 
HETATM   10  C   UNL     1     -39.633 -48.773  11.806  1.00  0.00     0.035 A 
HETATM   11  C   UNL     1     -38.915 -49.810  12.381  1.00  0.00     0.102 A 
HETATM   12  N   UNL     1     -39.183 -50.318  13.616  1.00  0.00    -0.338 N 
ATOM     13  HN  UNL     1     -38.620 -51.069  14.014  1.00  0.00     0.167 HD
BRANCH  11  14
HETATM   14  C   UNL     1     -37.771 -50.437  11.644  1.00  0.00     0.267 C 
HETATM   15  N   UNL     1     -37.550 -49.934  10.376  1.00  0.00    -0.360 N 
HETATM   16  C   UNL     1     -36.442 -50.385   9.575  1.00  0.00     0.149 C 
HETATM   17  H   UNL     1     -38.039 -49.083  10.127  1.00  0.00     0.162 HD
HETATM   18  O   UNL     1     -37.092 -51.315  12.158  1.00  0.00    -0.266 OA
ENDBRANCH  11  14
ENDBRANCH   1   7
BRANCH   4  19
HETATM   19  C   UNL     1     -42.881 -53.038  15.008  1.00  0.00     0.086 C 
HETATM   20  C   UNL     1     -42.737 -53.959  13.788  1.00  0.00     0.025 C 
HETATM   21  C   UNL     1     -43.182 -53.245  12.516  1.00  0.00     0.003 C 
HETATM   22  C   UNL     1     -44.644 -52.827  12.613  1.00  0.00     0.014 C 
HETATM   23  C   UNL     1     -44.962 -52.007  13.874  1.00  0.00     0.095 C 
HETATM   24  C   UNL     1     -44.360 -52.635  15.153  1.00  0.00     0.038 C 
BRANCH  23  25
HETATM   25  C   UNL     1     -46.474 -51.786  14.016  1.00  0.00     0.391 C 
HETATM   26  F   UNL     1     -46.780 -50.999  15.072  1.00  0.00    -0.171 F 
HETATM   27  F   UNL     1     -47.013 -51.208  12.920  1.00  0.00    -0.171 F 
HETATM   28  F   UNL     1     -47.113 -52.964  14.202  1.00  0.00    -0.171 F 
ENDBRANCH  23  25
ENDBRANCH   4  19
TORSDOF 4
ENDMDL
MODEL 9
REMARK VINA RESULT:      -6.3      1.967      2.706
REMARK  4 active torsions:
REMARK  status: ('A' for Active; 'I' for Inactive)
REMARK       I    between atoms: N_2  and  C_3 
REMARK    1  A    between atoms: C_3  and  C_5 
REMARK    2  A    between atoms: C_9  and  N_10 
REMARK       I    between atoms: N_10  and  C_11 
REMARK       I    between atoms: C_11  and  N_13 
REMARK    3  A    between atoms: N_13  and  C_14 
REMARK    4  A    between atoms: C_18  and  C_20 
ROOT
HETATM    1  N   UNL     1     -40.493 -50.369  11.857  1.00  0.00    -0.295 N 
HETATM    2  C   UNL     1     -40.669 -51.418  12.717  1.00  0.00     0.322 C 
HETATM    3  O   UNL     1     -39.826 -52.307  12.775  1.00  0.00    -0.247 OA
HETATM    4  N   UNL     1     -41.863 -51.449  13.377  1.00  0.00    -0.338 N 
HETATM    5  H   UNL     1     -39.706 -50.492  11.237  1.00  0.00     0.172 HD
HETATM    6  H   UNL     1     -42.339 -50.554  13.401  1.00  0.00     0.164 HD
ENDROOT
BRANCH   1   7
HETATM    7  C   UNL     1     -41.321 -49.251  11.690  1.00  0.00     0.109 A 
HETATM    8  C   UNL     1     -42.629 -49.327  12.149  1.00  0.00     0.049 A 
HETATM    9  C   UNL     1     -43.443 -48.200  12.046  1.00  0.00     0.006 A 
HETATM   10  C   UNL     1     -42.942 -47.045  11.452  1.00  0.00     0.035 A 
HETATM   11  C   UNL     1     -41.637 -47.068  10.986  1.00  0.00     0.102 A 
HETATM   12  N   UNL     1     -40.813 -48.146  11.106  1.00  0.00    -0.338 N 
ATOM     13  HN  UNL     1     -39.851 -48.119  10.769  1.00  0.00     0.167 HD
BRANCH  11  14
HETATM   14  C   UNL     1     -41.053 -45.865  10.311  1.00  0.00     0.267 C 
HETATM   15  N   UNL     1     -39.678 -45.886  10.172  1.00  0.00    -0.360 N 
HETATM   16  C   UNL     1     -38.981 -44.834   9.478  1.00  0.00     0.149 C 
HETATM   17  H   UNL     1     -39.210 -46.764  10.358  1.00  0.00     0.162 HD
HETATM   18  O   UNL     1     -41.766 -44.955   9.910  1.00  0.00    -0.266 OA
ENDBRANCH  11  14
ENDBRANCH   1   7
BRANCH   4  19
HETATM   19  C   UNL     1     -42.380 -52.557  14.158  1.00  0.00     0.086 C 
HETATM   20  C   UNL     1     -42.750 -53.758  13.277  1.00  0.00     0.025 C 
HETATM   21  C   UNL     1     -43.856 -53.387  12.293  1.00  0.00     0.003 C 
HETATM   22  C   UNL     1     -45.113 -52.949  13.035  1.00  0.00     0.014 C 
HETATM   23  C   UNL     1     -44.859 -51.834  14.062  1.00  0.00     0.095 C 
HETATM   24  C   UNL     1     -43.625 -52.121  14.950  1.00  0.00     0.038 C 
BRANCH  23  25
HETATM   25  C   UNL     1     -46.112 -51.574  14.909  1.00  0.00     0.391 C 
HETATM   26  F   UNL     1     -47.091 -50.965  14.203  1.00  0.00    -0.171 F 
HETATM   27  F   UNL     1     -46.636 -52.714  15.412  1.00  0.00    -0.171 F 
HETATM   28  F   UNL     1     -45.821 -50.771  15.958  1.00  0.00    -0.171 F 
ENDBRANCH  23  25
ENDBRANCH   4  19
TORSDOF 4
ENDMDL
