MODEL 1
REMARK VINA RESULT:      -5.9      0.000      0.000
REMARK  5 active torsions:
REMARK  status: ('A' for Active; 'I' for Inactive)
REMARK    1  A    between atoms: O_2  and  C_3 
REMARK    2  A    between atoms: C_3  and  C_4 
REMARK    3  A    between atoms: C_4  and  N_5 
REMARK    4  A    between atoms: C_8  and  C_13 
REMARK       I    between atoms: C_13  and  N_15 
REMARK    5  A    between atoms: N_15  and  C_16 
ROOT
HETATM    1  N   UNL     1     -43.382 -47.029   9.357  1.00  0.00    -0.255 N 
HETATM    2  N   UNL     1     -42.737 -48.155   9.867  1.00  0.00    -0.290 N 
ATOM      3  HN  UNL     1     -43.067 -49.099   9.665  1.00  0.00     0.187 HD
HETATM    4  C   UNL     1     -41.690 -47.940  10.614  1.00  0.00     0.116 A 
HETATM    5  C   UNL     1     -41.131 -46.608  10.918  1.00  0.00     0.042 A 
HETATM    6  C   UNL     1     -41.783 -45.551  10.445  1.00  0.00     0.078 A 
HETATM    7  C   UNL     1     -43.011 -45.717   9.651  1.00  0.00     0.262 A 
HETATM    8  O   UNL     1     -43.610 -44.713   9.276  1.00  0.00    -0.267 OA
ENDROOT
BRANCH   4   9
HETATM    9  C   UNL     1     -40.947 -49.118  11.250  1.00  0.00     0.269 C 
HETATM   10  O   UNL     1     -41.588 -50.049  11.723  1.00  0.00    -0.266 OA
HETATM   11  N   UNL     1     -39.572 -49.039  11.231  1.00  0.00    -0.351 N 
HETATM   12  H   UNL     1     -39.149 -48.236  10.770  1.00  0.00     0.163 HD
BRANCH  11  13
HETATM   13  C   UNL     1     -38.763 -50.091  11.759  1.00  0.00     0.085 A 
HETATM   14  C   UNL     1     -37.693 -49.783  12.773  1.00  0.00     0.027 A 
HETATM   15  C   UNL     1     -37.314 -50.246  11.396  1.00  0.00     0.027 A 
ENDBRANCH  11  13
ENDBRANCH   4   9
BRANCH   1  16
HETATM   16  C   UNL     1     -44.574 -47.249   8.539  1.00  0.00     0.178 C 
BRANCH  16  17
HETATM   17  C   UNL     1     -45.830 -47.505   9.382  1.00  0.00     0.189 C 
BRANCH  17  18
HETATM   18  O   UNL     1     -46.920 -47.890   8.538  1.00  0.00    -0.394 OA
HETATM   19  C   UNL     1     -46.633 -49.110   7.860  1.00  0.00     0.201 C 
ENDBRANCH  17  18
ENDBRANCH  16  17
ENDBRANCH   1  16
TORSDOF 5
ENDMDL
MODEL 2
REMARK VINA RESULT:      -5.7      1.866      5.879
REMARK  5 active torsions:
REMARK  status: ('A' for Active; 'I' for Inactive)
REMARK    1  A    between atoms: O_2  and  C_3 
REMARK    2  A    between atoms: C_3  and  C_4 
REMARK    3  A    between atoms: C_4  and  N_5 
REMARK    4  A    between atoms: C_8  and  C_13 
REMARK       I    between atoms: C_13  and  N_15 
REMARK    5  A    between atoms: N_15  and  C_16 
ROOT
HETATM    1  N   UNL     1     -40.818 -49.161  11.393  1.00  0.00    -0.255 N 
HETATM    2  N   UNL     1     -41.925 -48.811  10.621  1.00  0.00    -0.290 N 
ATOM      3  HN  UNL     1     -42.624 -49.500  10.343  1.00  0.00     0.187 HD
HETATM    4  C   UNL     1     -42.020 -47.558  10.272  1.00  0.00     0.116 A 
HETATM    5  C   UNL     1     -41.073 -46.498  10.667  1.00  0.00     0.042 A 
HETATM    6  C   UNL     1     -40.011 -46.864  11.379  1.00  0.00     0.078 A 
HETATM    7  C   UNL     1     -39.803 -48.274  11.749  1.00  0.00     0.262 A 
HETATM    8  O   UNL     1     -38.783 -48.577  12.362  1.00  0.00    -0.267 OA
ENDROOT
BRANCH   4   9
HETATM    9  C   UNL     1     -43.182 -47.095   9.388  1.00  0.00     0.269 C 
HETATM   10  O   UNL     1     -43.051 -46.089   8.702  1.00  0.00    -0.266 OA
HETATM   11  N   UNL     1     -44.315 -47.878   9.428  1.00  0.00    -0.351 N 
HETATM   12  H   UNL     1     -44.291 -48.717  10.003  1.00  0.00     0.163 HD
BRANCH  11  13
HETATM   13  C   UNL     1     -45.454 -47.574   8.621  1.00  0.00     0.085 A 
HETATM   14  C   UNL     1     -46.762 -47.208   9.271  1.00  0.00     0.027 A 
HETATM   15  C   UNL     1     -46.631 -48.500   8.518  1.00  0.00     0.027 A 
ENDBRANCH  11  13
ENDBRANCH   4   9
BRANCH   1  16
HETATM   16  C   UNL     1     -40.678 -50.567  11.771  1.00  0.00     0.178 C 
BRANCH  16  17
HETATM   17  C   UNL     1     -41.527 -50.938  12.994  1.00  0.00     0.189 C 
BRANCH  17  18
HETATM   18  O   UNL     1     -42.905 -50.640  12.745  1.00  0.00    -0.394 OA
HETATM   19  C   UNL     1     -43.533 -50.118  13.912  1.00  0.00     0.201 C 
ENDBRANCH  17  18
ENDBRANCH  16  17
ENDBRANCH   1  16
TORSDOF 5
ENDMDL
MODEL 3
REMARK VINA RESULT:      -5.5      2.620      6.063
REMARK  5 active torsions:
REMARK  status: ('A' for Active; 'I' for Inactive)
REMARK    1  A    between atoms: O_2  and  C_3 
REMARK    2  A    between atoms: C_3  and  C_4 
REMARK    3  A    between atoms: C_4  and  N_5 
REMARK    4  A    between atoms: C_8  and  C_13 
REMARK       I    between atoms: C_13  and  N_15 
REMARK    5  A    between atoms: N_15  and  C_16 
ROOT
HETATM    1  N   UNL     1     -40.380 -51.297  12.105  1.00  0.00    -0.255 N 
HETATM    2  N   UNL     1     -41.111 -50.316  11.436  1.00  0.00    -0.290 N 
ATOM      3  HN  UNL     1     -42.013 -50.519  11.006  1.00  0.00     0.187 HD
HETATM    4  C   UNL     1     -40.581 -49.125  11.389  1.00  0.00     0.116 A 
HETATM    5  C   UNL     1     -39.302 -48.745  12.019  1.00  0.00     0.042 A 
HETATM    6  C   UNL     1     -38.611 -49.707  12.624  1.00  0.00     0.078 A 
HETATM    7  C   UNL     1     -39.116 -51.089  12.656  1.00  0.00     0.262 A 
HETATM    8  O   UNL     1     -38.423 -51.956  13.181  1.00  0.00    -0.267 OA
ENDROOT
BRANCH   4   9
HETATM    9  C   UNL     1     -41.296 -47.998  10.638  1.00  0.00     0.269 C 
HETATM   10  O   UNL     1     -40.880 -46.850  10.740  1.00  0.00    -0.266 OA
HETATM   11  N   UNL     1     -42.379 -48.378   9.876  1.00  0.00    -0.351 N 
HETATM   12  H   UNL     1     -42.604 -49.369   9.834  1.00  0.00     0.163 HD
BRANCH  11  13
HETATM   13  C   UNL     1     -43.107 -47.426   9.098  1.00  0.00     0.085 A 
HETATM   14  C   UNL     1     -44.593 -47.586   8.910  1.00  0.00     0.027 A 
HETATM   15  C   UNL     1     -43.663 -47.759   7.744  1.00  0.00     0.027 A 
ENDBRANCH  11  13
ENDBRANCH   4   9
BRANCH   1  16
HETATM   16  C   UNL     1     -40.944 -52.646  12.144  1.00  0.00     0.178 C 
BRANCH  16  17
HETATM   17  C   UNL     1     -42.096 -52.775  13.149  1.00  0.00     0.189 C 
BRANCH  17  18
HETATM   18  O   UNL     1     -43.310 -52.282  12.571  1.00  0.00    -0.394 OA
HETATM   19  C   UNL     1     -44.289 -53.312  12.487  1.00  0.00     0.201 C 
ENDBRANCH  17  18
ENDBRANCH  16  17
ENDBRANCH   1  16
TORSDOF 5
ENDMDL
MODEL 4
REMARK VINA RESULT:      -5.4      2.356      2.866
REMARK  5 active torsions:
REMARK  status: ('A' for Active; 'I' for Inactive)
REMARK    1  A    between atoms: O_2  and  C_3 
REMARK    2  A    between atoms: C_3  and  C_4 
REMARK    3  A    between atoms: C_4  and  N_5 
REMARK    4  A    between atoms: C_8  and  C_13 
REMARK       I    between atoms: C_13  and  N_15 
REMARK    5  A    between atoms: N_15  and  C_16 
ROOT
HETATM    1  N   UNL     1     -42.149 -47.385  10.038  1.00  0.00    -0.255 N 
HETATM    2  N   UNL     1     -42.006 -48.714  10.436  1.00  0.00    -0.290 N 
ATOM      3  HN  UNL     1     -42.660 -49.437  10.134  1.00  0.00     0.187 HD
HETATM    4  C   UNL     1     -40.996 -48.984  11.215  1.00  0.00     0.116 A 
HETATM    5  C   UNL     1     -39.989 -48.002  11.662  1.00  0.00     0.042 A 
HETATM    6  C   UNL     1     -40.165 -46.737  11.292  1.00  0.00     0.078 A 
HETATM    7  C   UNL     1     -41.322 -46.348  10.470  1.00  0.00     0.262 A 
HETATM    8  O   UNL     1     -41.475 -45.162  10.193  1.00  0.00    -0.267 OA
ENDROOT
BRANCH   4   9
HETATM    9  C   UNL     1     -40.789 -50.410  11.735  1.00  0.00     0.269 C 
HETATM   10  O   UNL     1     -39.667 -50.771  12.067  1.00  0.00    -0.266 OA
HETATM   11  N   UNL     1     -41.920 -51.194  11.797  1.00  0.00    -0.351 N 
HETATM   12  H   UNL     1     -42.806 -50.770  11.536  1.00  0.00     0.163 HD
BRANCH  11  13
HETATM   13  C   UNL     1     -41.866 -52.531  12.300  1.00  0.00     0.085 A 
HETATM   14  C   UNL     1     -43.127 -53.214  12.760  1.00  0.00     0.027 A 
HETATM   15  C   UNL     1     -42.064 -52.847  13.754  1.00  0.00     0.027 A 
ENDBRANCH  11  13
ENDBRANCH   4   9
BRANCH   1  16
HETATM   16  C   UNL     1     -43.292 -47.056   9.187  1.00  0.00     0.178 C 
BRANCH  16  17
HETATM   17  C   UNL     1     -44.634 -47.432   9.829  1.00  0.00     0.189 C 
BRANCH  17  18
HETATM   18  O   UNL     1     -45.707 -47.162   8.922  1.00  0.00    -0.394 OA
HETATM   19  C   UNL     1     -46.600 -48.269   8.844  1.00  0.00     0.201 C 
ENDBRANCH  17  18
ENDBRANCH  16  17
ENDBRANCH   1  16
TORSDOF 5
ENDMDL
MODEL 5
REMARK VINA RESULT:      -5.3      4.451      6.845
REMARK  5 active torsions:
REMARK  status: ('A' for Active; 'I' for Inactive)
REMARK    1  A    between atoms: O_2  and  C_3 
REMARK    2  A    between atoms: C_3  and  C_4 
REMARK    3  A    between atoms: C_4  and  N_5 
REMARK    4  A    between atoms: C_8  and  C_13 
REMARK       I    between atoms: C_13  and  N_15 
REMARK    5  A    between atoms: N_15  and  C_16 
ROOT
HETATM    1  N   UNL     1     -41.090 -51.084  11.974  1.00  0.00    -0.255 N 
HETATM    2  N   UNL     1     -42.465 -51.302  12.064  1.00  0.00    -0.290 N 
ATOM      3  HN  UNL     1     -43.139 -50.631  11.693  1.00  0.00     0.187 HD
HETATM    4  C   UNL     1     -42.844 -52.405  12.645  1.00  0.00     0.116 A 
HETATM    5  C   UNL     1     -41.931 -53.440  13.169  1.00  0.00     0.042 A 
HETATM    6  C   UNL     1     -40.626 -53.193  13.098  1.00  0.00     0.078 A 
HETATM    7  C   UNL     1     -40.129 -51.936  12.516  1.00  0.00     0.262 A 
HETATM    8  O   UNL     1     -38.919 -51.726  12.516  1.00  0.00    -0.267 OA
ENDROOT
BRANCH   4   9
HETATM    9  C   UNL     1     -44.335 -52.704  12.824  1.00  0.00     0.269 C 
HETATM   10  O   UNL     1     -44.813 -53.712  12.316  1.00  0.00    -0.266 OA
HETATM   11  N   UNL     1     -45.043 -51.791  13.575  1.00  0.00    -0.351 N 
HETATM   12  H   UNL     1     -44.529 -51.014  13.984  1.00  0.00     0.163 HD
BRANCH  11  13
HETATM   13  C   UNL     1     -46.434 -51.975  13.847  1.00  0.00     0.085 A 
HETATM   14  C   UNL     1     -47.035 -51.415  15.109  1.00  0.00     0.027 A 
HETATM   15  C   UNL     1     -46.922 -52.901  14.923  1.00  0.00     0.027 A 
ENDBRANCH  11  13
ENDBRANCH   4   9
BRANCH   1  16
HETATM   16  C   UNL     1     -40.646 -49.838  11.350  1.00  0.00     0.178 C 
BRANCH  16  17
HETATM   17  C   UNL     1     -41.710 -48.735  11.411  1.00  0.00     0.189 C 
BRANCH  17  18
HETATM   18  O   UNL     1     -41.578 -47.861  10.285  1.00  0.00    -0.394 OA
HETATM   19  C   UNL     1     -42.823 -47.705   9.611  1.00  0.00     0.201 C 
ENDBRANCH  17  18
ENDBRANCH  16  17
ENDBRANCH   1  16
TORSDOF 5
ENDMDL
MODEL 6
REMARK VINA RESULT:      -5.3      4.975      6.652
REMARK  5 active torsions:
REMARK  status: ('A' for Active; 'I' for Inactive)
REMARK    1  A    between atoms: O_2  and  C_3 
REMARK    2  A    between atoms: C_3  and  C_4 
REMARK    3  A    between atoms: C_4  and  N_5 
REMARK    4  A    between atoms: C_8  and  C_13 
REMARK       I    between atoms: C_13  and  N_15 
REMARK    5  A    between atoms: N_15  and  C_16 
ROOT
HETATM    1  N   UNL     1     -44.660 -53.245  13.137  1.00  0.00    -0.255 N 
HETATM    2  N   UNL     1     -43.746 -52.350  12.582  1.00  0.00    -0.290 N 
ATOM      3  HN  UNL     1     -44.049 -51.545  12.033  1.00  0.00     0.187 HD
HETATM    4  C   UNL     1     -42.484 -52.594  12.800  1.00  0.00     0.116 A 
HETATM    5  C   UNL     1     -41.970 -53.713  13.613  1.00  0.00     0.042 A 
HETATM    6  C   UNL     1     -42.861 -54.568  14.106  1.00  0.00     0.078 A 
HETATM    7  C   UNL     1     -44.298 -54.392  13.842  1.00  0.00     0.262 A 
HETATM    8  O   UNL     1     -45.083 -55.232  14.272  1.00  0.00    -0.267 OA
ENDROOT
BRANCH   4   9
HETATM    9  C   UNL     1     -41.411 -51.687  12.191  1.00  0.00     0.269 C 
HETATM   10  O   UNL     1     -40.261 -52.099  12.091  1.00  0.00    -0.266 OA
HETATM   11  N   UNL     1     -41.839 -50.442  11.784  1.00  0.00    -0.351 N 
HETATM   12  H   UNL     1     -42.829 -50.228  11.877  1.00  0.00     0.163 HD
BRANCH  11  13
HETATM   13  C   UNL     1     -40.943 -49.517  11.166  1.00  0.00     0.085 A 
HETATM   14  C   UNL     1     -40.635 -48.205  11.838  1.00  0.00     0.027 A 
HETATM   15  C   UNL     1     -41.418 -48.229  10.557  1.00  0.00     0.027 A 
ENDBRANCH  11  13
ENDBRANCH   4   9
BRANCH   1  16
HETATM   16  C   UNL     1     -46.079 -53.002  12.880  1.00  0.00     0.178 C 
BRANCH  16  17
HETATM   17  C   UNL     1     -46.505 -51.569  13.223  1.00  0.00     0.189 C 
BRANCH  17  18
HETATM   18  O   UNL     1     -45.961 -51.183  14.489  1.00  0.00    -0.394 OA
HETATM   19  C   UNL     1     -46.878 -51.457  15.543  1.00  0.00     0.201 C 
ENDBRANCH  17  18
ENDBRANCH  16  17
ENDBRANCH   1  16
TORSDOF 5
ENDMDL
MODEL 7
REMARK VINA RESULT:      -5.2      3.088      4.098
REMARK  5 active torsions:
REMARK  status: ('A' for Active; 'I' for Inactive)
REMARK    1  A    between atoms: O_2  and  C_3 
REMARK    2  A    between atoms: C_3  and  C_4 
REMARK    3  A    between atoms: C_4  and  N_5 
REMARK    4  A    between atoms: C_8  and  C_13 
REMARK       I    between atoms: C_13  and  N_15 
REMARK    5  A    between atoms: N_15  and  C_16 
ROOT
HETATM    1  N   UNL     1     -41.330 -47.982  10.878  1.00  0.00    -0.255 N 
HETATM    2  N   UNL     1     -41.706 -49.308  11.090  1.00  0.00    -0.290 N 
ATOM      3  HN  UNL     1     -42.613 -49.663  10.786  1.00  0.00     0.187 HD
HETATM    4  C   UNL     1     -40.839 -50.070  11.696  1.00  0.00     0.116 A 
HETATM    5  C   UNL     1     -39.495 -49.641  12.129  1.00  0.00     0.042 A 
HETATM    6  C   UNL     1     -39.174 -48.364  11.942  1.00  0.00     0.078 A 
HETATM    7  C   UNL     1     -40.131 -47.430  11.326  1.00  0.00     0.262 A 
HETATM    8  O   UNL     1     -39.813 -46.249  11.218  1.00  0.00    -0.267 OA
ENDROOT
BRANCH   4   9
HETATM    9  C   UNL     1     -41.187 -51.529  12.007  1.00  0.00     0.269 C 
HETATM   10  O   UNL     1     -40.285 -52.330  12.218  1.00  0.00    -0.266 OA
HETATM   11  N   UNL     1     -42.531 -51.831  12.036  1.00  0.00    -0.351 N 
HETATM   12  H   UNL     1     -43.191 -51.072  11.888  1.00  0.00     0.163 HD
BRANCH  11  13
HETATM   13  C   UNL     1     -42.987 -53.148  12.351  1.00  0.00     0.085 A 
HETATM   14  C   UNL     1     -44.457 -53.410  12.544  1.00  0.00     0.027 A 
HETATM   15  C   UNL     1     -43.515 -53.507  13.710  1.00  0.00     0.027 A 
ENDBRANCH  11  13
ENDBRANCH   4   9
BRANCH   1  16
HETATM   16  C   UNL     1     -42.300 -47.104  10.224  1.00  0.00     0.178 C 
BRANCH  16  17
HETATM   17  C   UNL     1     -43.723 -47.678  10.242  1.00  0.00     0.189 C 
BRANCH  17  18
HETATM   18  O   UNL     1     -44.386 -47.389   9.007  1.00  0.00    -0.394 OA
HETATM   19  C   UNL     1     -43.590 -47.787   7.895  1.00  0.00     0.201 C 
ENDBRANCH  17  18
ENDBRANCH  16  17
ENDBRANCH   1  16
TORSDOF 5
ENDMDL
MODEL 8
REMARK VINA RESULT:      -5.1      1.949      3.595
REMARK  5 active torsions:
REMARK  status: ('A' for Active; 'I' for Inactive)
REMARK    1  A    between atoms: O_2  and  C_3 
REMARK    2  A    between atoms: C_3  and  C_4 
REMARK    3  A    between atoms: C_4  and  N_5 
REMARK    4  A    between atoms: C_8  and  C_13 
REMARK       I    between atoms: C_13  and  N_15 
REMARK    5  A    between atoms: N_15  and  C_16 
ROOT
HETATM    1  N   UNL     1     -42.307 -45.299  10.734  1.00  0.00    -0.255 N 
HETATM    2  N   UNL     1     -41.588 -46.369  11.267  1.00  0.00    -0.290 N 
ATOM      3  HN  UNL     1     -40.902 -46.237  12.010  1.00  0.00     0.187 HD
HETATM    4  C   UNL     1     -41.838 -47.547  10.766  1.00  0.00     0.116 A 
HETATM    5  C   UNL     1     -42.842 -47.823   9.719  1.00  0.00     0.042 A 
HETATM    6  C   UNL     1     -43.491 -46.781   9.208  1.00  0.00     0.078 A 
HETATM    7  C   UNL     1     -43.210 -45.415   9.678  1.00  0.00     0.262 A 
HETATM    8  O   UNL     1     -43.795 -44.477   9.144  1.00  0.00    -0.267 OA
ENDROOT
BRANCH   4   9
HETATM    9  C   UNL     1     -41.063 -48.771  11.262  1.00  0.00     0.269 C 
HETATM   10  O   UNL     1     -41.679 -49.766  11.626  1.00  0.00    -0.266 OA
HETATM   11  N   UNL     1     -39.690 -48.655  11.252  1.00  0.00    -0.351 N 
HETATM   12  H   UNL     1     -39.290 -47.795  10.886  1.00  0.00     0.163 HD
BRANCH  11  13
HETATM   13  C   UNL     1     -38.853 -49.741  11.656  1.00  0.00     0.085 A 
HETATM   14  C   UNL     1     -37.707 -49.497  12.601  1.00  0.00     0.027 A 
HETATM   15  C   UNL     1     -37.438 -49.880  11.175  1.00  0.00     0.027 A 
ENDBRANCH  11  13
ENDBRANCH   4   9
BRANCH   1  16
HETATM   16  C   UNL     1     -42.021 -43.967  11.264  1.00  0.00     0.178 C 
BRANCH  16  17
HETATM   17  C   UNL     1     -42.501 -43.790  12.710  1.00  0.00     0.189 C 
BRANCH  17  18
HETATM   18  O   UNL     1     -43.415 -42.692  12.795  1.00  0.00    -0.394 OA
HETATM   19  C   UNL     1     -43.402 -41.924  11.596  1.00  0.00     0.201 C 
ENDBRANCH  17  18
ENDBRANCH  16  17
ENDBRANCH   1  16
TORSDOF 5
ENDMDL
MODEL 9
REMARK VINA RESULT:      -4.7      6.962      9.912
REMARK  5 active torsions:
REMARK  status: ('A' for Active; 'I' for Inactive)
REMARK    1  A    between atoms: O_2  and  C_3 
REMARK    2  A    between atoms: C_3  and  C_4 
REMARK    3  A    between atoms: C_4  and  N_5 
REMARK    4  A    between atoms: C_8  and  C_13 
REMARK       I    between atoms: C_13  and  N_15 
REMARK    5  A    between atoms: N_15  and  C_16 
ROOT
HETATM    1  N   UNL     1     -41.109 -54.912  15.528  1.00  0.00    -0.255 N 
HETATM    2  N   UNL     1     -42.436 -54.651  15.185  1.00  0.00    -0.290 N 
ATOM      3  HN  UNL     1     -43.204 -54.841  15.829  1.00  0.00     0.187 HD
HETATM    4  C   UNL     1     -42.644 -54.153  13.998  1.00  0.00     0.116 A 
HETATM    5  C   UNL     1     -41.585 -53.816  13.027  1.00  0.00     0.042 A 
HETATM    6  C   UNL     1     -40.332 -54.101  13.368  1.00  0.00     0.078 A 
HETATM    7  C   UNL     1     -40.030 -54.729  14.665  1.00  0.00     0.262 A 
HETATM    8  O   UNL     1     -38.865 -55.023  14.919  1.00  0.00    -0.267 OA
ENDROOT
BRANCH   4   9
HETATM    9  C   UNL     1     -44.073 -53.877  13.523  1.00  0.00     0.269 C 
HETATM   10  O   UNL     1     -44.496 -54.448  12.525  1.00  0.00    -0.266 OA
HETATM   11  N   UNL     1     -44.797 -52.986  14.285  1.00  0.00    -0.351 N 
HETATM   12  H   UNL     1     -44.354 -52.608  15.119  1.00  0.00     0.163 HD
BRANCH  11  13
HETATM   13  C   UNL     1     -46.154 -52.673  13.968  1.00  0.00     0.085 A 
HETATM   14  C   UNL     1     -46.470 -51.482  13.101  1.00  0.00     0.027 A 
HETATM   15  C   UNL     1     -46.857 -51.481  14.552  1.00  0.00     0.027 A 
ENDBRANCH  11  13
ENDBRANCH   4   9
BRANCH   1  16
HETATM   16  C   UNL     1     -40.858 -55.497  16.845  1.00  0.00     0.178 C 
BRANCH  16  17
HETATM   17  C   UNL     1     -41.931 -55.119  17.874  1.00  0.00     0.189 C 
BRANCH  17  18
HETATM   18  O   UNL     1     -42.966 -56.107  17.891  1.00  0.00    -0.394 OA
HETATM   19  C   UNL     1     -43.352 -56.417  19.226  1.00  0.00     0.201 C 
ENDBRANCH  17  18
ENDBRANCH  16  17
ENDBRANCH   1  16
TORSDOF 5
ENDMDL
