MODEL 1
REMARK VINA RESULT:      -6.9      0.000      0.000
REMARK  5 active torsions:
REMARK  status: ('A' for Active; 'I' for Inactive)
REMARK    1  A    between atoms: N_1  and  C_3 
REMARK    2  A    between atoms: N_4  and  C_16 
REMARK    3  A    between atoms: C_9  and  C_19 
REMARK    4  A    between atoms: C_16  and  C_17 
REMARK    5  A    between atoms: C_17  and  O_25 
ROOT
HETATM    1  C   UNL     1     -41.031 -48.935  12.881  1.00  0.00     0.122 A 
HETATM    2  C   UNL     1     -40.276 -48.195  11.939  1.00  0.00     0.136 A 
HETATM    3  N   UNL     1     -41.775 -50.786  13.791  1.00  0.00    -0.324 N 
HETATM    4  C   UNL     1     -40.845 -50.311  12.905  1.00  0.00     0.140 A 
HETATM    5  N   UNL     1     -42.017 -48.577  13.788  1.00  0.00    -0.346 N 
ATOM      6  HN  UNL     1     -42.347 -47.636  14.005  1.00  0.00     0.167 HD
HETATM    7  C   UNL     1     -42.438 -49.709  14.311  1.00  0.00     0.185 A 
HETATM    8  N   UNL     1     -39.389 -48.900  11.183  1.00  0.00    -0.337 N 
ATOM      9  HN  UNL     1     -38.803 -48.418  10.501  1.00  0.00     0.168 HD
HETATM   10  N   UNL     1     -39.983 -51.036  12.172  1.00  0.00    -0.336 N 
ATOM     11  HN  UNL     1     -39.871 -52.047  12.237  1.00  0.00     0.168 HD
HETATM   12  C   UNL     1     -39.289 -50.234  11.338  1.00  0.00     0.183 A 
ENDROOT
BRANCH   2  13
HETATM   13  N   UNL     1     -40.472 -46.828  11.714  1.00  0.00    -0.356 N 
HETATM   14  C   UNL     1     -41.179 -46.061  10.724  1.00  0.00     0.124 C 
HETATM   15  C   UNL     1     -40.993 -44.856  11.728  1.00  0.00    -0.008 C 
HETATM   16  C   UNL     1     -40.613 -43.526  11.093  1.00  0.00     0.018 C 
HETATM   17  C   UNL     1     -42.067 -44.662  12.813  1.00  0.00     0.018 C 
HETATM   18  C   UNL     1     -39.824 -45.699  12.292  1.00  0.00     0.136 C 
BRANCH  14  19
HETATM   19  C   UNL     1     -42.612 -46.473  10.390  1.00  0.00     0.145 C 
HETATM   20  O   UNL     1     -42.644 -47.665   9.577  1.00  0.00    -0.384 OA
HETATM   21  C   UNL     1     -43.735 -47.568   8.653  1.00  0.00     0.168 C 
HETATM   22  C   UNL     1     -44.393 -46.223   8.869  1.00  0.00     0.029 C 
HETATM   23  C   UNL     1     -43.288 -45.426   9.514  1.00  0.00     0.036 C 
ENDBRANCH  14  19
ENDBRANCH   2  13
BRANCH   3  24
HETATM   24  C   UNL     1     -42.140 -52.178  13.972  1.00  0.00     0.171 C 
BRANCH  24  25
HETATM   25  C   UNL     1     -43.161 -52.720  12.964  1.00  0.00     0.097 C 
HETATM   26  C   UNL     1     -44.482 -51.969  13.035  1.00  0.00     0.068 C 
HETATM   27  C   UNL     1     -45.485 -52.976  12.504  1.00  0.00     0.170 C 
HETATM   28  O   UNL     1     -44.964 -54.283  12.774  1.00  0.00    -0.388 OA
HETATM   29  C   UNL     1     -43.621 -54.147  13.266  1.00  0.00     0.207 C 
BRANCH  25  30
HETATM   30  O   UNL     1     -42.690 -52.624  11.615  1.00  0.00    -0.386 OA
HETATM   31  H   UNL     1     -43.282 -52.052  11.089  1.00  0.00     0.210 HD
ENDBRANCH  25  30
ENDBRANCH  24  25
ENDBRANCH   3  24
TORSDOF 5
ENDMDL
MODEL 2
REMARK VINA RESULT:      -6.9      1.555      1.913
REMARK  5 active torsions:
REMARK  status: ('A' for Active; 'I' for Inactive)
REMARK    1  A    between atoms: N_1  and  C_3 
REMARK    2  A    between atoms: N_4  and  C_16 
REMARK    3  A    between atoms: C_9  and  C_19 
REMARK    4  A    between atoms: C_16  and  C_17 
REMARK    5  A    between atoms: C_17  and  O_25 
ROOT
HETATM    1  C   UNL     1     -41.138 -48.986  12.161  1.00  0.00     0.122 A 
HETATM    2  C   UNL     1     -40.179 -48.047  11.710  1.00  0.00     0.136 A 
HETATM    3  N   UNL     1     -41.909 -51.014  12.479  1.00  0.00    -0.324 N 
HETATM    4  C   UNL     1     -40.778 -50.327  12.128  1.00  0.00     0.140 A 
HETATM    5  N   UNL     1     -42.451 -48.861  12.589  1.00  0.00    -0.346 N 
ATOM      6  HN  UNL     1     -42.975 -47.998  12.734  1.00  0.00     0.167 HD
HETATM    7  C   UNL     1     -42.878 -50.092  12.768  1.00  0.00     0.185 A 
HETATM    8  N   UNL     1     -38.967 -48.545  11.341  1.00  0.00    -0.337 N 
ATOM      9  HN  UNL     1     -38.230 -47.914  11.026  1.00  0.00     0.168 HD
HETATM   10  N   UNL     1     -39.594 -50.851  11.767  1.00  0.00    -0.336 N 
ATOM     11  HN  UNL     1     -39.371 -51.846  11.774  1.00  0.00     0.168 HD
HETATM   12  C   UNL     1     -38.744 -49.872  11.393  1.00  0.00     0.183 A 
ENDROOT
BRANCH   2  13
HETATM   13  N   UNL     1     -40.463 -46.685  11.557  1.00  0.00    -0.356 N 
HETATM   14  C   UNL     1     -41.252 -45.918  10.631  1.00  0.00     0.124 C 
HETATM   15  C   UNL     1     -41.099 -44.751  11.684  1.00  0.00    -0.008 C 
HETATM   16  C   UNL     1     -40.823 -43.373  11.100  1.00  0.00     0.018 C 
HETATM   17  C   UNL     1     -42.140 -44.672  12.814  1.00  0.00     0.018 C 
HETATM   18  C   UNL     1     -39.862 -45.547  12.165  1.00  0.00     0.136 C 
BRANCH  14  19
HETATM   19  C   UNL     1     -42.670 -46.401  10.328  1.00  0.00     0.145 C 
HETATM   20  O   UNL     1     -42.662 -47.601   9.528  1.00  0.00    -0.384 OA
HETATM   21  C   UNL     1     -43.773 -47.565   8.624  1.00  0.00     0.168 C 
HETATM   22  C   UNL     1     -44.489 -46.250   8.840  1.00  0.00     0.029 C 
HETATM   23  C   UNL     1     -43.412 -45.395   9.456  1.00  0.00     0.036 C 
ENDBRANCH  14  19
ENDBRANCH   2  13
BRANCH   3  24
HETATM   24  C   UNL     1     -42.108 -52.444  12.350  1.00  0.00     0.171 C 
BRANCH  24  25
HETATM   25  C   UNL     1     -41.351 -53.302  13.374  1.00  0.00     0.097 C 
HETATM   26  C   UNL     1     -42.204 -54.449  13.893  1.00  0.00     0.068 C 
HETATM   27  C   UNL     1     -41.596 -54.749  15.250  1.00  0.00     0.170 C 
HETATM   28  O   UNL     1     -40.997 -53.539  15.729  1.00  0.00    -0.388 OA
HETATM   29  C   UNL     1     -41.032 -52.563  14.674  1.00  0.00     0.207 C 
BRANCH  25  30
HETATM   30  O   UNL     1     -40.160 -53.874  12.821  1.00  0.00    -0.386 OA
HETATM   31  H   UNL     1     -39.962 -54.727  13.255  1.00  0.00     0.210 HD
ENDBRANCH  25  30
ENDBRANCH  24  25
ENDBRANCH   3  24
TORSDOF 5
ENDMDL
MODEL 3
REMARK VINA RESULT:      -6.7      1.810      2.481
REMARK  5 active torsions:
REMARK  status: ('A' for Active; 'I' for Inactive)
REMARK    1  A    between atoms: N_1  and  C_3 
REMARK    2  A    between atoms: N_4  and  C_16 
REMARK    3  A    between atoms: C_9  and  C_19 
REMARK    4  A    between atoms: C_16  and  C_17 
REMARK    5  A    between atoms: C_17  and  O_25 
ROOT
HETATM    1  C   UNL     1     -42.600 -50.486  12.803  1.00  0.00     0.122 A 
HETATM    2  C   UNL     1     -41.384 -50.010  12.257  1.00  0.00     0.136 A 
HETATM    3  N   UNL     1     -44.216 -51.950  13.031  1.00  0.00    -0.324 N 
HETATM    4  C   UNL     1     -42.962 -51.793  12.503  1.00  0.00     0.140 A 
HETATM    5  N   UNL     1     -43.594 -49.883  13.558  1.00  0.00    -0.346 N 
ATOM      6  HN  UNL     1     -43.591 -48.938  13.944  1.00  0.00     0.167 HD
HETATM    7  C   UNL     1     -44.543 -50.787  13.672  1.00  0.00     0.185 A 
HETATM    8  N   UNL     1     -40.651 -50.902  11.534  1.00  0.00    -0.337 N 
ATOM      9  HN  UNL     1     -39.757 -50.622  11.132  1.00  0.00     0.168 HD
HETATM   10  N   UNL     1     -42.267 -52.696  11.791  1.00  0.00    -0.336 N 
ATOM     11  HN  UNL     1     -42.568 -53.653  11.610  1.00  0.00     0.168 HD
HETATM   12  C   UNL     1     -41.112 -52.154  11.352  1.00  0.00     0.183 A 
ENDROOT
BRANCH   2  13
HETATM   13  N   UNL     1     -40.974 -48.676  12.363  1.00  0.00    -0.356 N 
HETATM   14  C   UNL     1     -41.068 -47.522  11.510  1.00  0.00     0.124 C 
HETATM   15  C   UNL     1     -40.679 -46.706  12.805  1.00  0.00    -0.008 C 
HETATM   16  C   UNL     1     -39.673 -45.584  12.595  1.00  0.00     0.018 C 
HETATM   17  C   UNL     1     -41.822 -46.257  13.731  1.00  0.00     0.018 C 
HETATM   18  C   UNL     1     -40.101 -48.054  13.300  1.00  0.00     0.136 C 
BRANCH  14  19
HETATM   19  C   UNL     1     -42.422 -47.212  10.872  1.00  0.00     0.145 C 
HETATM   20  O   UNL     1     -42.700 -48.093   9.764  1.00  0.00    -0.384 OA
HETATM   21  C   UNL     1     -43.411 -47.364   8.757  1.00  0.00     0.168 C 
HETATM   22  C   UNL     1     -43.546 -45.937   9.243  1.00  0.00     0.029 C 
HETATM   23  C   UNL     1     -42.417 -45.828  10.234  1.00  0.00     0.036 C 
ENDBRANCH  14  19
ENDBRANCH   2  13
BRANCH   3  24
HETATM   24  C   UNL     1     -45.115 -53.057  12.766  1.00  0.00     0.171 C 
BRANCH  24  25
HETATM   25  C   UNL     1     -45.340 -54.011  13.947  1.00  0.00     0.097 C 
HETATM   26  C   UNL     1     -46.323 -53.439  14.958  1.00  0.00     0.068 C 
HETATM   27  C   UNL     1     -45.941 -54.139  16.248  1.00  0.00     0.170 C 
HETATM   28  O   UNL     1     -44.552 -54.480  16.158  1.00  0.00    -0.388 OA
HETATM   29  C   UNL     1     -44.101 -54.204  14.821  1.00  0.00     0.207 C 
BRANCH  25  30
HETATM   30  O   UNL     1     -45.855 -55.279  13.524  1.00  0.00    -0.386 OA
HETATM   31  H   UNL     1     -45.187 -55.755  12.994  1.00  0.00     0.210 HD
ENDBRANCH  25  30
ENDBRANCH  24  25
ENDBRANCH   3  24
TORSDOF 5
ENDMDL
MODEL 4
REMARK VINA RESULT:      -6.5      1.466      2.329
REMARK  5 active torsions:
REMARK  status: ('A' for Active; 'I' for Inactive)
REMARK    1  A    between atoms: N_1  and  C_3 
REMARK    2  A    between atoms: N_4  and  C_16 
REMARK    3  A    between atoms: C_9  and  C_19 
REMARK    4  A    between atoms: C_16  and  C_17 
REMARK    5  A    between atoms: C_17  and  O_25 
ROOT
HETATM    1  C   UNL     1     -41.890 -49.521  12.740  1.00  0.00     0.122 A 
HETATM    2  C   UNL     1     -41.851 -48.138  13.041  1.00  0.00     0.136 A 
HETATM    3  N   UNL     1     -42.176 -51.637  13.239  1.00  0.00    -0.324 N 
HETATM    4  C   UNL     1     -42.370 -50.372  13.727  1.00  0.00     0.140 A 
HETATM    5  N   UNL     1     -41.471 -50.260  11.643  1.00  0.00    -0.346 N 
ATOM      6  HN  UNL     1     -41.099 -49.903  10.763  1.00  0.00     0.167 HD
HETATM    7  C   UNL     1     -41.657 -51.518  11.979  1.00  0.00     0.185 A 
HETATM    8  N   UNL     1     -42.345 -47.765  14.253  1.00  0.00    -0.337 N 
ATOM      9  HN  UNL     1     -42.361 -46.780  14.518  1.00  0.00     0.168 HD
HETATM   10  N   UNL     1     -42.861 -50.038  14.932  1.00  0.00    -0.336 N 
ATOM     11  HN  UNL     1     -43.218 -50.701  15.620  1.00  0.00     0.168 HD
HETATM   12  C   UNL     1     -42.814 -48.701  15.102  1.00  0.00     0.183 A 
ENDROOT
BRANCH   2  13
HETATM   13  N   UNL     1     -41.260 -47.194  12.194  1.00  0.00    -0.356 N 
HETATM   14  C   UNL     1     -41.534 -46.723  10.863  1.00  0.00     0.124 C 
HETATM   15  C   UNL     1     -40.553 -45.540  11.230  1.00  0.00    -0.008 C 
HETATM   16  C   UNL     1     -39.576 -45.134  10.136  1.00  0.00     0.018 C 
HETATM   17  C   UNL     1     -41.158 -44.303  11.916  1.00  0.00     0.018 C 
HETATM   18  C   UNL     1     -40.010 -46.519  12.299  1.00  0.00     0.136 C 
BRANCH  14  19
HETATM   19  C   UNL     1     -42.975 -46.350  10.518  1.00  0.00     0.145 C 
HETATM   20  O   UNL     1     -43.860 -47.482  10.648  1.00  0.00    -0.384 OA
HETATM   21  C   UNL     1     -44.868 -47.404   9.633  1.00  0.00     0.168 C 
HETATM   22  C   UNL     1     -44.570 -46.180   8.794  1.00  0.00     0.029 C 
HETATM   23  C   UNL     1     -43.100 -45.967   9.049  1.00  0.00     0.036 C 
ENDBRANCH  14  19
ENDBRANCH   2  13
BRANCH   3  24
HETATM   24  C   UNL     1     -42.289 -52.866  14.000  1.00  0.00     0.171 C 
BRANCH  24  25
HETATM   25  C   UNL     1     -43.719 -53.389  14.185  1.00  0.00     0.097 C 
HETATM   26  C   UNL     1     -43.742 -54.873  14.517  1.00  0.00     0.068 C 
HETATM   27  C   UNL     1     -45.113 -55.316  14.044  1.00  0.00     0.170 C 
HETATM   28  O   UNL     1     -45.507 -54.435  12.985  1.00  0.00    -0.388 OA
HETATM   29  C   UNL     1     -44.551 -53.365  12.902  1.00  0.00     0.207 C 
BRANCH  25  30
HETATM   30  O   UNL     1     -44.410 -52.708  15.239  1.00  0.00    -0.386 OA
HETATM   31  H   UNL     1     -45.065 -52.085  14.867  1.00  0.00     0.210 HD
ENDBRANCH  25  30
ENDBRANCH  24  25
ENDBRANCH   3  24
TORSDOF 5
ENDMDL
MODEL 5
REMARK VINA RESULT:      -6.5      2.281      3.276
REMARK  5 active torsions:
REMARK  status: ('A' for Active; 'I' for Inactive)
REMARK    1  A    between atoms: N_1  and  C_3 
REMARK    2  A    between atoms: N_4  and  C_16 
REMARK    3  A    between atoms: C_9  and  C_19 
REMARK    4  A    between atoms: C_16  and  C_17 
REMARK    5  A    between atoms: C_17  and  O_25 
ROOT
HETATM    1  C   UNL     1     -41.746 -50.382  12.205  1.00  0.00     0.122 A 
HETATM    2  C   UNL     1     -42.111 -49.040  12.468  1.00  0.00     0.136 A 
HETATM    3  N   UNL     1     -41.717 -52.534  12.625  1.00  0.00    -0.324 N 
HETATM    4  C   UNL     1     -42.334 -51.366  12.988  1.00  0.00     0.140 A 
HETATM    5  N   UNL     1     -40.831 -50.956  11.335  1.00  0.00    -0.346 N 
ATOM      6  HN  UNL     1     -40.269 -50.483  10.627  1.00  0.00     0.167 HD
HETATM    7  C   UNL     1     -40.841 -52.241  11.617  1.00  0.00     0.185 A 
HETATM    8  N   UNL     1     -43.056 -48.844  13.429  1.00  0.00    -0.337 N 
ATOM      9  HN  UNL     1     -43.374 -47.900  13.649  1.00  0.00     0.168 HD
HETATM   10  N   UNL     1     -43.265 -51.208  13.944  1.00  0.00    -0.336 N 
ATOM     11  HN  UNL     1     -43.681 -51.966  14.484  1.00  0.00     0.168 HD
HETATM   12  C   UNL     1     -43.569 -49.901  14.088  1.00  0.00     0.183 A 
ENDROOT
BRANCH   2  13
HETATM   13  N   UNL     1     -41.489 -47.948  11.853  1.00  0.00    -0.356 N 
HETATM   14  C   UNL     1     -41.755 -47.169  10.674  1.00  0.00     0.124 C 
HETATM   15  C   UNL     1     -40.721 -46.145  11.286  1.00  0.00    -0.008 C 
HETATM   16  C   UNL     1     -39.738 -45.535  10.297  1.00  0.00     0.018 C 
HETATM   17  C   UNL     1     -41.264 -45.079  12.253  1.00  0.00     0.018 C 
HETATM   18  C   UNL     1     -40.210 -47.367  12.086  1.00  0.00     0.136 C 
BRANCH  14  19
HETATM   19  C   UNL     1     -43.183 -46.669  10.454  1.00  0.00     0.145 C 
HETATM   20  O   UNL     1     -44.138 -47.749  10.517  1.00  0.00    -0.384 OA
HETATM   21  C   UNL     1     -45.188 -47.495   9.575  1.00  0.00     0.168 C 
HETATM   22  C   UNL     1     -44.848 -46.210   8.853  1.00  0.00     0.029 C 
HETATM   23  C   UNL     1     -43.355 -46.121   9.043  1.00  0.00     0.036 C 
ENDBRANCH  14  19
ENDBRANCH   2  13
BRANCH   3  24
HETATM   24  C   UNL     1     -41.811 -53.797  13.330  1.00  0.00     0.171 C 
BRANCH  24  25
HETATM   25  C   UNL     1     -40.868 -53.945  14.532  1.00  0.00     0.097 C 
HETATM   26  C   UNL     1     -39.514 -54.504  14.123  1.00  0.00     0.068 C 
HETATM   27  C   UNL     1     -39.005 -55.151  15.397  1.00  0.00     0.170 C 
HETATM   28  O   UNL     1     -40.149 -55.534  16.170  1.00  0.00    -0.388 OA
HETATM   29  C   UNL     1     -41.325 -54.997  15.543  1.00  0.00     0.207 C 
BRANCH  25  30
HETATM   30  O   UNL     1     -40.631 -52.694  15.187  1.00  0.00    -0.386 OA
HETATM   31  H   UNL     1     -41.175 -51.991  14.782  1.00  0.00     0.210 HD
ENDBRANCH  25  30
ENDBRANCH  24  25
ENDBRANCH   3  24
TORSDOF 5
ENDMDL
MODEL 6
REMARK VINA RESULT:      -6.4      2.178      7.819
REMARK  5 active torsions:
REMARK  status: ('A' for Active; 'I' for Inactive)
REMARK    1  A    between atoms: N_1  and  C_3 
REMARK    2  A    between atoms: N_4  and  C_16 
REMARK    3  A    between atoms: C_9  and  C_19 
REMARK    4  A    between atoms: C_16  and  C_17 
REMARK    5  A    between atoms: C_17  and  O_25 
ROOT
HETATM    1  C   UNL     1     -42.388 -50.470  12.808  1.00  0.00     0.122 A 
HETATM    2  C   UNL     1     -42.170 -51.864  12.699  1.00  0.00     0.136 A 
HETATM    3  N   UNL     1     -41.746 -48.373  12.834  1.00  0.00    -0.324 N 
HETATM    4  C   UNL     1     -41.314 -49.635  12.526  1.00  0.00     0.140 A 
HETATM    5  N   UNL     1     -43.476 -49.714  13.220  1.00  0.00    -0.346 N 
ATOM      6  HN  UNL     1     -44.406 -50.053  13.467  1.00  0.00     0.167 HD
HETATM    7  C   UNL     1     -43.054 -48.468  13.224  1.00  0.00     0.185 A 
HETATM    8  N   UNL     1     -40.940 -52.256  12.268  1.00  0.00    -0.337 N 
ATOM      9  HN  UNL     1     -40.730 -53.247  12.151  1.00  0.00     0.168 HD
HETATM   10  N   UNL     1     -40.088 -49.988  12.102  1.00  0.00    -0.336 N 
ATOM     11  HN  UNL     1     -39.334 -49.335  11.892  1.00  0.00     0.168 HD
HETATM   12  C   UNL     1     -39.999 -51.330  11.996  1.00  0.00     0.183 A 
ENDROOT
BRANCH   2  13
HETATM   13  N   UNL     1     -43.120 -52.814  13.091  1.00  0.00    -0.356 N 
HETATM   14  C   UNL     1     -43.060 -54.076  13.777  1.00  0.00     0.124 C 
HETATM   15  C   UNL     1     -44.622 -53.906  13.936  1.00  0.00    -0.008 C 
HETATM   16  C   UNL     1     -45.446 -55.164  13.705  1.00  0.00     0.018 C 
HETATM   17  C   UNL     1     -45.131 -53.132  15.165  1.00  0.00     0.018 C 
HETATM   18  C   UNL     1     -44.491 -52.946  12.729  1.00  0.00     0.136 C 
BRANCH  14  19
HETATM   19  C   UNL     1     -42.234 -54.154  15.061  1.00  0.00     0.145 C 
HETATM   20  O   UNL     1     -40.818 -54.146  14.781  1.00  0.00    -0.384 OA
HETATM   21  C   UNL     1     -40.153 -54.989  15.729  1.00  0.00     0.168 C 
HETATM   22  C   UNL     1     -41.215 -55.592  16.622  1.00  0.00     0.029 C 
HETATM   23  C   UNL     1     -42.451 -55.487  15.767  1.00  0.00     0.036 C 
ENDBRANCH  14  19
ENDBRANCH   2  13
BRANCH   3  24
HETATM   24  C   UNL     1     -40.910 -47.193  12.942  1.00  0.00     0.171 C 
BRANCH  24  25
HETATM   25  C   UNL     1     -40.715 -46.410  11.637  1.00  0.00     0.097 C 
HETATM   26  C   UNL     1     -39.790 -45.218  11.824  1.00  0.00     0.068 C 
HETATM   27  C   UNL     1     -40.210 -44.272  10.715  1.00  0.00     0.170 C 
HETATM   28  O   UNL     1     -41.586 -44.541  10.420  1.00  0.00    -0.388 OA
HETATM   29  C   UNL     1     -41.986 -45.718  11.144  1.00  0.00     0.207 C 
BRANCH  25  30
HETATM   30  O   UNL     1     -40.156 -47.223  10.599  1.00  0.00    -0.386 OA
HETATM   31  H   UNL     1     -39.239 -46.946  10.409  1.00  0.00     0.210 HD
ENDBRANCH  25  30
ENDBRANCH  24  25
ENDBRANCH   3  24
TORSDOF 5
ENDMDL
MODEL 7
REMARK VINA RESULT:      -6.4      1.773      6.578
REMARK  5 active torsions:
REMARK  status: ('A' for Active; 'I' for Inactive)
REMARK    1  A    between atoms: N_1  and  C_3 
REMARK    2  A    between atoms: N_4  and  C_16 
REMARK    3  A    between atoms: C_9  and  C_19 
REMARK    4  A    between atoms: C_16  and  C_17 
REMARK    5  A    between atoms: C_17  and  O_25 
ROOT
HETATM    1  C   UNL     1     -41.630 -49.895  12.464  1.00  0.00     0.122 A 
HETATM    2  C   UNL     1     -40.593 -50.819  12.734  1.00  0.00     0.136 A 
HETATM    3  N   UNL     1     -42.473 -48.099  11.529  1.00  0.00    -0.324 N 
HETATM    4  C   UNL     1     -41.384 -48.929  11.496  1.00  0.00     0.140 A 
HETATM    5  N   UNL     1     -42.880 -49.688  13.029  1.00  0.00    -0.346 N 
ATOM      6  HN  UNL     1     -43.336 -50.254  13.745  1.00  0.00     0.167 HD
HETATM    7  C   UNL     1     -43.352 -48.607  12.446  1.00  0.00     0.185 A 
HETATM    8  N   UNL     1     -39.469 -50.711  11.973  1.00  0.00    -0.337 N 
ATOM      9  HN  UNL     1     -38.695 -51.362  12.109  1.00  0.00     0.168 HD
HETATM   10  N   UNL     1     -40.288 -48.793  10.732  1.00  0.00    -0.336 N 
ATOM     11  HN  UNL     1     -40.159 -48.074  10.020  1.00  0.00     0.168 HD
HETATM   12  C   UNL     1     -39.381 -49.743  11.042  1.00  0.00     0.183 A 
ENDROOT
BRANCH   2  13
HETATM   13  N   UNL     1     -40.656 -51.747  13.780  1.00  0.00    -0.356 N 
HETATM   14  C   UNL     1     -41.701 -52.556  14.347  1.00  0.00     0.124 C 
HETATM   15  C   UNL     1     -40.522 -53.340  15.048  1.00  0.00    -0.008 C 
HETATM   16  C   UNL     1     -40.760 -53.718  16.503  1.00  0.00     0.018 C 
HETATM   17  C   UNL     1     -39.884 -54.505  14.273  1.00  0.00     0.018 C 
HETATM   18  C   UNL     1     -39.714 -52.043  14.805  1.00  0.00     0.136 C 
BRANCH  14  19
HETATM   19  C   UNL     1     -42.592 -53.349  13.391  1.00  0.00     0.145 C 
HETATM   20  O   UNL     1     -43.523 -52.489  12.700  1.00  0.00    -0.384 OA
HETATM   21  C   UNL     1     -44.757 -53.194  12.518  1.00  0.00     0.168 C 
HETATM   22  C   UNL     1     -44.604 -54.551  13.170  1.00  0.00     0.029 C 
HETATM   23  C   UNL     1     -43.493 -54.309  14.158  1.00  0.00     0.036 C 
ENDBRANCH  14  19
ENDBRANCH   2  13
BRANCH   3  24
HETATM   24  C   UNL     1     -42.574 -46.806  10.880  1.00  0.00     0.171 C 
BRANCH  24  25
HETATM   25  C   UNL     1     -43.448 -46.777   9.619  1.00  0.00     0.097 C 
HETATM   26  C   UNL     1     -44.847 -47.311   9.886  1.00  0.00     0.068 C 
HETATM   27  C   UNL     1     -45.303 -47.791   8.521  1.00  0.00     0.170 C 
HETATM   28  O   UNL     1     -44.131 -48.142   7.775  1.00  0.00    -0.388 OA
HETATM   29  C   UNL     1     -42.974 -47.733   8.524  1.00  0.00     0.207 C 
BRANCH  25  30
HETATM   30  O   UNL     1     -43.593 -45.452   9.095  1.00  0.00    -0.386 OA
HETATM   31  H   UNL     1     -42.838 -45.233   8.514  1.00  0.00     0.210 HD
ENDBRANCH  25  30
ENDBRANCH  24  25
ENDBRANCH   3  24
TORSDOF 5
ENDMDL
MODEL 8
REMARK VINA RESULT:      -6.3      2.283      3.666
REMARK  5 active torsions:
REMARK  status: ('A' for Active; 'I' for Inactive)
REMARK    1  A    between atoms: N_1  and  C_3 
REMARK    2  A    between atoms: N_4  and  C_16 
REMARK    3  A    between atoms: C_9  and  C_19 
REMARK    4  A    between atoms: C_16  and  C_17 
REMARK    5  A    between atoms: C_17  and  O_25 
ROOT
HETATM    1  C   UNL     1     -41.017 -52.175  14.211  1.00  0.00     0.122 A 
HETATM    2  C   UNL     1     -40.255 -51.450  13.263  1.00  0.00     0.136 A 
HETATM    3  N   UNL     1     -42.545 -53.628  14.812  1.00  0.00    -0.324 N 
HETATM    4  C   UNL     1     -41.832 -53.190  13.728  1.00  0.00     0.140 A 
HETATM    5  N   UNL     1     -41.188 -52.045  15.581  1.00  0.00    -0.346 N 
ATOM      6  HN  UNL     1     -40.703 -51.402  16.207  1.00  0.00     0.167 HD
HETATM    7  C   UNL     1     -42.109 -52.928  15.903  1.00  0.00     0.185 A 
HETATM    8  N   UNL     1     -40.348 -51.858  11.968  1.00  0.00    -0.337 N 
ATOM      9  HN  UNL     1     -39.807 -51.386  11.243  1.00  0.00     0.168 HD
HETATM   10  N   UNL     1     -41.951 -53.614  12.458  1.00  0.00    -0.336 N 
ATOM     11  HN  UNL     1     -42.554 -54.377  12.153  1.00  0.00     0.168 HD
HETATM   12  C   UNL     1     -41.157 -52.886  11.646  1.00  0.00     0.183 A 
ENDROOT
BRANCH   2  13
HETATM   13  N   UNL     1     -39.506 -50.316  13.599  1.00  0.00    -0.356 N 
HETATM   14  C   UNL     1     -39.265 -49.045  12.970  1.00  0.00     0.124 C 
HETATM   15  C   UNL     1     -38.706 -48.611  14.381  1.00  0.00    -0.008 C 
HETATM   16  C   UNL     1     -37.431 -47.780  14.354  1.00  0.00     0.018 C 
HETATM   17  C   UNL     1     -39.710 -48.045  15.401  1.00  0.00     0.018 C 
HETATM   18  C   UNL     1     -38.523 -50.130  14.612  1.00  0.00     0.136 C 
BRANCH  14  19
HETATM   19  C   UNL     1     -40.470 -48.274  12.431  1.00  0.00     0.145 C 
HETATM   20  O   UNL     1     -41.162 -49.020  11.407  1.00  0.00    -0.384 OA
HETATM   21  C   UNL     1     -41.656 -48.106  10.421  1.00  0.00     0.168 C 
HETATM   22  C   UNL     1     -41.211 -46.718  10.827  1.00  0.00     0.029 C 
HETATM   23  C   UNL     1     -40.025 -47.007  11.711  1.00  0.00     0.036 C 
ENDBRANCH  14  19
ENDBRANCH   2  13
BRANCH   3  24
HETATM   24  C   UNL     1     -43.700 -54.504  14.770  1.00  0.00     0.171 C 
BRANCH  24  25
HETATM   25  C   UNL     1     -44.954 -53.900  14.124  1.00  0.00     0.097 C 
HETATM   26  C   UNL     1     -45.055 -52.403  14.376  1.00  0.00     0.068 C 
HETATM   27  C   UNL     1     -46.543 -52.130  14.260  1.00  0.00     0.170 C 
HETATM   28  O   UNL     1     -47.230 -53.338  14.609  1.00  0.00    -0.388 OA
HETATM   29  C   UNL     1     -46.261 -54.390  14.750  1.00  0.00     0.207 C 
BRANCH  25  30
HETATM   30  O   UNL     1     -44.977 -54.094  12.706  1.00  0.00    -0.386 OA
HETATM   31  H   UNL     1     -45.869 -53.907  12.353  1.00  0.00     0.210 HD
ENDBRANCH  25  30
ENDBRANCH  24  25
ENDBRANCH   3  24
TORSDOF 5
ENDMDL
MODEL 9
REMARK VINA RESULT:      -6.2      2.449      4.117
REMARK  5 active torsions:
REMARK  status: ('A' for Active; 'I' for Inactive)
REMARK    1  A    between atoms: N_1  and  C_3 
REMARK    2  A    between atoms: N_4  and  C_16 
REMARK    3  A    between atoms: C_9  and  C_19 
REMARK    4  A    between atoms: C_16  and  C_17 
REMARK    5  A    between atoms: C_17  and  O_25 
ROOT
HETATM    1  C   UNL     1     -42.746 -50.518  12.799  1.00  0.00     0.122 A 
HETATM    2  C   UNL     1     -41.579 -49.899  12.291  1.00  0.00     0.136 A 
HETATM    3  N   UNL     1     -44.174 -52.172  12.989  1.00  0.00    -0.324 N 
HETATM    4  C   UNL     1     -42.930 -51.863  12.506  1.00  0.00     0.140 A 
HETATM    5  N   UNL     1     -43.838 -50.037  13.506  1.00  0.00    -0.346 N 
ATOM      6  HN  UNL     1     -43.969 -49.095  13.876  1.00  0.00     0.167 HD
HETATM    7  C   UNL     1     -44.669 -51.053  13.599  1.00  0.00     0.185 A 
HETATM    8  N   UNL     1     -40.713 -50.699  11.612  1.00  0.00    -0.337 N 
ATOM      9  HN  UNL     1     -39.845 -50.313  11.239  1.00  0.00     0.168 HD
HETATM   10  N   UNL     1     -42.099 -52.679  11.836  1.00  0.00    -0.336 N 
ATOM     11  HN  UNL     1     -42.270 -53.669  11.659  1.00  0.00     0.168 HD
HETATM   12  C   UNL     1     -41.005 -52.002  11.432  1.00  0.00     0.183 A 
ENDROOT
BRANCH   2  13
HETATM   13  N   UNL     1     -41.345 -48.523  12.391  1.00  0.00    -0.356 N 
HETATM   14  C   UNL     1     -40.489 -47.702  13.205  1.00  0.00     0.124 C 
HETATM   15  C   UNL     1     -40.825 -46.563  12.164  1.00  0.00    -0.008 C 
HETATM   16  C   UNL     1     -41.096 -45.189  12.760  1.00  0.00     0.018 C 
HETATM   17  C   UNL     1     -39.933 -46.456  10.915  1.00  0.00     0.018 C 
HETATM   18  C   UNL     1     -42.071 -47.425  11.847  1.00  0.00     0.136 C 
BRANCH  14  19
HETATM   19  C   UNL     1     -39.023 -48.112  13.339  1.00  0.00     0.145 C 
HETATM   20  O   UNL     1     -38.887 -49.384  14.008  1.00  0.00    -0.384 OA
HETATM   21  C   UNL     1     -37.705 -49.359  14.817  1.00  0.00     0.168 C 
HETATM   22  C   UNL     1     -37.093 -47.983  14.682  1.00  0.00     0.029 C 
HETATM   23  C   UNL     1     -38.271 -47.149  14.249  1.00  0.00     0.036 C 
ENDBRANCH  14  19
ENDBRANCH   2  13
BRANCH   3  24
HETATM   24  C   UNL     1     -44.916 -53.386  12.708  1.00  0.00     0.171 C 
BRANCH  24  25
HETATM   25  C   UNL     1     -45.257 -54.240  13.936  1.00  0.00     0.097 C 
HETATM   26  C   UNL     1     -46.246 -53.541  14.856  1.00  0.00     0.068 C 
HETATM   27  C   UNL     1     -45.971 -54.172  16.208  1.00  0.00     0.170 C 
HETATM   28  O   UNL     1     -44.605 -54.603  16.211  1.00  0.00    -0.388 OA
HETATM   29  C   UNL     1     -44.074 -54.449  14.884  1.00  0.00     0.207 C 
BRANCH  25  30
HETATM   30  O   UNL     1     -45.832 -55.501  13.573  1.00  0.00    -0.386 OA
HETATM   31  H   UNL     1     -46.081 -55.499  12.629  1.00  0.00     0.210 HD
ENDBRANCH  25  30
ENDBRANCH  24  25
ENDBRANCH   3  24
TORSDOF 5
ENDMDL
