MODEL 1
REMARK VINA RESULT:      -6.2      0.000      0.000
REMARK  4 active torsions:
REMARK  status: ('A' for Active; 'I' for Inactive)
REMARK    1  A    between atoms: C_2  and  O_4 
REMARK    2  A    between atoms: O_4  and  C_5 
REMARK    3  A    between atoms: C_8  and  N_9 
REMARK    4  A    between atoms: N_9  and  C_10 
ROOT
HETATM    1  C   UNL     1     -43.143 -54.476  14.064  1.00  0.00     0.090 A 
HETATM    2  C   UNL     1     -41.839 -54.465  14.537  1.00  0.00     0.041 A 
HETATM    3  C   UNL     1     -40.874 -53.720  13.852  1.00  0.00     0.045 A 
HETATM    4  C   UNL     1     -41.216 -53.025  12.693  1.00  0.00     0.080 A 
HETATM    5  N   UNL     1     -42.460 -53.084  12.192  1.00  0.00    -0.354 N 
ATOM      6  HN  UNL     1     -42.700 -52.610  11.321  1.00  0.00     0.166 HD
HETATM    7  C   UNL     1     -43.389 -53.795  12.882  1.00  0.00     0.126 A 
ENDROOT
BRANCH   4   8
HETATM    8  N   UNL     1     -40.236 -52.236  12.086  1.00  0.00    -0.272 NA
HETATM    9  H   UNL     1     -39.400 -52.791  11.941  1.00  0.00     0.129 HD
BRANCH   8  10
HETATM   10  C   UNL     1     -39.985 -50.897  12.618  1.00  0.00     0.093 C 
HETATM   11  C   UNL     1     -39.966 -49.868  11.466  1.00  0.00     0.054 C 
HETATM   12  C   UNL     1     -38.660 -49.112  11.719  1.00  0.00     0.123 C 
HETATM   13  C   UNL     1     -37.451 -49.958  11.331  1.00  0.00     0.034 C 
HETATM   14  O   UNL     1     -38.568 -49.153  13.158  1.00  0.00    -0.379 OA
HETATM   15  C   UNL     1     -37.434 -51.015  12.434  1.00  0.00     0.036 C 
HETATM   16  C   UNL     1     -38.631 -50.605  13.291  1.00  0.00     0.140 C 
ENDBRANCH   8  10
ENDBRANCH   4   8
BRANCH   1  17
HETATM   17  O   UNL     1     -44.206 -55.101  14.644  1.00  0.00    -0.289 OA
BRANCH  17  18
HETATM   18  C   UNL     1     -45.454 -54.909  13.999  1.00  0.00     0.505 C 
HETATM   19  F   UNL     1     -45.897 -56.130  13.606  1.00  0.00    -0.184 F 
HETATM   20  F   UNL     1     -46.345 -54.442  14.907  1.00  0.00    -0.184 F 
ENDBRANCH  17  18
ENDBRANCH   1  17
TORSDOF 4
ENDMDL
MODEL 2
REMARK VINA RESULT:      -5.9      5.041      6.182
REMARK  4 active torsions:
REMARK  status: ('A' for Active; 'I' for Inactive)
REMARK    1  A    between atoms: C_2  and  O_4 
REMARK    2  A    between atoms: O_4  and  C_5 
REMARK    3  A    between atoms: C_8  and  N_9 
REMARK    4  A    between atoms: N_9  and  C_10 
ROOT
HETATM    1  C   UNL     1     -44.272 -47.518   9.515  1.00  0.00     0.090 A 
HETATM    2  C   UNL     1     -44.095 -47.595  10.888  1.00  0.00     0.041 A 
HETATM    3  C   UNL     1     -42.827 -47.899  11.393  1.00  0.00     0.045 A 
HETATM    4  C   UNL     1     -41.766 -48.150  10.525  1.00  0.00     0.080 A 
HETATM    5  N   UNL     1     -41.945 -48.142   9.194  1.00  0.00    -0.354 N 
ATOM      6  HN  UNL     1     -41.179 -48.367   8.559  1.00  0.00     0.166 HD
HETATM    7  C   UNL     1     -43.177 -47.825   8.721  1.00  0.00     0.126 A 
ENDROOT
BRANCH   4   8
HETATM    8  N   UNL     1     -40.503 -48.376  11.076  1.00  0.00    -0.272 NA
HETATM    9  H   UNL     1     -39.800 -48.301  10.349  1.00  0.00     0.129 HD
BRANCH   8  10
HETATM   10  C   UNL     1     -40.323 -49.518  11.973  1.00  0.00     0.093 C 
HETATM   11  C   UNL     1     -40.153 -49.024  13.426  1.00  0.00     0.054 C 
HETATM   12  C   UNL     1     -38.891 -49.761  13.880  1.00  0.00     0.123 C 
HETATM   13  C   UNL     1     -37.642 -49.151  13.251  1.00  0.00     0.034 C 
HETATM   14  O   UNL     1     -38.988 -50.997  13.143  1.00  0.00    -0.379 OA
HETATM   15  C   UNL     1     -37.771 -49.593  11.794  1.00  0.00     0.036 C 
HETATM   16  C   UNL     1     -39.070 -50.398  11.815  1.00  0.00     0.140 C 
ENDBRANCH   8  10
ENDBRANCH   4   8
BRANCH   1  17
HETATM   17  O   UNL     1     -45.422 -47.180   8.867  1.00  0.00    -0.289 OA
BRANCH  17  18
HETATM   18  C   UNL     1     -46.478 -48.122   8.963  1.00  0.00     0.505 C 
HETATM   19  F   UNL     1     -47.633 -47.422   9.082  1.00  0.00    -0.184 F 
HETATM   20  F   UNL     1     -46.554 -48.810   7.798  1.00  0.00    -0.184 F 
ENDBRANCH  17  18
ENDBRANCH   1  17
TORSDOF 4
ENDMDL
MODEL 3
REMARK VINA RESULT:      -5.7      3.781      6.402
REMARK  4 active torsions:
REMARK  status: ('A' for Active; 'I' for Inactive)
REMARK    1  A    between atoms: C_2  and  O_4 
REMARK    2  A    between atoms: O_4  and  C_5 
REMARK    3  A    between atoms: C_8  and  N_9 
REMARK    4  A    between atoms: N_9  and  C_10 
ROOT
HETATM    1  C   UNL     1     -40.689 -53.295  13.067  1.00  0.00     0.090 A 
HETATM    2  C   UNL     1     -41.583 -54.000  13.859  1.00  0.00     0.041 A 
HETATM    3  C   UNL     1     -42.948 -53.939  13.563  1.00  0.00     0.045 A 
HETATM    4  C   UNL     1     -43.403 -53.154  12.504  1.00  0.00     0.080 A 
HETATM    5  N   UNL     1     -42.551 -52.418  11.773  1.00  0.00    -0.354 N 
ATOM      6  HN  UNL     1     -42.888 -51.811  11.025  1.00  0.00     0.166 HD
HETATM    7  C   UNL     1     -41.227 -52.505  12.062  1.00  0.00     0.126 A 
ENDROOT
BRANCH   4   8
HETATM    8  N   UNL     1     -44.766 -53.184  12.201  1.00  0.00    -0.272 NA
HETATM    9  H   UNL     1     -44.886 -53.354  11.210  1.00  0.00     0.129 HD
BRANCH   8  10
HETATM   10  C   UNL     1     -45.627 -52.131  12.741  1.00  0.00     0.093 C 
HETATM   11  C   UNL     1     -44.794 -51.167  13.614  1.00  0.00     0.054 C 
HETATM   12  C   UNL     1     -45.614 -51.098  14.904  1.00  0.00     0.123 C 
HETATM   13  C   UNL     1     -45.467 -52.379  15.719  1.00  0.00     0.034 C 
HETATM   14  O   UNL     1     -46.960 -51.247  14.408  1.00  0.00    -0.379 OA
HETATM   15  C   UNL     1     -46.260 -53.382  14.882  1.00  0.00     0.036 C 
HETATM   16  C   UNL     1     -46.749 -52.517  13.721  1.00  0.00     0.140 C 
ENDBRANCH   8  10
ENDBRANCH   4   8
BRANCH   1  17
HETATM   17  O   UNL     1     -39.332 -53.294  13.186  1.00  0.00    -0.289 OA
BRANCH  17  18
HETATM   18  C   UNL     1     -38.762 -52.096  13.686  1.00  0.00     0.505 C 
HETATM   19  F   UNL     1     -38.531 -52.280  15.009  1.00  0.00    -0.184 F 
HETATM   20  F   UNL     1     -37.555 -51.911  13.098  1.00  0.00    -0.184 F 
ENDBRANCH  17  18
ENDBRANCH   1  17
TORSDOF 4
ENDMDL
MODEL 4
REMARK VINA RESULT:      -5.5      3.958      6.886
REMARK  4 active torsions:
REMARK  status: ('A' for Active; 'I' for Inactive)
REMARK    1  A    between atoms: C_2  and  O_4 
REMARK    2  A    between atoms: O_4  and  C_5 
REMARK    3  A    between atoms: C_8  and  N_9 
REMARK    4  A    between atoms: N_9  and  C_10 
ROOT
HETATM    1  C   UNL     1     -39.575 -51.592  12.572  1.00  0.00     0.090 A 
HETATM    2  C   UNL     1     -39.892 -52.674  13.379  1.00  0.00     0.041 A 
HETATM    3  C   UNL     1     -41.189 -53.193  13.341  1.00  0.00     0.045 A 
HETATM    4  C   UNL     1     -42.156 -52.609  12.525  1.00  0.00     0.080 A 
HETATM    5  N   UNL     1     -41.875 -51.521  11.790  1.00  0.00    -0.354 N 
ATOM      6  HN  UNL     1     -42.593 -51.068  11.225  1.00  0.00     0.166 HD
HETATM    7  C   UNL     1     -40.604 -51.043  11.823  1.00  0.00     0.126 A 
ENDROOT
BRANCH   4   8
HETATM    8  N   UNL     1     -43.417 -53.208  12.465  1.00  0.00    -0.272 NA
HETATM    9  H   UNL     1     -43.968 -52.758  11.744  1.00  0.00     0.129 HD
BRANCH   8  10
HETATM   10  C   UNL     1     -44.138 -53.449  13.714  1.00  0.00     0.093 C 
HETATM   11  C   UNL     1     -45.559 -53.971  13.408  1.00  0.00     0.054 C 
HETATM   12  C   UNL     1     -46.439 -53.052  14.258  1.00  0.00     0.123 C 
HETATM   13  C   UNL     1     -46.537 -51.659  13.640  1.00  0.00     0.034 C 
HETATM   14  O   UNL     1     -45.585 -52.786  15.389  1.00  0.00    -0.379 OA
HETATM   15  C   UNL     1     -45.138 -51.099  13.896  1.00  0.00     0.036 C 
HETATM   16  C   UNL     1     -44.458 -52.254  14.631  1.00  0.00     0.140 C 
ENDBRANCH   8  10
ENDBRANCH   4   8
BRANCH   1  17
HETATM   17  O   UNL     1     -38.350 -51.007  12.450  1.00  0.00    -0.289 OA
BRANCH  17  18
HETATM   18  C   UNL     1     -38.332 -49.757  11.782  1.00  0.00     0.505 C 
HETATM   19  F   UNL     1     -38.270 -48.792  12.732  1.00  0.00    -0.184 F 
HETATM   20  F   UNL     1     -37.191 -49.669  11.057  1.00  0.00    -0.184 F 
ENDBRANCH  17  18
ENDBRANCH   1  17
TORSDOF 4
ENDMDL
MODEL 5
REMARK VINA RESULT:      -5.5      6.872      7.527
REMARK  4 active torsions:
REMARK  status: ('A' for Active; 'I' for Inactive)
REMARK    1  A    between atoms: C_2  and  O_4 
REMARK    2  A    between atoms: O_4  and  C_5 
REMARK    3  A    between atoms: C_8  and  N_9 
REMARK    4  A    between atoms: N_9  and  C_10 
ROOT
HETATM    1  C   UNL     1     -44.334 -47.305   9.250  1.00  0.00     0.090 A 
HETATM    2  C   UNL     1     -44.143 -47.744  10.551  1.00  0.00     0.041 A 
HETATM    3  C   UNL     1     -43.007 -47.325  11.250  1.00  0.00     0.045 A 
HETATM    4  C   UNL     1     -42.067 -46.501  10.634  1.00  0.00     0.080 A 
HETATM    5  N   UNL     1     -42.212 -46.125   9.353  1.00  0.00    -0.354 N 
ATOM      6  HN  UNL     1     -41.503 -45.556   8.888  1.00  0.00     0.166 HD
HETATM    7  C   UNL     1     -43.331 -46.524   8.696  1.00  0.00     0.126 A 
ENDROOT
BRANCH   4   8
HETATM    8  N   UNL     1     -40.988 -46.048  11.396  1.00  0.00    -0.272 NA
HETATM    9  H   UNL     1     -40.247 -46.739  11.372  1.00  0.00     0.129 HD
BRANCH   8  10
HETATM   10  C   UNL     1     -41.251 -45.492  12.723  1.00  0.00     0.093 C 
HETATM   11  C   UNL     1     -41.891 -44.093  12.590  1.00  0.00     0.054 C 
HETATM   12  C   UNL     1     -41.021 -43.242  13.518  1.00  0.00     0.123 C 
HETATM   13  C   UNL     1     -39.657 -42.964  12.891  1.00  0.00     0.034 C 
HETATM   14  O   UNL     1     -40.660 -44.193  14.540  1.00  0.00    -0.379 OA
HETATM   15  C   UNL     1     -38.983 -44.333  12.977  1.00  0.00     0.036 C 
HETATM   16  C   UNL     1     -40.061 -45.182  13.650  1.00  0.00     0.140 C 
ENDBRANCH   8  10
ENDBRANCH   4   8
BRANCH   1  17
HETATM   17  O   UNL     1     -45.408 -47.575   8.457  1.00  0.00    -0.289 OA
BRANCH  17  18
HETATM   18  C   UNL     1     -46.458 -48.300   9.074  1.00  0.00     0.505 C 
HETATM   19  F   UNL     1     -47.543 -47.487   9.111  1.00  0.00    -0.184 F 
HETATM   20  F   UNL     1     -46.783 -49.351   8.283  1.00  0.00    -0.184 F 
ENDBRANCH  17  18
ENDBRANCH   1  17
TORSDOF 4
ENDMDL
MODEL 6
REMARK VINA RESULT:      -5.4      3.094      3.544
REMARK  4 active torsions:
REMARK  status: ('A' for Active; 'I' for Inactive)
REMARK    1  A    between atoms: C_2  and  O_4 
REMARK    2  A    between atoms: O_4  and  C_5 
REMARK    3  A    between atoms: C_8  and  N_9 
REMARK    4  A    between atoms: N_9  and  C_10 
ROOT
HETATM    1  C   UNL     1     -44.515 -52.975  12.807  1.00  0.00     0.090 A 
HETATM    2  C   UNL     1     -44.911 -51.814  13.455  1.00  0.00     0.041 A 
HETATM    3  C   UNL     1     -44.091 -50.684  13.386  1.00  0.00     0.045 A 
HETATM    4  C   UNL     1     -42.879 -50.736  12.699  1.00  0.00     0.080 A 
HETATM    5  N   UNL     1     -42.457 -51.874  12.125  1.00  0.00    -0.354 N 
ATOM      6  HN  UNL     1     -41.551 -51.924  11.659  1.00  0.00     0.166 HD
HETATM    7  C   UNL     1     -43.276 -52.956  12.185  1.00  0.00     0.126 A 
ENDROOT
BRANCH   4   8
HETATM    8  N   UNL     1     -42.130 -49.561  12.595  1.00  0.00    -0.272 NA
HETATM    9  H   UNL     1     -41.661 -49.383  13.476  1.00  0.00     0.129 HD
BRANCH   8  10
HETATM   10  C   UNL     1     -42.756 -48.382  11.996  1.00  0.00     0.093 C 
HETATM   11  C   UNL     1     -42.274 -48.215  10.538  1.00  0.00     0.054 C 
HETATM   12  C   UNL     1     -41.835 -46.749  10.502  1.00  0.00     0.123 C 
HETATM   13  C   UNL     1     -40.512 -46.552  11.237  1.00  0.00     0.034 C 
HETATM   14  O   UNL     1     -42.754 -46.141  11.433  1.00  0.00    -0.379 OA
HETATM   15  C   UNL     1     -40.929 -46.732  12.696  1.00  0.00     0.036 C 
HETATM   16  C   UNL     1     -42.429 -46.992  12.573  1.00  0.00     0.140 C 
ENDBRANCH   8  10
ENDBRANCH   4   8
BRANCH   1  17
HETATM   17  O   UNL     1     -45.221 -54.137  12.731  1.00  0.00    -0.289 OA
BRANCH  17  18
HETATM   18  C   UNL     1     -45.331 -54.867  13.941  1.00  0.00     0.505 C 
HETATM   19  F   UNL     1     -45.998 -56.014  13.661  1.00  0.00    -0.184 F 
HETATM   20  F   UNL     1     -44.090 -55.224  14.349  1.00  0.00    -0.184 F 
ENDBRANCH  17  18
ENDBRANCH   1  17
TORSDOF 4
ENDMDL
MODEL 7
REMARK VINA RESULT:      -5.3      4.227      7.265
REMARK  4 active torsions:
REMARK  status: ('A' for Active; 'I' for Inactive)
REMARK    1  A    between atoms: C_2  and  O_4 
REMARK    2  A    between atoms: O_4  and  C_5 
REMARK    3  A    between atoms: C_8  and  N_9 
REMARK    4  A    between atoms: N_9  and  C_10 
ROOT
HETATM    1  C   UNL     1     -39.508 -49.521  12.347  1.00  0.00     0.090 A 
HETATM    2  C   UNL     1     -40.078 -49.545  13.611  1.00  0.00     0.041 A 
HETATM    3  C   UNL     1     -41.434 -49.859  13.739  1.00  0.00     0.045 A 
HETATM    4  C   UNL     1     -42.207 -50.113  12.607  1.00  0.00     0.080 A 
HETATM    5  N   UNL     1     -41.678 -50.027  11.376  1.00  0.00    -0.354 N 
ATOM      6  HN  UNL     1     -42.253 -50.172  10.545  1.00  0.00     0.166 HD
HETATM    7  C   UNL     1     -40.354 -49.742  11.271  1.00  0.00     0.126 A 
ENDROOT
BRANCH   4   8
HETATM    8  N   UNL     1     -43.538 -50.494  12.790  1.00  0.00    -0.272 NA
HETATM    9  H   UNL     1     -44.089 -49.681  13.040  1.00  0.00     0.129 HD
BRANCH   8  10
HETATM   10  C   UNL     1     -43.822 -51.684  13.593  1.00  0.00     0.093 C 
HETATM   11  C   UNL     1     -44.036 -52.903  12.668  1.00  0.00     0.054 C 
HETATM   12  C   UNL     1     -45.356 -53.480  13.183  1.00  0.00     0.123 C 
HETATM   13  C   UNL     1     -46.539 -52.618  12.752  1.00  0.00     0.034 C 
HETATM   14  O   UNL     1     -45.290 -53.165  14.589  1.00  0.00    -0.379 OA
HETATM   15  C   UNL     1     -46.363 -51.377  13.626  1.00  0.00     0.036 C 
HETATM   16  C   UNL     1     -45.112 -51.725  14.432  1.00  0.00     0.140 C 
ENDBRANCH   8  10
ENDBRANCH   4   8
BRANCH   1  17
HETATM   17  O   UNL     1     -38.197 -49.290  12.057  1.00  0.00    -0.289 OA
BRANCH  17  18
HETATM   18  C   UNL     1     -37.526 -50.340  11.380  1.00  0.00     0.505 C 
HETATM   19  F   UNL     1     -36.670 -49.769  10.497  1.00  0.00    -0.184 F 
HETATM   20  F   UNL     1     -36.770 -51.020  12.275  1.00  0.00    -0.184 F 
ENDBRANCH  17  18
ENDBRANCH   1  17
TORSDOF 4
ENDMDL
MODEL 8
REMARK VINA RESULT:      -5.3      1.703      2.221
REMARK  4 active torsions:
REMARK  status: ('A' for Active; 'I' for Inactive)
REMARK    1  A    between atoms: C_2  and  O_4 
REMARK    2  A    between atoms: O_4  and  C_5 
REMARK    3  A    between atoms: C_8  and  N_9 
REMARK    4  A    between atoms: N_9  and  C_10 
ROOT
HETATM    1  C   UNL     1     -44.653 -53.006  12.969  1.00  0.00     0.090 A 
HETATM    2  C   UNL     1     -44.564 -51.806  13.657  1.00  0.00     0.041 A 
HETATM    3  C   UNL     1     -43.438 -50.998  13.472  1.00  0.00     0.045 A 
HETATM    4  C   UNL     1     -42.407 -51.412  12.629  1.00  0.00     0.080 A 
HETATM    5  N   UNL     1     -42.456 -52.603  12.010  1.00  0.00    -0.354 N 
ATOM      6  HN  UNL     1     -41.683 -52.924  11.427  1.00  0.00     0.166 HD
HETATM    7  C   UNL     1     -43.566 -53.365  12.186  1.00  0.00     0.126 A 
ENDROOT
BRANCH   4   8
HETATM    8  N   UNL     1     -41.338 -50.539  12.419  1.00  0.00    -0.272 NA
HETATM    9  H   UNL     1     -41.622 -49.810  11.774  1.00  0.00     0.129 HD
BRANCH   8  10
HETATM   10  C   UNL     1     -40.015 -51.102  12.148  1.00  0.00     0.093 C 
HETATM   11  C   UNL     1     -39.351 -51.544  13.471  1.00  0.00     0.054 C 
HETATM   12  C   UNL     1     -37.973 -50.885  13.385  1.00  0.00     0.123 C 
HETATM   13  C   UNL     1     -38.066 -49.382  13.632  1.00  0.00     0.034 C 
HETATM   14  O   UNL     1     -37.720 -50.911  11.966  1.00  0.00    -0.379 OA
HETATM   15  C   UNL     1     -38.742 -48.891  12.353  1.00  0.00     0.036 C 
HETATM   16  C   UNL     1     -38.922 -50.188  11.565  1.00  0.00     0.140 C 
ENDBRANCH   8  10
ENDBRANCH   4   8
BRANCH   1  17
HETATM   17  O   UNL     1     -45.702 -53.875  12.994  1.00  0.00    -0.289 OA
BRANCH  17  18
HETATM   18  C   UNL     1     -45.740 -54.756  14.105  1.00  0.00     0.505 C 
HETATM   19  F   UNL     1     -45.920 -56.010  13.621  1.00  0.00    -0.184 F 
HETATM   20  F   UNL     1     -44.530 -54.740  14.714  1.00  0.00    -0.184 F 
ENDBRANCH  17  18
ENDBRANCH   1  17
TORSDOF 4
ENDMDL
MODEL 9
REMARK VINA RESULT:      -5.2      5.445      7.772
REMARK  4 active torsions:
REMARK  status: ('A' for Active; 'I' for Inactive)
REMARK    1  A    between atoms: C_2  and  O_4 
REMARK    2  A    between atoms: O_4  and  C_5 
REMARK    3  A    between atoms: C_8  and  N_9 
REMARK    4  A    between atoms: N_9  and  C_10 
ROOT
HETATM    1  C   UNL     1     -41.525 -46.109  10.514  1.00  0.00     0.090 A 
HETATM    2  C   UNL     1     -42.788 -46.681  10.523  1.00  0.00     0.041 A 
HETATM    3  C   UNL     1     -42.929 -48.011  10.930  1.00  0.00     0.045 A 
HETATM    4  C   UNL     1     -41.808 -48.757  11.291  1.00  0.00     0.080 A 
HETATM    5  N   UNL     1     -40.575 -48.231  11.222  1.00  0.00    -0.354 N 
ATOM      6  HN  UNL     1     -39.751 -48.789  11.446  1.00  0.00     0.166 HD
HETATM    7  C   UNL     1     -40.459 -46.931  10.845  1.00  0.00     0.126 A 
ENDROOT
BRANCH   4   8
HETATM    8  N   UNL     1     -42.006 -50.058  11.761  1.00  0.00    -0.272 NA
HETATM    9  H   UNL     1     -42.582 -50.029  12.595  1.00  0.00     0.129 HD
BRANCH   8  10
HETATM   10  C   UNL     1     -40.853 -50.953  11.854  1.00  0.00     0.093 C 
HETATM   11  C   UNL     1     -41.323 -52.423  11.798  1.00  0.00     0.054 C 
HETATM   12  C   UNL     1     -40.621 -53.040  13.010  1.00  0.00     0.123 C 
HETATM   13  C   UNL     1     -41.288 -52.606  14.312  1.00  0.00     0.034 C 
HETATM   14  O   UNL     1     -39.398 -52.278  13.065  1.00  0.00    -0.379 OA
HETATM   15  C   UNL     1     -40.872 -51.138  14.407  1.00  0.00     0.036 C 
HETATM   16  C   UNL     1     -40.022 -50.962  13.150  1.00  0.00     0.140 C 
ENDBRANCH   8  10
ENDBRANCH   4   8
BRANCH   1  17
HETATM   17  O   UNL     1     -41.227 -44.817  10.201  1.00  0.00    -0.289 OA
BRANCH  17  18
HETATM   18  C   UNL     1     -39.918 -44.391  10.540  1.00  0.00     0.505 C 
HETATM   19  F   UNL     1     -39.218 -44.276   9.384  1.00  0.00    -0.184 F 
HETATM   20  F   UNL     1     -39.990 -43.151  11.080  1.00  0.00    -0.184 F 
ENDBRANCH  17  18
ENDBRANCH   1  17
TORSDOF 4
ENDMDL
