MODEL 1
REMARK VINA RESULT:      -5.6      0.000      0.000
REMARK  6 active torsions:
REMARK  status: ('A' for Active; 'I' for Inactive)
REMARK    1  A    between atoms: S_2  and  C_4 
REMARK    2  A    between atoms: S_2  and  N_11 
REMARK    3  A    between atoms: C_4  and  C_5 
REMARK    4  A    between atoms: N_11  and  C_12 
REMARK    5  A    between atoms: C_12  and  C_13 
REMARK    6  A    between atoms: C_13  and  C_14 
ROOT
HETATM    1  N   UNL     1     -42.290 -50.735  11.902  1.00  0.00    -0.220 NA
HETATM    2  H   UNL     1     -42.652 -50.991  10.980  1.00  0.00     0.139 HD
ENDROOT
BRANCH   1   3
HETATM    3  S   UNL     1     -41.137 -49.495  11.859  1.00  0.00     0.209 S 
HETATM    4  O   UNL     1     -39.939 -50.082  11.305  1.00  0.00    -0.211 OA
HETATM    5  O   UNL     1     -41.146 -48.848  13.151  1.00  0.00    -0.211 OA
BRANCH   3   6
HETATM    6  C   UNL     1     -41.858 -48.395  10.645  1.00  0.00     0.162 C 
BRANCH   6   7
HETATM    7  C   UNL     1     -43.062 -47.584  11.159  1.00  0.00     0.005 C 
HETATM    8  C   UNL     1     -44.094 -47.415  10.028  1.00  0.00     0.032 C 
HETATM    9  C   UNL     1     -43.630 -46.407   8.976  1.00  0.00     0.168 C 
HETATM   10  O   UNL     1     -43.276 -45.157   9.562  1.00  0.00    -0.391 OA
HETATM   11  C   UNL     1     -42.256 -45.267  10.554  1.00  0.00     0.168 C 
HETATM   12  C   UNL     1     -42.728 -46.175  11.680  1.00  0.00     0.032 C 
ENDBRANCH   6   7
ENDBRANCH   3   6
ENDBRANCH   1   3
BRANCH   1  13
HETATM   13  C   UNL     1     -41.890 -51.958  12.667  1.00  0.00     0.110 C 
BRANCH  13  14
HETATM   14  C   UNL     1     -42.974 -53.032  12.671  1.00  0.00     0.072 C 
BRANCH  14  15
HETATM   15  C   UNL     1     -44.283 -52.461  13.150  1.00  0.00     0.010 A 
HETATM   16  C   UNL     1     -44.464 -52.126  14.490  1.00  0.00     0.025 A 
HETATM   17  C   UNL     1     -45.684 -51.591  14.890  1.00  0.00     0.003 A 
HETATM   18  C   UNL     1     -46.687 -51.405  13.948  1.00  0.00     0.017 A 
HETATM   19  C   UNL     1     -46.428 -51.766  12.637  1.00  0.00     0.088 A 
HETATM   20  N   UNL     1     -45.255 -52.290  12.220  1.00  0.00    -0.369 N 
ATOM     21  HN  UNL     1     -45.106 -52.546  11.244  1.00  0.00     0.165 HD
ENDBRANCH  14  15
ENDBRANCH  13  14
ENDBRANCH   1  13
TORSDOF 6
ENDMDL
MODEL 2
REMARK VINA RESULT:      -5.5      2.702      6.868
REMARK  6 active torsions:
REMARK  status: ('A' for Active; 'I' for Inactive)
REMARK    1  A    between atoms: S_2  and  C_4 
REMARK    2  A    between atoms: S_2  and  N_11 
REMARK    3  A    between atoms: C_4  and  C_5 
REMARK    4  A    between atoms: N_11  and  C_12 
REMARK    5  A    between atoms: C_12  and  C_13 
REMARK    6  A    between atoms: C_13  and  C_14 
ROOT
HETATM    1  N   UNL     1     -41.976 -50.439  11.817  1.00  0.00    -0.220 NA
HETATM    2  H   UNL     1     -42.553 -49.746  12.299  1.00  0.00     0.139 HD
ENDROOT
BRANCH   1   3
HETATM    3  S   UNL     1     -41.665 -51.825  12.740  1.00  0.00     0.209 S 
HETATM    4  O   UNL     1     -41.141 -51.355  14.002  1.00  0.00    -0.211 OA
HETATM    5  O   UNL     1     -40.934 -52.750  11.905  1.00  0.00    -0.211 OA
BRANCH   3   6
HETATM    6  C   UNL     1     -43.323 -52.448  12.997  1.00  0.00     0.162 C 
BRANCH   6   7
HETATM    7  C   UNL     1     -43.409 -53.978  13.156  1.00  0.00     0.005 C 
HETATM    8  C   UNL     1     -44.885 -54.409  13.240  1.00  0.00     0.032 C 
HETATM    9  C   UNL     1     -45.510 -54.049  14.589  1.00  0.00     0.168 C 
HETATM   10  O   UNL     1     -44.745 -54.560  15.678  1.00  0.00    -0.391 OA
HETATM   11  C   UNL     1     -43.392 -54.107  15.680  1.00  0.00     0.168 C 
HETATM   12  C   UNL     1     -42.700 -54.547  14.397  1.00  0.00     0.032 C 
ENDBRANCH   6   7
ENDBRANCH   3   6
ENDBRANCH   1   3
BRANCH   1  13
HETATM   13  C   UNL     1     -40.773 -49.790  11.207  1.00  0.00     0.110 C 
BRANCH  13  14
HETATM   14  C   UNL     1     -40.725 -48.285  11.455  1.00  0.00     0.072 C 
BRANCH  14  15
HETATM   15  C   UNL     1     -41.733 -47.575  10.591  1.00  0.00     0.010 A 
HETATM   16  C   UNL     1     -42.058 -46.241  10.829  1.00  0.00     0.025 A 
HETATM   17  C   UNL     1     -42.986 -45.617  10.003  1.00  0.00     0.003 A 
HETATM   18  C   UNL     1     -43.565 -46.336   8.965  1.00  0.00     0.017 A 
HETATM   19  C   UNL     1     -43.191 -47.658   8.797  1.00  0.00     0.088 A 
HETATM   20  N   UNL     1     -42.294 -48.291   9.585  1.00  0.00    -0.369 N 
ATOM     21  HN  UNL     1     -42.049 -49.268   9.430  1.00  0.00     0.165 HD
ENDBRANCH  14  15
ENDBRANCH  13  14
ENDBRANCH   1  13
TORSDOF 6
ENDMDL
MODEL 3
REMARK VINA RESULT:      -5.5      3.291      5.998
REMARK  6 active torsions:
REMARK  status: ('A' for Active; 'I' for Inactive)
REMARK    1  A    between atoms: S_2  and  C_4 
REMARK    2  A    between atoms: S_2  and  N_11 
REMARK    3  A    between atoms: C_4  and  C_5 
REMARK    4  A    between atoms: N_11  and  C_12 
REMARK    5  A    between atoms: C_12  and  C_13 
REMARK    6  A    between atoms: C_13  and  C_14 
ROOT
HETATM    1  N   UNL     1     -43.065 -52.157  12.202  1.00  0.00    -0.220 NA
HETATM    2  H   UNL     1     -43.535 -51.300  12.502  1.00  0.00     0.139 HD
ENDROOT
BRANCH   1   3
HETATM    3  S   UNL     1     -43.560 -53.537  13.052  1.00  0.00     0.209 S 
HETATM    4  O   UNL     1     -42.349 -54.243  13.406  1.00  0.00    -0.211 OA
HETATM    5  O   UNL     1     -44.615 -54.163  12.290  1.00  0.00    -0.211 OA
BRANCH   3   6
HETATM    6  C   UNL     1     -44.256 -52.803  14.528  1.00  0.00     0.162 C 
BRANCH   6   7
HETATM    7  C   UNL     1     -44.888 -51.416  14.310  1.00  0.00     0.005 C 
HETATM    8  C   UNL     1     -44.537 -50.493  15.492  1.00  0.00     0.032 C 
HETATM    9  C   UNL     1     -45.321 -50.857  16.754  1.00  0.00     0.168 C 
HETATM   10  O   UNL     1     -46.725 -50.895  16.511  1.00  0.00    -0.391 OA
HETATM   11  C   UNL     1     -47.094 -51.809  15.479  1.00  0.00     0.168 C 
HETATM   12  C   UNL     1     -46.421 -51.411  14.173  1.00  0.00     0.032 C 
ENDBRANCH   6   7
ENDBRANCH   3   6
ENDBRANCH   1   3
BRANCH   1  13
HETATM   13  C   UNL     1     -41.585 -51.947  12.126  1.00  0.00     0.110 C 
BRANCH  13  14
HETATM   14  C   UNL     1     -41.126 -50.709  12.891  1.00  0.00     0.072 C 
BRANCH  14  15
HETATM   15  C   UNL     1     -41.802 -49.475  12.356  1.00  0.00     0.010 A 
HETATM   16  C   UNL     1     -42.415 -48.570  13.220  1.00  0.00     0.025 A 
HETATM   17  C   UNL     1     -43.020 -47.436  12.688  1.00  0.00     0.003 A 
HETATM   18  C   UNL     1     -42.998 -47.235  11.314  1.00  0.00     0.017 A 
HETATM   19  C   UNL     1     -42.370 -48.183  10.525  1.00  0.00     0.088 A 
HETATM   20  N   UNL     1     -41.777 -49.294  11.012  1.00  0.00    -0.369 N 
ATOM     21  HN  UNL     1     -41.328 -49.970  10.395  1.00  0.00     0.165 HD
ENDBRANCH  14  15
ENDBRANCH  13  14
ENDBRANCH   1  13
TORSDOF 6
ENDMDL
MODEL 4
REMARK VINA RESULT:      -5.5      3.593      5.445
REMARK  6 active torsions:
REMARK  status: ('A' for Active; 'I' for Inactive)
REMARK    1  A    between atoms: S_2  and  C_4 
REMARK    2  A    between atoms: S_2  and  N_11 
REMARK    3  A    between atoms: C_4  and  C_5 
REMARK    4  A    between atoms: N_11  and  C_12 
REMARK    5  A    between atoms: C_12  and  C_13 
REMARK    6  A    between atoms: C_13  and  C_14 
ROOT
HETATM    1  N   UNL     1     -39.200 -51.168  11.722  1.00  0.00    -0.220 NA
HETATM    2  H   UNL     1     -39.239 -52.012  11.146  1.00  0.00     0.139 HD
ENDROOT
BRANCH   1   3
HETATM    3  S   UNL     1     -37.623 -50.662  12.081  1.00  0.00     0.209 S 
HETATM    4  O   UNL     1     -37.284 -49.675  11.081  1.00  0.00    -0.211 OA
HETATM    5  O   UNL     1     -36.823 -51.846  12.290  1.00  0.00    -0.211 OA
BRANCH   3   6
HETATM    6  C   UNL     1     -37.874 -49.835  13.648  1.00  0.00     0.162 C 
BRANCH   6   7
HETATM    7  C   UNL     1     -37.901 -48.298  13.559  1.00  0.00     0.005 C 
HETATM    8  C   UNL     1     -37.101 -47.695  14.728  1.00  0.00     0.032 C 
HETATM    9  C   UNL     1     -37.851 -47.816  16.056  1.00  0.00     0.168 C 
HETATM   10  O   UNL     1     -39.163 -47.265  15.973  1.00  0.00    -0.391 OA
HETATM   11  C   UNL     1     -39.963 -47.865  14.954  1.00  0.00     0.168 C 
HETATM   12  C   UNL     1     -39.304 -47.666  13.597  1.00  0.00     0.032 C 
ENDBRANCH   6   7
ENDBRANCH   3   6
ENDBRANCH   1   3
BRANCH   1  13
HETATM   13  C   UNL     1     -40.119 -51.290  12.898  1.00  0.00     0.110 C 
BRANCH  13  14
HETATM   14  C   UNL     1     -41.591 -51.190  12.508  1.00  0.00     0.072 C 
BRANCH  14  15
HETATM   15  C   UNL     1     -41.922 -49.795  12.048  1.00  0.00     0.010 A 
HETATM   16  C   UNL     1     -42.775 -48.985  12.795  1.00  0.00     0.025 A 
HETATM   17  C   UNL     1     -43.049 -47.699  12.342  1.00  0.00     0.003 A 
HETATM   18  C   UNL     1     -42.467 -47.255  11.161  1.00  0.00     0.017 A 
HETATM   19  C   UNL     1     -41.634 -48.122  10.477  1.00  0.00     0.088 A 
HETATM   20  N   UNL     1     -41.352 -49.377  10.891  1.00  0.00    -0.369 N 
ATOM     21  HN  UNL     1     -40.734 -49.986  10.354  1.00  0.00     0.165 HD
ENDBRANCH  14  15
ENDBRANCH  13  14
ENDBRANCH   1  13
TORSDOF 6
ENDMDL
MODEL 5
REMARK VINA RESULT:      -5.5      1.919      2.318
REMARK  6 active torsions:
REMARK  status: ('A' for Active; 'I' for Inactive)
REMARK    1  A    between atoms: S_2  and  C_4 
REMARK    2  A    between atoms: S_2  and  N_11 
REMARK    3  A    between atoms: C_4  and  C_5 
REMARK    4  A    between atoms: N_11  and  C_12 
REMARK    5  A    between atoms: C_12  and  C_13 
REMARK    6  A    between atoms: C_13  and  C_14 
ROOT
HETATM    1  N   UNL     1     -40.280 -52.481  12.131  1.00  0.00    -0.220 NA
HETATM    2  H   UNL     1     -39.771 -52.987  11.402  1.00  0.00     0.139 HD
ENDROOT
BRANCH   1   3
HETATM    3  S   UNL     1     -39.570 -51.003  12.556  1.00  0.00     0.209 S 
HETATM    4  O   UNL     1     -38.189 -51.089  12.136  1.00  0.00    -0.211 OA
HETATM    5  O   UNL     1     -39.937 -50.722  13.924  1.00  0.00    -0.211 OA
BRANCH   3   6
HETATM    6  C   UNL     1     -40.438 -49.877  11.469  1.00  0.00     0.162 C 
BRANCH   6   7
HETATM    7  C   UNL     1     -41.239 -48.782  12.198  1.00  0.00     0.005 C 
HETATM    8  C   UNL     1     -42.536 -48.484  11.423  1.00  0.00     0.032 C 
HETATM    9  C   UNL     1     -42.267 -47.693  10.141  1.00  0.00     0.168 C 
HETATM   10  O   UNL     1     -41.520 -46.507  10.401  1.00  0.00    -0.391 OA
HETATM   11  C   UNL     1     -40.269 -46.756  11.040  1.00  0.00     0.168 C 
HETATM   12  C   UNL     1     -40.503 -47.443  12.378  1.00  0.00     0.032 C 
ENDBRANCH   6   7
ENDBRANCH   3   6
ENDBRANCH   1   3
BRANCH   1  13
HETATM   13  C   UNL     1     -40.604 -53.391  13.274  1.00  0.00     0.110 C 
BRANCH  13  14
HETATM   14  C   UNL     1     -41.928 -54.127  13.086  1.00  0.00     0.072 C 
BRANCH  14  15
HETATM   15  C   UNL     1     -43.081 -53.160  13.132  1.00  0.00     0.010 A 
HETATM   16  C   UNL     1     -44.320 -53.507  12.599  1.00  0.00     0.025 A 
HETATM   17  C   UNL     1     -45.364 -52.590  12.670  1.00  0.00     0.003 A 
HETATM   18  C   UNL     1     -45.145 -51.356  13.268  1.00  0.00     0.017 A 
HETATM   19  C   UNL     1     -43.884 -51.087  13.771  1.00  0.00     0.088 A 
HETATM   20  N   UNL     1     -42.852 -51.956  13.714  1.00  0.00    -0.369 N 
ATOM     21  HN  UNL     1     -41.936 -51.717  14.094  1.00  0.00     0.165 HD
ENDBRANCH  14  15
ENDBRANCH  13  14
ENDBRANCH   1  13
TORSDOF 6
ENDMDL
MODEL 6
REMARK VINA RESULT:      -5.5      4.221      6.743
REMARK  6 active torsions:
REMARK  status: ('A' for Active; 'I' for Inactive)
REMARK    1  A    between atoms: S_2  and  C_4 
REMARK    2  A    between atoms: S_2  and  N_11 
REMARK    3  A    between atoms: C_4  and  C_5 
REMARK    4  A    between atoms: N_11  and  C_12 
REMARK    5  A    between atoms: C_12  and  C_13 
REMARK    6  A    between atoms: C_13  and  C_14 
ROOT
HETATM    1  N   UNL     1     -43.352 -52.509  12.185  1.00  0.00    -0.220 NA
HETATM    2  H   UNL     1     -43.815 -51.629  12.424  1.00  0.00     0.139 HD
ENDROOT
BRANCH   1   3
HETATM    3  S   UNL     1     -43.774 -53.797  13.201  1.00  0.00     0.209 S 
HETATM    4  O   UNL     1     -42.534 -54.448  13.556  1.00  0.00    -0.211 OA
HETATM    5  O   UNL     1     -44.860 -54.511  12.570  1.00  0.00    -0.211 OA
BRANCH   3   6
HETATM    6  C   UNL     1     -44.398 -52.919  14.631  1.00  0.00     0.162 C 
BRANCH   6   7
HETATM    7  C   UNL     1     -44.975 -51.526  14.318  1.00  0.00     0.005 C 
HETATM    8  C   UNL     1     -44.495 -50.515  15.377  1.00  0.00     0.032 C 
HETATM    9  C   UNL     1     -45.203 -50.712  16.718  1.00  0.00     0.168 C 
HETATM   10  O   UNL     1     -46.622 -50.694  16.573  1.00  0.00    -0.391 OA
HETATM   11  C   UNL     1     -47.109 -51.680  15.664  1.00  0.00     0.168 C 
HETATM   12  C   UNL     1     -46.512 -51.448  14.283  1.00  0.00     0.032 C 
ENDBRANCH   6   7
ENDBRANCH   3   6
ENDBRANCH   1   3
BRANCH   1  13
HETATM   13  C   UNL     1     -41.882 -52.295  11.995  1.00  0.00     0.110 C 
BRANCH  13  14
HETATM   14  C   UNL     1     -41.470 -50.838  12.178  1.00  0.00     0.072 C 
BRANCH  14  15
HETATM   15  C   UNL     1     -39.970 -50.715  12.230  1.00  0.00     0.010 A 
HETATM   16  C   UNL     1     -39.248 -51.279  13.280  1.00  0.00     0.025 A 
HETATM   17  C   UNL     1     -37.862 -51.153  13.287  1.00  0.00     0.003 A 
HETATM   18  C   UNL     1     -37.236 -50.470  12.252  1.00  0.00     0.017 A 
HETATM   19  C   UNL     1     -38.026 -49.937  11.249  1.00  0.00     0.088 A 
HETATM   20  N   UNL     1     -39.372 -50.041  11.216  1.00  0.00    -0.369 N 
ATOM     21  HN  UNL     1     -39.918 -49.630  10.459  1.00  0.00     0.165 HD
ENDBRANCH  14  15
ENDBRANCH  13  14
ENDBRANCH   1  13
TORSDOF 6
ENDMDL
MODEL 7
REMARK VINA RESULT:      -5.4      3.258      6.261
REMARK  6 active torsions:
REMARK  status: ('A' for Active; 'I' for Inactive)
REMARK    1  A    between atoms: S_2  and  C_4 
REMARK    2  A    between atoms: S_2  and  N_11 
REMARK    3  A    between atoms: C_4  and  C_5 
REMARK    4  A    between atoms: N_11  and  C_12 
REMARK    5  A    between atoms: C_12  and  C_13 
REMARK    6  A    between atoms: C_13  and  C_14 
ROOT
HETATM    1  N   UNL     1     -40.000 -52.302  12.172  1.00  0.00    -0.220 NA
HETATM    2  H   UNL     1     -39.773 -52.863  11.348  1.00  0.00     0.139 HD
ENDROOT
BRANCH   1   3
HETATM    3  S   UNL     1     -40.321 -53.226  13.556  1.00  0.00     0.209 S 
HETATM    4  O   UNL     1     -40.368 -52.291  14.657  1.00  0.00    -0.211 OA
HETATM    5  O   UNL     1     -39.417 -54.353  13.546  1.00  0.00    -0.211 OA
BRANCH   3   6
HETATM    6  C   UNL     1     -41.981 -53.799  13.211  1.00  0.00     0.162 C 
BRANCH   6   7
HETATM    7  C   UNL     1     -43.051 -53.268  14.183  1.00  0.00     0.005 C 
HETATM    8  C   UNL     1     -43.879 -54.443  14.737  1.00  0.00     0.032 C 
HETATM    9  C   UNL     1     -44.843 -55.006  13.691  1.00  0.00     0.168 C 
HETATM   10  O   UNL     1     -45.673 -53.987  13.137  1.00  0.00    -0.391 OA
HETATM   11  C   UNL     1     -44.935 -52.924  12.535  1.00  0.00     0.168 C 
HETATM   12  C   UNL     1     -44.044 -52.262  13.577  1.00  0.00     0.032 C 
ENDBRANCH   6   7
ENDBRANCH   3   6
ENDBRANCH   1   3
BRANCH   1  13
HETATM   13  C   UNL     1     -41.029 -51.268  11.837  1.00  0.00     0.110 C 
BRANCH  13  14
HETATM   14  C   UNL     1     -40.412 -49.924  11.460  1.00  0.00     0.072 C 
BRANCH  14  15
HETATM   15  C   UNL     1     -41.488 -48.911  11.170  1.00  0.00     0.010 A 
HETATM   16  C   UNL     1     -42.268 -48.389  12.200  1.00  0.00     0.025 A 
HETATM   17  C   UNL     1     -43.245 -47.448  11.893  1.00  0.00     0.003 A 
HETATM   18  C   UNL     1     -43.418 -47.053  10.572  1.00  0.00     0.017 A 
HETATM   19  C   UNL     1     -42.604 -47.622   9.608  1.00  0.00     0.088 A 
HETATM   20  N   UNL     1     -41.650 -48.539   9.876  1.00  0.00    -0.369 N 
ATOM     21  HN  UNL     1     -41.074 -48.937   9.134  1.00  0.00     0.165 HD
ENDBRANCH  14  15
ENDBRANCH  13  14
ENDBRANCH   1  13
TORSDOF 6
ENDMDL
MODEL 8
REMARK VINA RESULT:      -5.4      4.639      6.431
REMARK  6 active torsions:
REMARK  status: ('A' for Active; 'I' for Inactive)
REMARK    1  A    between atoms: S_2  and  C_4 
REMARK    2  A    between atoms: S_2  and  N_11 
REMARK    3  A    between atoms: C_4  and  C_5 
REMARK    4  A    between atoms: N_11  and  C_12 
REMARK    5  A    between atoms: C_12  and  C_13 
REMARK    6  A    between atoms: C_13  and  C_14 
ROOT
HETATM    1  N   UNL     1     -43.733 -55.509  14.645  1.00  0.00    -0.220 NA
HETATM    2  H   UNL     1     -43.114 -55.984  13.984  1.00  0.00     0.139 HD
ENDROOT
BRANCH   1   3
HETATM    3  S   UNL     1     -45.120 -54.855  13.926  1.00  0.00     0.209 S 
HETATM    4  O   UNL     1     -46.122 -55.896  13.971  1.00  0.00    -0.211 OA
HETATM    5  O   UNL     1     -44.717 -54.235  12.686  1.00  0.00    -0.211 OA
BRANCH   3   6
HETATM    6  C   UNL     1     -45.554 -53.582  15.107  1.00  0.00     0.162 C 
BRANCH   6   7
HETATM    7  C   UNL     1     -45.786 -52.192  14.486  1.00  0.00     0.005 C 
HETATM    8  C   UNL     1     -44.494 -51.360  14.579  1.00  0.00     0.032 C 
HETATM    9  C   UNL     1     -44.223 -50.881  16.006  1.00  0.00     0.168 C 
HETATM   10  O   UNL     1     -45.343 -50.185  16.550  1.00  0.00    -0.391 OA
HETATM   11  C   UNL     1     -46.540 -50.962  16.561  1.00  0.00     0.168 C 
HETATM   12  C   UNL     1     -46.906 -51.363  15.139  1.00  0.00     0.032 C 
ENDBRANCH   6   7
ENDBRANCH   3   6
ENDBRANCH   1   3
BRANCH   1  13
HETATM   13  C   UNL     1     -42.955 -54.569  15.512  1.00  0.00     0.110 C 
BRANCH  13  14
HETATM   14  C   UNL     1     -41.488 -54.469  15.105  1.00  0.00     0.072 C 
BRANCH  14  15
HETATM   15  C   UNL     1     -41.275 -53.306  14.172  1.00  0.00     0.010 A 
HETATM   16  C   UNL     1     -40.490 -52.221  14.557  1.00  0.00     0.025 A 
HETATM   17  C   UNL     1     -40.310 -51.171  13.663  1.00  0.00     0.003 A 
HETATM   18  C   UNL     1     -40.915 -51.229  12.415  1.00  0.00     0.017 A 
HETATM   19  C   UNL     1     -41.681 -52.340  12.111  1.00  0.00     0.088 A 
HETATM   20  N   UNL     1     -41.877 -53.374  12.958  1.00  0.00    -0.369 N 
ATOM     21  HN  UNL     1     -42.453 -54.173  12.696  1.00  0.00     0.165 HD
ENDBRANCH  14  15
ENDBRANCH  13  14
ENDBRANCH   1  13
TORSDOF 6
ENDMDL
MODEL 9
REMARK VINA RESULT:      -5.4      3.212      6.766
REMARK  6 active torsions:
REMARK  status: ('A' for Active; 'I' for Inactive)
REMARK    1  A    between atoms: S_2  and  C_4 
REMARK    2  A    between atoms: S_2  and  N_11 
REMARK    3  A    between atoms: C_4  and  C_5 
REMARK    4  A    between atoms: N_11  and  C_12 
REMARK    5  A    between atoms: C_12  and  C_13 
REMARK    6  A    between atoms: C_13  and  C_14 
ROOT
HETATM    1  N   UNL     1     -40.056 -51.377  13.548  1.00  0.00    -0.220 NA
HETATM    2  H   UNL     1     -40.306 -51.197  14.522  1.00  0.00     0.139 HD
ENDROOT
BRANCH   1   3
HETATM    3  S   UNL     1     -40.704 -52.818  12.935  1.00  0.00     0.209 S 
HETATM    4  O   UNL     1     -39.756 -53.856  13.271  1.00  0.00    -0.211 OA
HETATM    5  O   UNL     1     -41.112 -52.567  11.573  1.00  0.00    -0.211 OA
BRANCH   3   6
HETATM    6  C   UNL     1     -42.158 -53.007  13.961  1.00  0.00     0.162 C 
BRANCH   6   7
HETATM    7  C   UNL     1     -42.985 -54.271  13.663  1.00  0.00     0.005 C 
HETATM    8  C   UNL     1     -44.151 -53.919  12.720  1.00  0.00     0.032 C 
HETATM    9  C   UNL     1     -45.254 -53.142  13.439  1.00  0.00     0.168 C 
HETATM   10  O   UNL     1     -45.706 -53.825  14.606  1.00  0.00    -0.391 OA
HETATM   11  C   UNL     1     -44.663 -54.088  15.544  1.00  0.00     0.168 C 
HETATM   12  C   UNL     1     -43.595 -54.959  14.897  1.00  0.00     0.032 C 
ENDBRANCH   6   7
ENDBRANCH   3   6
ENDBRANCH   1   3
BRANCH   1  13
HETATM   13  C   UNL     1     -38.584 -51.196  13.341  1.00  0.00     0.110 C 
BRANCH  13  14
HETATM   14  C   UNL     1     -38.255 -50.525  12.011  1.00  0.00     0.072 C 
BRANCH  14  15
HETATM   15  C   UNL     1     -39.278 -49.470  11.683  1.00  0.00     0.010 A 
HETATM   16  C   UNL     1     -39.183 -48.193  12.233  1.00  0.00     0.025 A 
HETATM   17  C   UNL     1     -40.142 -47.243  11.897  1.00  0.00     0.003 A 
HETATM   18  C   UNL     1     -41.167 -47.590  11.026  1.00  0.00     0.017 A 
HETATM   19  C   UNL     1     -41.192 -48.880  10.525  1.00  0.00     0.088 A 
HETATM   20  N   UNL     1     -40.276 -49.824  10.835  1.00  0.00    -0.369 N 
ATOM     21  HN  UNL     1     -40.333 -50.765  10.447  1.00  0.00     0.165 HD
ENDBRANCH  14  15
ENDBRANCH  13  14
ENDBRANCH   1  13
TORSDOF 6
ENDMDL
