MODEL 1
REMARK VINA RESULT:      -6.1      0.000      0.000
REMARK  5 active torsions:
REMARK  status: ('A' for Active; 'I' for Inactive)
REMARK    1  A    between atoms: N_2  and  C_4 
REMARK    2  A    between atoms: C_7  and  N_8 
REMARK       I    between atoms: N_8  and  C_9 
REMARK       I    between atoms: C_9  and  N_11 
REMARK    3  A    between atoms: N_11  and  C_12 
REMARK    4  A    between atoms: C_14  and  C_15 
REMARK    5  A    between atoms: C_15  and  O_16 
ROOT
HETATM    1  N   UNL     1     -41.902 -49.732  11.374  1.00  0.00    -0.308 N 
HETATM    2  C   UNL     1     -42.147 -50.225  12.642  1.00  0.00     0.321 C 
HETATM    3  O   UNL     1     -42.053 -49.609  13.697  1.00  0.00    -0.247 OA
HETATM    4  N   UNL     1     -42.534 -51.546  12.619  1.00  0.00    -0.335 N 
HETATM    5  H   UNL     1     -42.132 -50.335  10.601  1.00  0.00     0.170 HD
HETATM    6  H   UNL     1     -42.544 -52.046  11.745  1.00  0.00     0.164 HD
ENDROOT
BRANCH   1   7
HETATM    7  C   UNL     1     -41.446 -48.427  11.060  1.00  0.00     0.051 A 
HETATM    8  C   UNL     1     -40.262 -47.893  11.536  1.00  0.00     0.034 A 
HETATM    9  C   UNL     1     -39.884 -46.602  11.169  1.00  0.00     0.044 A 
HETATM   10  C   UNL     1     -40.690 -45.839  10.327  1.00  0.00     0.081 A 
HETATM   11  N   UNL     1     -41.858 -46.335   9.857  1.00  0.00    -0.354 N 
HETATM   12  C   UNL     1     -42.198 -47.606  10.218  1.00  0.00     0.119 A 
ATOM     13  HN  UNL     1     -42.462 -45.778   9.254  1.00  0.00     0.166 HD
BRANCH  10  14
HETATM   14  N   UNL     1     -40.231 -44.557   9.961  1.00  0.00    -0.278 NA
HETATM   15  C   UNL     1     -38.933 -44.550   9.295  1.00  0.00     0.118 C 
HETATM   16  C   UNL     1     -40.376 -43.618  11.073  1.00  0.00     0.118 C 
ENDBRANCH  10  14
ENDBRANCH   1   7
BRANCH   4  17
HETATM   17  C   UNL     1     -42.696 -52.290  13.848  1.00  0.00     0.109 C 
HETATM   18  C   UNL     1     -44.162 -52.564  14.220  1.00  0.00     0.040 C 
HETATM   19  C   UNL     1     -44.266 -54.067  14.549  1.00  0.00     0.034 C 
HETATM   20  C   UNL     1     -42.987 -54.622  13.991  1.00  0.00    -0.022 C 
HETATM   21  C   UNL     1     -42.134 -53.658  13.632  1.00  0.00    -0.005 C 
BRANCH  19  22
HETATM   22  C   UNL     1     -45.527 -54.701  13.958  1.00  0.00     0.172 C 
BRANCH  22  23
HETATM   23  O   UNL     1     -45.943 -54.016  12.779  1.00  0.00    -0.400 OA
HETATM   24  H   UNL     1     -46.905 -54.139  12.697  1.00  0.00     0.209 HD
ENDBRANCH  22  23
ENDBRANCH  19  22
ENDBRANCH   4  17
TORSDOF 5
ENDMDL
MODEL 2
REMARK VINA RESULT:      -5.9      1.076      1.261
REMARK  5 active torsions:
REMARK  status: ('A' for Active; 'I' for Inactive)
REMARK    1  A    between atoms: N_2  and  C_4 
REMARK    2  A    between atoms: C_7  and  N_8 
REMARK       I    between atoms: N_8  and  C_9 
REMARK       I    between atoms: C_9  and  N_11 
REMARK    3  A    between atoms: N_11  and  C_12 
REMARK    4  A    between atoms: C_14  and  C_15 
REMARK    5  A    between atoms: C_15  and  O_16 
ROOT
HETATM    1  N   UNL     1     -42.314 -49.258  11.388  1.00  0.00    -0.308 N 
HETATM    2  C   UNL     1     -42.431 -49.919  12.596  1.00  0.00     0.321 C 
HETATM    3  O   UNL     1     -42.429 -49.410  13.711  1.00  0.00    -0.247 OA
HETATM    4  N   UNL     1     -42.560 -51.280  12.433  1.00  0.00    -0.335 N 
HETATM    5  H   UNL     1     -42.443 -49.810  10.555  1.00  0.00     0.170 HD
HETATM    6  H   UNL     1     -42.496 -51.678  11.511  1.00  0.00     0.164 HD
ENDROOT
BRANCH   1   7
HETATM    7  C   UNL     1     -42.121 -47.864  11.215  1.00  0.00     0.051 A 
HETATM    8  C   UNL     1     -40.879 -47.274  11.067  1.00  0.00     0.034 A 
HETATM    9  C   UNL     1     -40.780 -45.895  10.891  1.00  0.00     0.044 A 
HETATM   10  C   UNL     1     -41.923 -45.100  10.866  1.00  0.00     0.081 A 
HETATM   11  N   UNL     1     -43.150 -45.651  11.018  1.00  0.00    -0.354 N 
HETATM   12  C   UNL     1     -43.220 -47.005  11.172  1.00  0.00     0.119 A 
ATOM     13  HN  UNL     1     -43.991 -45.076  11.017  1.00  0.00     0.166 HD
BRANCH  10  14
HETATM   14  N   UNL     1     -41.758 -43.716  10.643  1.00  0.00    -0.278 NA
HETATM   15  C   UNL     1     -40.504 -43.172  11.151  1.00  0.00     0.118 C 
HETATM   16  C   UNL     1     -42.966 -42.984  11.022  1.00  0.00     0.118 C 
ENDBRANCH  10  14
ENDBRANCH   1   7
BRANCH   4  17
HETATM   17  C   UNL     1     -42.548 -52.166  13.575  1.00  0.00     0.109 C 
HETATM   18  C   UNL     1     -43.949 -52.558  14.072  1.00  0.00     0.040 C 
HETATM   19  C   UNL     1     -43.955 -54.092  14.230  1.00  0.00     0.034 C 
HETATM   20  C   UNL     1     -42.728 -54.511  13.472  1.00  0.00    -0.022 C 
HETATM   21  C   UNL     1     -41.962 -53.469  13.138  1.00  0.00    -0.005 C 
BRANCH  19  22
HETATM   22  C   UNL     1     -45.250 -54.720  13.712  1.00  0.00     0.172 C 
BRANCH  22  23
HETATM   23  O   UNL     1     -45.830 -53.926  12.680  1.00  0.00    -0.400 OA
HETATM   24  H   UNL     1     -46.732 -53.695  12.965  1.00  0.00     0.209 HD
ENDBRANCH  22  23
ENDBRANCH  19  22
ENDBRANCH   4  17
TORSDOF 5
ENDMDL
MODEL 3
REMARK VINA RESULT:      -5.2      3.016      4.324
REMARK  5 active torsions:
REMARK  status: ('A' for Active; 'I' for Inactive)
REMARK    1  A    between atoms: N_2  and  C_4 
REMARK    2  A    between atoms: C_7  and  N_8 
REMARK       I    between atoms: N_8  and  C_9 
REMARK       I    between atoms: C_9  and  N_11 
REMARK    3  A    between atoms: N_11  and  C_12 
REMARK    4  A    between atoms: C_14  and  C_15 
REMARK    5  A    between atoms: C_15  and  O_16 
ROOT
HETATM    1  N   UNL     1     -41.061 -50.593  13.154  1.00  0.00    -0.308 N 
HETATM    2  C   UNL     1     -40.969 -51.964  13.008  1.00  0.00     0.321 C 
HETATM    3  O   UNL     1     -41.282 -52.616  12.019  1.00  0.00    -0.247 OA
HETATM    4  N   UNL     1     -40.462 -52.573  14.133  1.00  0.00    -0.335 N 
HETATM    5  H   UNL     1     -40.660 -50.199  13.990  1.00  0.00     0.170 HD
HETATM    6  H   UNL     1     -40.270 -52.022  14.953  1.00  0.00     0.164 HD
ENDROOT
BRANCH   1   7
HETATM    7  C   UNL     1     -41.584 -49.685  12.199  1.00  0.00     0.051 A 
HETATM    8  C   UNL     1     -42.771 -48.996  12.366  1.00  0.00     0.034 A 
HETATM    9  C   UNL     1     -43.208 -48.113  11.379  1.00  0.00     0.044 A 
HETATM   10  C   UNL     1     -42.460 -47.919  10.220  1.00  0.00     0.081 A 
HETATM   11  N   UNL     1     -41.300 -48.589  10.029  1.00  0.00    -0.354 N 
HETATM   12  C   UNL     1     -40.887 -49.435  11.016  1.00  0.00     0.119 A 
ATOM     13  HN  UNL     1     -40.755 -48.465   9.177  1.00  0.00     0.166 HD
BRANCH  10  14
HETATM   14  N   UNL     1     -42.936 -46.982   9.279  1.00  0.00    -0.278 NA
HETATM   15  C   UNL     1     -43.209 -45.660   9.833  1.00  0.00     0.118 C 
HETATM   16  C   UNL     1     -44.006 -47.561   8.468  1.00  0.00     0.118 C 
ENDBRANCH  10  14
ENDBRANCH   1   7
BRANCH   4  17
HETATM   17  C   UNL     1     -40.422 -54.015  14.240  1.00  0.00     0.109 C 
HETATM   18  C   UNL     1     -39.016 -54.580  14.502  1.00  0.00     0.040 C 
HETATM   19  C   UNL     1     -39.144 -55.565  15.682  1.00  0.00     0.034 C 
HETATM   20  C   UNL     1     -40.490 -55.227  16.257  1.00  0.00    -0.022 C 
HETATM   21  C   UNL     1     -41.183 -54.405  15.464  1.00  0.00    -0.005 C 
BRANCH  19  22
HETATM   22  C   UNL     1     -37.991 -55.425  16.677  1.00  0.00     0.172 C 
BRANCH  22  23
HETATM   23  O   UNL     1     -38.287 -54.448  17.673  1.00  0.00    -0.400 OA
HETATM   24  H   UNL     1     -39.061 -54.765  18.169  1.00  0.00     0.209 HD
ENDBRANCH  22  23
ENDBRANCH  19  22
ENDBRANCH   4  17
TORSDOF 5
ENDMDL
MODEL 4
REMARK VINA RESULT:      -5.2      4.385      6.286
REMARK  5 active torsions:
REMARK  status: ('A' for Active; 'I' for Inactive)
REMARK    1  A    between atoms: N_2  and  C_4 
REMARK    2  A    between atoms: C_7  and  N_8 
REMARK       I    between atoms: N_8  and  C_9 
REMARK       I    between atoms: C_9  and  N_11 
REMARK    3  A    between atoms: N_11  and  C_12 
REMARK    4  A    between atoms: C_14  and  C_15 
REMARK    5  A    between atoms: C_15  and  O_16 
ROOT
HETATM    1  N   UNL     1     -39.541 -48.019  12.592  1.00  0.00    -0.308 N 
HETATM    2  C   UNL     1     -39.693 -48.230  13.949  1.00  0.00     0.321 C 
HETATM    3  O   UNL     1     -40.750 -48.274  14.568  1.00  0.00    -0.247 OA
HETATM    4  N   UNL     1     -38.485 -48.402  14.586  1.00  0.00    -0.335 N 
HETATM    5  H   UNL     1     -38.611 -48.121  12.219  1.00  0.00     0.170 HD
HETATM    6  H   UNL     1     -37.630 -48.300  14.065  1.00  0.00     0.164 HD
ENDROOT
BRANCH   1   7
HETATM    7  C   UNL     1     -40.583 -47.763  11.665  1.00  0.00     0.051 A 
HETATM    8  C   UNL     1     -40.871 -46.508  11.162  1.00  0.00     0.034 A 
HETATM    9  C   UNL     1     -41.909 -46.346  10.245  1.00  0.00     0.044 A 
HETATM   10  C   UNL     1     -42.665 -47.440   9.831  1.00  0.00     0.081 A 
HETATM   11  N   UNL     1     -42.410 -48.677  10.316  1.00  0.00    -0.354 N 
HETATM   12  C   UNL     1     -41.379 -48.811  11.199  1.00  0.00     0.119 A 
ATOM     13  HN  UNL     1     -42.968 -49.481  10.031  1.00  0.00     0.166 HD
BRANCH  10  14
HETATM   14  N   UNL     1     -43.674 -47.217   8.871  1.00  0.00    -0.278 NA
HETATM   15  C   UNL     1     -43.441 -47.874   7.590  1.00  0.00     0.118 C 
HETATM   16  C   UNL     1     -44.016 -45.797   8.800  1.00  0.00     0.118 C 
ENDBRANCH  10  14
ENDBRANCH   1   7
BRANCH   4  17
HETATM   17  C   UNL     1     -38.415 -48.490  16.028  1.00  0.00     0.109 C 
HETATM   18  C   UNL     1     -37.786 -49.795  16.541  1.00  0.00     0.040 C 
HETATM   19  C   UNL     1     -36.719 -49.398  17.582  1.00  0.00     0.034 C 
HETATM   20  C   UNL     1     -36.536 -47.928  17.330  1.00  0.00    -0.022 C 
HETATM   21  C   UNL     1     -37.467 -47.440  16.505  1.00  0.00    -0.005 C 
BRANCH  19  22
HETATM   22  C   UNL     1     -35.436 -50.218  17.435  1.00  0.00     0.172 C 
BRANCH  22  23
HETATM   23  O   UNL     1     -34.795 -49.951  16.189  1.00  0.00    -0.400 OA
HETATM   24  H   UNL     1     -35.433 -50.162  15.485  1.00  0.00     0.209 HD
ENDBRANCH  22  23
ENDBRANCH  19  22
ENDBRANCH   4  17
TORSDOF 5
ENDMDL
MODEL 5
REMARK VINA RESULT:      -5.2      2.761      8.351
REMARK  5 active torsions:
REMARK  status: ('A' for Active; 'I' for Inactive)
REMARK    1  A    between atoms: N_2  and  C_4 
REMARK    2  A    between atoms: C_7  and  N_8 
REMARK       I    between atoms: N_8  and  C_9 
REMARK       I    between atoms: C_9  and  N_11 
REMARK    3  A    between atoms: N_11  and  C_12 
REMARK    4  A    between atoms: C_14  and  C_15 
REMARK    5  A    between atoms: C_15  and  O_16 
ROOT
HETATM    1  N   UNL     1     -42.869 -50.982  12.848  1.00  0.00    -0.308 N 
HETATM    2  C   UNL     1     -42.030 -50.183  12.096  1.00  0.00     0.321 C 
HETATM    3  O   UNL     1     -40.816 -50.297  11.986  1.00  0.00    -0.247 OA
HETATM    4  N   UNL     1     -42.716 -49.188  11.436  1.00  0.00    -0.335 N 
HETATM    5  H   UNL     1     -43.859 -50.824  12.746  1.00  0.00     0.170 HD
HETATM    6  H   UNL     1     -43.704 -49.078  11.591  1.00  0.00     0.164 HD
ENDROOT
BRANCH   1   7
HETATM    7  C   UNL     1     -42.472 -52.061  13.678  1.00  0.00     0.051 A 
HETATM    8  C   UNL     1     -42.156 -51.923  15.017  1.00  0.00     0.034 A 
HETATM    9  C   UNL     1     -41.783 -53.040  15.763  1.00  0.00     0.044 A 
HETATM   10  C   UNL     1     -41.721 -54.300  15.171  1.00  0.00     0.081 A 
HETATM   11  N   UNL     1     -42.015 -54.460  13.860  1.00  0.00    -0.354 N 
HETATM   12  C   UNL     1     -42.393 -53.354  13.156  1.00  0.00     0.119 A 
ATOM     13  HN  UNL     1     -41.957 -55.375  13.414  1.00  0.00     0.166 HD
BRANCH  10  14
HETATM   14  N   UNL     1     -41.377 -55.396  15.990  1.00  0.00    -0.278 NA
HETATM   15  C   UNL     1     -42.270 -55.603  17.124  1.00  0.00     0.118 C 
HETATM   16  C   UNL     1     -39.949 -55.378  16.305  1.00  0.00     0.118 C 
ENDBRANCH  10  14
ENDBRANCH   1   7
BRANCH   4  17
HETATM   17  C   UNL     1     -42.007 -48.156  10.712  1.00  0.00     0.109 C 
HETATM   18  C   UNL     1     -42.723 -47.690   9.434  1.00  0.00     0.040 C 
HETATM   19  C   UNL     1     -42.752 -46.148   9.475  1.00  0.00     0.034 C 
HETATM   20  C   UNL     1     -42.411 -45.845  10.906  1.00  0.00    -0.022 C 
HETATM   21  C   UNL     1     -41.990 -46.929  11.564  1.00  0.00    -0.005 C 
BRANCH  19  22
HETATM   22  C   UNL     1     -44.101 -45.584   9.026  1.00  0.00     0.172 C 
BRANCH  22  23
HETATM   23  O   UNL     1     -44.234 -44.214   9.396  1.00  0.00    -0.400 OA
HETATM   24  H   UNL     1     -43.613 -44.049  10.126  1.00  0.00     0.209 HD
ENDBRANCH  22  23
ENDBRANCH  19  22
ENDBRANCH   4  17
TORSDOF 5
ENDMDL
MODEL 6
REMARK VINA RESULT:      -5.2      4.473      6.741
REMARK  5 active torsions:
REMARK  status: ('A' for Active; 'I' for Inactive)
REMARK    1  A    between atoms: N_2  and  C_4 
REMARK    2  A    between atoms: C_7  and  N_8 
REMARK       I    between atoms: N_8  and  C_9 
REMARK       I    between atoms: C_9  and  N_11 
REMARK    3  A    between atoms: N_11  and  C_12 
REMARK    4  A    between atoms: C_14  and  C_15 
REMARK    5  A    between atoms: C_15  and  O_16 
ROOT
HETATM    1  N   UNL     1     -40.676 -47.419  13.063  1.00  0.00    -0.308 N 
HETATM    2  C   UNL     1     -39.428 -48.012  13.065  1.00  0.00     0.321 C 
HETATM    3  O   UNL     1     -38.857 -48.517  12.105  1.00  0.00    -0.247 OA
HETATM    4  N   UNL     1     -38.841 -47.983  14.310  1.00  0.00    -0.335 N 
HETATM    5  H   UNL     1     -40.957 -46.952  13.910  1.00  0.00     0.170 HD
HETATM    6  H   UNL     1     -39.356 -47.617  15.093  1.00  0.00     0.164 HD
ENDROOT
BRANCH   1   7
HETATM    7  C   UNL     1     -41.555 -47.327  11.954  1.00  0.00     0.051 A 
HETATM    8  C   UNL     1     -41.455 -46.357  10.974  1.00  0.00     0.034 A 
HETATM    9  C   UNL     1     -42.357 -46.346   9.911  1.00  0.00     0.044 A 
HETATM   10  C   UNL     1     -43.365 -47.303   9.827  1.00  0.00     0.081 A 
HETATM   11  N   UNL     1     -43.490 -48.257  10.778  1.00  0.00    -0.354 N 
HETATM   12  C   UNL     1     -42.585 -48.256  11.800  1.00  0.00     0.119 A 
ATOM     13  HN  UNL     1     -44.235 -48.952  10.734  1.00  0.00     0.166 HD
BRANCH  10  14
HETATM   14  N   UNL     1     -44.220 -47.262   8.705  1.00  0.00    -0.278 NA
HETATM   15  C   UNL     1     -45.610 -47.591   8.997  1.00  0.00     0.118 C 
HETATM   16  C   UNL     1     -43.625 -47.974   7.575  1.00  0.00     0.118 C 
ENDBRANCH  10  14
ENDBRANCH   1   7
BRANCH   4  17
HETATM   17  C   UNL     1     -37.598 -48.679  14.558  1.00  0.00     0.109 C 
HETATM   18  C   UNL     1     -36.517 -47.806  15.214  1.00  0.00     0.040 C 
HETATM   19  C   UNL     1     -35.965 -48.604  16.413  1.00  0.00     0.034 C 
HETATM   20  C   UNL     1     -36.993 -49.683  16.600  1.00  0.00    -0.022 C 
HETATM   21  C   UNL     1     -37.861 -49.732  15.585  1.00  0.00    -0.005 C 
BRANCH  19  22
HETATM   22  C   UNL     1     -35.757 -47.724  17.646  1.00  0.00     0.172 C 
BRANCH  22  23
HETATM   23  O   UNL     1     -34.418 -47.238  17.712  1.00  0.00    -0.400 OA
HETATM   24  H   UNL     1     -33.902 -47.720  17.043  1.00  0.00     0.209 HD
ENDBRANCH  22  23
ENDBRANCH  19  22
ENDBRANCH   4  17
TORSDOF 5
ENDMDL
MODEL 7
REMARK VINA RESULT:      -5.1      1.919      2.877
REMARK  5 active torsions:
REMARK  status: ('A' for Active; 'I' for Inactive)
REMARK    1  A    between atoms: N_2  and  C_4 
REMARK    2  A    between atoms: C_7  and  N_8 
REMARK       I    between atoms: N_8  and  C_9 
REMARK       I    between atoms: C_9  and  N_11 
REMARK    3  A    between atoms: N_11  and  C_12 
REMARK    4  A    between atoms: C_14  and  C_15 
REMARK    5  A    between atoms: C_15  and  O_16 
ROOT
HETATM    1  N   UNL     1     -42.766 -50.030  11.941  1.00  0.00    -0.308 N 
HETATM    2  C   UNL     1     -42.157 -51.140  12.496  1.00  0.00     0.321 C 
HETATM    3  O   UNL     1     -41.042 -51.187  13.000  1.00  0.00    -0.247 OA
HETATM    4  N   UNL     1     -42.960 -52.257  12.433  1.00  0.00    -0.335 N 
HETATM    5  H   UNL     1     -43.730 -50.131  11.667  1.00  0.00     0.170 HD
HETATM    6  H   UNL     1     -43.846 -52.206  11.959  1.00  0.00     0.164 HD
ENDROOT
BRANCH   1   7
HETATM    7  C   UNL     1     -42.190 -48.742  11.808  1.00  0.00     0.051 A 
HETATM    8  C   UNL     1     -42.340 -47.734  12.743  1.00  0.00     0.034 A 
HETATM    9  C   UNL     1     -41.730 -46.497  12.538  1.00  0.00     0.044 A 
HETATM   10  C   UNL     1     -40.970 -46.263  11.394  1.00  0.00     0.081 A 
HETATM   11  N   UNL     1     -40.816 -47.229  10.460  1.00  0.00    -0.354 N 
HETATM   12  C   UNL     1     -41.410 -48.435  10.692  1.00  0.00     0.119 A 
ATOM     13  HN  UNL     1     -40.276 -47.061   9.612  1.00  0.00     0.166 HD
BRANCH  10  14
HETATM   14  N   UNL     1     -40.345 -45.004  11.266  1.00  0.00    -0.278 NA
HETATM   15  C   UNL     1     -39.530 -44.858  10.066  1.00  0.00     0.118 C 
HETATM   16  C   UNL     1     -39.701 -44.616  12.520  1.00  0.00     0.118 C 
ENDBRANCH  10  14
ENDBRANCH   1   7
BRANCH   4  17
HETATM   17  C   UNL     1     -42.454 -53.554  12.826  1.00  0.00     0.109 C 
HETATM   18  C   UNL     1     -40.933 -53.703  12.662  1.00  0.00     0.040 C 
HETATM   19  C   UNL     1     -40.396 -54.280  13.988  1.00  0.00     0.034 C 
HETATM   20  C   UNL     1     -41.543 -54.071  14.934  1.00  0.00    -0.022 C 
HETATM   21  C   UNL     1     -42.658 -53.698  14.298  1.00  0.00    -0.005 C 
BRANCH  19  22
HETATM   22  C   UNL     1     -39.097 -53.602  14.427  1.00  0.00     0.172 C 
BRANCH  22  23
HETATM   23  O   UNL     1     -38.608 -52.722  13.417  1.00  0.00    -0.400 OA
HETATM   24  H   UNL     1     -38.638 -51.820  13.780  1.00  0.00     0.209 HD
ENDBRANCH  22  23
ENDBRANCH  19  22
ENDBRANCH   4  17
TORSDOF 5
ENDMDL
MODEL 8
REMARK VINA RESULT:      -4.9     15.754     16.892
REMARK  5 active torsions:
REMARK  status: ('A' for Active; 'I' for Inactive)
REMARK    1  A    between atoms: N_2  and  C_4 
REMARK    2  A    between atoms: C_7  and  N_8 
REMARK       I    between atoms: N_8  and  C_9 
REMARK       I    between atoms: C_9  and  N_11 
REMARK    3  A    between atoms: N_11  and  C_12 
REMARK    4  A    between atoms: C_14  and  C_15 
REMARK    5  A    between atoms: C_15  and  O_16 
ROOT
HETATM    1  N   UNL     1     -48.671 -53.356  -1.413  1.00  0.00    -0.308 N 
HETATM    2  C   UNL     1     -49.151 -53.984  -2.547  1.00  0.00     0.321 C 
HETATM    3  O   UNL     1     -49.989 -53.545  -3.326  1.00  0.00    -0.247 OA
HETATM    4  N   UNL     1     -48.570 -55.216  -2.743  1.00  0.00    -0.335 N 
HETATM    5  H   UNL     1     -47.902 -53.802  -0.939  1.00  0.00     0.170 HD
HETATM    6  H   UNL     1     -47.930 -55.579  -2.056  1.00  0.00     0.164 HD
ENDROOT
BRANCH   1   7
HETATM    7  C   UNL     1     -49.098 -52.102  -0.910  1.00  0.00     0.051 A 
HETATM    8  C   UNL     1     -50.296 -51.909  -0.247  1.00  0.00     0.034 A 
HETATM    9  C   UNL     1     -50.635 -50.641   0.225  1.00  0.00     0.044 A 
HETATM   10  C   UNL     1     -49.777 -49.561   0.032  1.00  0.00     0.081 A 
HETATM   11  N   UNL     1     -48.604 -49.721  -0.622  1.00  0.00    -0.354 N 
HETATM   12  C   UNL     1     -48.288 -50.974  -1.060  1.00  0.00     0.119 A 
ATOM     13  HN  UNL     1     -47.977 -48.933  -0.782  1.00  0.00     0.166 HD
BRANCH  10  14
HETATM   14  N   UNL     1     -50.159 -48.314   0.570  1.00  0.00    -0.278 NA
HETATM   15  C   UNL     1     -49.051 -47.395   0.802  1.00  0.00     0.118 C 
HETATM   16  C   UNL     1     -51.077 -48.494   1.693  1.00  0.00     0.118 C 
ENDBRANCH  10  14
ENDBRANCH   1   7
BRANCH   4  17
HETATM   17  C   UNL     1     -49.038 -56.096  -3.791  1.00  0.00     0.109 C 
HETATM   18  C   UNL     1     -48.232 -55.994  -5.095  1.00  0.00     0.040 C 
HETATM   19  C   UNL     1     -47.876 -57.435  -5.514  1.00  0.00     0.034 C 
HETATM   20  C   UNL     1     -48.153 -58.225  -4.268  1.00  0.00    -0.022 C 
HETATM   21  C   UNL     1     -48.799 -57.502  -3.348  1.00  0.00    -0.005 C 
BRANCH  19  22
HETATM   22  C   UNL     1     -46.435 -57.551  -6.015  1.00  0.00     0.172 C 
BRANCH  22  23
HETATM   23  O   UNL     1     -45.595 -56.581  -5.392  1.00  0.00    -0.400 OA
HETATM   24  H   UNL     1     -45.211 -56.997  -4.600  1.00  0.00     0.209 HD
ENDBRANCH  22  23
ENDBRANCH  19  22
ENDBRANCH   4  17
TORSDOF 5
ENDMDL
MODEL 9
REMARK VINA RESULT:      -4.9      5.893     10.210
REMARK  5 active torsions:
REMARK  status: ('A' for Active; 'I' for Inactive)
REMARK    1  A    between atoms: N_2  and  C_4 
REMARK    2  A    between atoms: C_7  and  N_8 
REMARK       I    between atoms: N_8  and  C_9 
REMARK       I    between atoms: C_9  and  N_11 
REMARK    3  A    between atoms: N_11  and  C_12 
REMARK    4  A    between atoms: C_14  and  C_15 
REMARK    5  A    between atoms: C_15  and  O_16 
ROOT
HETATM    1  N   UNL     1     -45.411 -52.685  17.674  1.00  0.00    -0.308 N 
HETATM    2  C   UNL     1     -45.125 -53.585  16.666  1.00  0.00     0.321 C 
HETATM    3  O   UNL     1     -45.877 -54.438  16.212  1.00  0.00    -0.247 OA
HETATM    4  N   UNL     1     -43.845 -53.432  16.182  1.00  0.00    -0.335 N 
HETATM    5  H   UNL     1     -44.721 -51.974  17.857  1.00  0.00     0.170 HD
HETATM    6  H   UNL     1     -43.227 -52.766  16.614  1.00  0.00     0.164 HD
ENDROOT
BRANCH   1   7
HETATM    7  C   UNL     1     -46.622 -52.612  18.409  1.00  0.00     0.051 A 
HETATM    8  C   UNL     1     -47.570 -51.621  18.230  1.00  0.00     0.034 A 
HETATM    9  C   UNL     1     -48.739 -51.631  18.990  1.00  0.00     0.044 A 
HETATM   10  C   UNL     1     -48.962 -52.630  19.934  1.00  0.00     0.081 A 
HETATM   11  N   UNL     1     -48.046 -53.605  20.135  1.00  0.00    -0.354 N 
HETATM   12  C   UNL     1     -46.918 -53.583  19.368  1.00  0.00     0.119 A 
ATOM     13  HN  UNL     1     -48.193 -54.332  20.835  1.00  0.00     0.166 HD
BRANCH  10  14
HETATM   14  N   UNL     1     -50.183 -52.607  20.641  1.00  0.00    -0.278 NA
HETATM   15  C   UNL     1     -50.083 -52.079  21.996  1.00  0.00     0.118 C 
HETATM   16  C   UNL     1     -50.881 -53.885  20.510  1.00  0.00     0.118 C 
ENDBRANCH  10  14
ENDBRANCH   1   7
BRANCH   4  17
HETATM   17  C   UNL     1     -43.298 -54.370  15.226  1.00  0.00     0.109 C 
HETATM   18  C   UNL     1     -43.296 -53.852  13.779  1.00  0.00     0.040 C 
HETATM   19  C   UNL     1     -41.880 -54.098  13.219  1.00  0.00     0.034 C 
HETATM   20  C   UNL     1     -41.074 -54.376  14.456  1.00  0.00    -0.022 C 
HETATM   21  C   UNL     1     -41.847 -54.542  15.533  1.00  0.00    -0.005 C 
BRANCH  19  22
HETATM   22  C   UNL     1     -41.369 -52.912  12.399  1.00  0.00     0.172 C 
BRANCH  22  23
HETATM   23  O   UNL     1     -40.512 -53.347  11.346  1.00  0.00    -0.400 OA
HETATM   24  H   UNL     1     -39.606 -53.363  11.698  1.00  0.00     0.209 HD
ENDBRANCH  22  23
ENDBRANCH  19  22
ENDBRANCH   4  17
TORSDOF 5
ENDMDL
