MODEL 1
REMARK VINA RESULT:      -5.9      0.000      0.000
REMARK  4 active torsions:
REMARK  status: ('A' for Active; 'I' for Inactive)
REMARK    1  A    between atoms: C_2  and  N_3 
REMARK    2  A    between atoms: N_10  and  C_11 
REMARK    3  A    between atoms: C_11  and  C_12 
REMARK       I    between atoms: C_12  and  N_14 
REMARK    4  A    between atoms: N_14  and  C_15 
ROOT
HETATM    1  N   UNL     1     -44.223 -54.609  14.006  1.00  0.00    -0.308 N 
HETATM    2  C   UNL     1     -43.356 -54.915  15.033  1.00  0.00     0.124 C 
HETATM    3  C   UNL     1     -42.046 -54.668  14.942  1.00  0.00     0.128 C 
HETATM    4  C   UNL     1     -41.135 -54.989  15.980  1.00  0.00     0.106 C 
HETATM    5  N   UNL     1     -40.432 -55.251  16.863  1.00  0.00    -0.191 NA
HETATM    6  C   UNL     1     -41.563 -54.111  13.661  1.00  0.00     0.274 C 
HETATM    7  O   UNL     1     -40.402 -54.283  13.295  1.00  0.00    -0.266 OA
HETATM    8  N   UNL     1     -42.503 -53.426  12.913  1.00  0.00    -0.256 N 
HETATM    9  C   UNL     1     -43.832 -53.839  12.903  1.00  0.00     0.331 C 
HETATM   10  O   UNL     1     -44.599 -53.599  11.973  1.00  0.00    -0.246 OA
ENDROOT
BRANCH   1  11
HETATM   11  C   UNL     1     -45.616 -55.058  14.085  1.00  0.00     0.128 C 
HETATM   12  C   UNL     1     -46.464 -54.129  14.936  1.00  0.00     0.027 C 
ENDBRANCH   1  11
BRANCH   8  13
HETATM   13  C   UNL     1     -42.027 -52.704  11.739  1.00  0.00     0.239 C 
BRANCH  13  14
HETATM   14  C   UNL     1     -41.543 -51.292  12.087  1.00  0.00     0.236 C 
HETATM   15  O   UNL     1     -42.306 -50.397  12.438  1.00  0.00    -0.272 OA
HETATM   16  N   UNL     1     -40.170 -51.149  12.028  1.00  0.00    -0.355 N 
HETATM   17  H   UNL     1     -39.643 -52.011  12.168  1.00  0.00     0.162 HD
BRANCH  16  18
HETATM   18  C   UNL     1     -39.486 -49.905  12.368  1.00  0.00     0.084 C 
HETATM   19  C   UNL     1     -38.044 -49.931  11.842  1.00  0.00     0.025 C 
HETATM   20  C   UNL     1     -37.145 -50.890  12.623  1.00  0.00     0.002 C 
HETATM   21  C   UNL     1     -37.185 -50.614  14.122  1.00  0.00     0.000 C 
HETATM   22  C   UNL     1     -38.609 -50.583  14.667  1.00  0.00     0.002 C 
HETATM   23  C   UNL     1     -39.507 -49.630  13.878  1.00  0.00     0.025 C 
ENDBRANCH  16  18
ENDBRANCH  13  14
ENDBRANCH   8  13
TORSDOF 4
ENDMDL
MODEL 2
REMARK VINA RESULT:      -5.8      2.759      5.189
REMARK  4 active torsions:
REMARK  status: ('A' for Active; 'I' for Inactive)
REMARK    1  A    between atoms: C_2  and  N_3 
REMARK    2  A    between atoms: N_10  and  C_11 
REMARK    3  A    between atoms: C_11  and  C_12 
REMARK       I    between atoms: C_12  and  N_14 
REMARK    4  A    between atoms: N_14  and  C_15 
ROOT
HETATM    1  N   UNL     1     -46.385 -51.932  15.399  1.00  0.00    -0.308 N 
HETATM    2  C   UNL     1     -46.838 -51.436  14.195  1.00  0.00     0.124 C 
HETATM    3  C   UNL     1     -46.567 -52.048  13.038  1.00  0.00     0.128 C 
HETATM    4  C   UNL     1     -47.011 -51.548  11.788  1.00  0.00     0.106 C 
HETATM    5  N   UNL     1     -47.411 -51.111  10.793  1.00  0.00    -0.191 NA
HETATM    6  C   UNL     1     -45.704 -53.245  13.107  1.00  0.00     0.274 C 
HETATM    7  O   UNL     1     -45.025 -53.591  12.142  1.00  0.00    -0.266 OA
HETATM    8  N   UNL     1     -45.695 -53.910  14.320  1.00  0.00    -0.256 N 
HETATM    9  C   UNL     1     -45.801 -53.200  15.512  1.00  0.00     0.331 C 
HETATM   10  O   UNL     1     -45.367 -53.623  16.582  1.00  0.00    -0.246 OA
ENDROOT
BRANCH   1  11
HETATM   11  C   UNL     1     -46.560 -51.133  16.615  1.00  0.00     0.128 C 
HETATM   12  C   UNL     1     -48.018 -51.051  17.035  1.00  0.00     0.027 C 
ENDBRANCH   1  11
BRANCH   8  13
HETATM   13  C   UNL     1     -45.006 -55.194  14.375  1.00  0.00     0.239 C 
BRANCH  13  14
HETATM   14  C   UNL     1     -43.541 -55.044  14.799  1.00  0.00     0.236 C 
HETATM   15  O   UNL     1     -43.041 -55.702  15.706  1.00  0.00    -0.272 OA
HETATM   16  N   UNL     1     -42.831 -54.147  14.022  1.00  0.00    -0.355 N 
HETATM   17  H   UNL     1     -43.195 -54.016  13.079  1.00  0.00     0.162 HD
BRANCH  16  18
HETATM   18  C   UNL     1     -41.408 -53.883  14.215  1.00  0.00     0.084 C 
HETATM   19  C   UNL     1     -41.212 -52.575  14.994  1.00  0.00     0.025 C 
HETATM   20  C   UNL     1     -41.552 -51.335  14.166  1.00  0.00     0.002 C 
HETATM   21  C   UNL     1     -40.796 -51.311  12.841  1.00  0.00     0.000 C 
HETATM   22  C   UNL     1     -40.976 -52.602  12.049  1.00  0.00     0.002 C 
HETATM   23  C   UNL     1     -40.645 -53.840  12.883  1.00  0.00     0.025 C 
ENDBRANCH  16  18
ENDBRANCH  13  14
ENDBRANCH   8  13
TORSDOF 4
ENDMDL
MODEL 3
REMARK VINA RESULT:      -5.8      2.484      5.635
REMARK  4 active torsions:
REMARK  status: ('A' for Active; 'I' for Inactive)
REMARK    1  A    between atoms: C_2  and  N_3 
REMARK    2  A    between atoms: N_10  and  C_11 
REMARK    3  A    between atoms: C_11  and  C_12 
REMARK       I    between atoms: C_12  and  N_14 
REMARK    4  A    between atoms: N_14  and  C_15 
ROOT
HETATM    1  N   UNL     1     -40.947 -55.180  16.302  1.00  0.00    -0.308 N 
HETATM    2  C   UNL     1     -40.012 -54.338  15.739  1.00  0.00     0.124 C 
HETATM    3  C   UNL     1     -40.197 -53.788  14.535  1.00  0.00     0.128 C 
HETATM    4  C   UNL     1     -39.243 -52.931  13.932  1.00  0.00     0.106 C 
HETATM    5  N   UNL     1     -38.442 -52.221  13.488  1.00  0.00    -0.191 NA
HETATM    6  C   UNL     1     -41.424 -54.179  13.810  1.00  0.00     0.274 C 
HETATM    7  O   UNL     1     -41.473 -54.133  12.582  1.00  0.00    -0.266 OA
HETATM    8  N   UNL     1     -42.473 -54.618  14.597  1.00  0.00    -0.256 N 
HETATM    9  C   UNL     1     -42.225 -55.347  15.756  1.00  0.00     0.331 C 
HETATM   10  O   UNL     1     -43.043 -56.127  16.242  1.00  0.00    -0.246 OA
ENDROOT
BRANCH   1  11
HETATM   11  C   UNL     1     -40.617 -55.891  17.540  1.00  0.00     0.128 C 
HETATM   12  C   UNL     1     -39.682 -57.062  17.290  1.00  0.00     0.027 C 
ENDBRANCH   1  11
BRANCH   8  13
HETATM   13  C   UNL     1     -43.757 -54.835  13.942  1.00  0.00     0.239 C 
BRANCH  13  14
HETATM   14  C   UNL     1     -44.430 -53.517  13.540  1.00  0.00     0.236 C 
HETATM   15  O   UNL     1     -44.853 -53.305  12.407  1.00  0.00    -0.272 OA
HETATM   16  N   UNL     1     -44.566 -52.626  14.589  1.00  0.00    -0.355 N 
HETATM   17  H   UNL     1     -44.598 -53.054  15.513  1.00  0.00     0.162 HD
BRANCH  16  18
HETATM   18  C   UNL     1     -45.220 -51.329  14.447  1.00  0.00     0.084 C 
HETATM   19  C   UNL     1     -44.713 -50.358  15.522  1.00  0.00     0.025 C 
HETATM   20  C   UNL     1     -45.221 -50.704  16.922  1.00  0.00     0.002 C 
HETATM   21  C   UNL     1     -46.741 -50.830  16.960  1.00  0.00     0.000 C 
HETATM   22  C   UNL     1     -47.269 -51.790  15.899  1.00  0.00     0.002 C 
HETATM   23  C   UNL     1     -46.750 -51.446  14.502  1.00  0.00     0.025 C 
ENDBRANCH  16  18
ENDBRANCH  13  14
ENDBRANCH   8  13
TORSDOF 4
ENDMDL
MODEL 4
REMARK VINA RESULT:      -5.8      1.973      6.680
REMARK  4 active torsions:
REMARK  status: ('A' for Active; 'I' for Inactive)
REMARK    1  A    between atoms: C_2  and  N_3 
REMARK    2  A    between atoms: N_10  and  C_11 
REMARK    3  A    between atoms: C_11  and  C_12 
REMARK       I    between atoms: C_12  and  N_14 
REMARK    4  A    between atoms: N_14  and  C_15 
ROOT
HETATM    1  N   UNL     1     -39.280 -51.317  13.112  1.00  0.00    -0.308 N 
HETATM    2  C   UNL     1     -40.150 -50.298  12.787  1.00  0.00     0.124 C 
HETATM    3  C   UNL     1     -41.456 -50.519  12.611  1.00  0.00     0.128 C 
HETATM    4  C   UNL     1     -42.365 -49.489  12.263  1.00  0.00     0.106 C 
HETATM    5  N   UNL     1     -43.073 -48.611  11.997  1.00  0.00    -0.191 NA
HETATM    6  C   UNL     1     -41.911 -51.922  12.718  1.00  0.00     0.274 C 
HETATM    7  O   UNL     1     -42.925 -52.302  12.137  1.00  0.00    -0.266 OA
HETATM    8  N   UNL     1     -41.110 -52.757  13.475  1.00  0.00    -0.256 N 
HETATM    9  C   UNL     1     -39.728 -52.591  13.480  1.00  0.00     0.331 C 
HETATM   10  O   UNL     1     -38.947 -53.506  13.735  1.00  0.00    -0.246 OA
ENDROOT
BRANCH   1  11
HETATM   11  C   UNL     1     -37.839 -51.053  13.121  1.00  0.00     0.128 C 
HETATM   12  C   UNL     1     -37.348 -50.534  11.781  1.00  0.00     0.027 C 
ENDBRANCH   1  11
BRANCH   8  13
HETATM   13  C   UNL     1     -41.616 -54.094  13.759  1.00  0.00     0.239 C 
BRANCH  13  14
HETATM   14  C   UNL     1     -42.524 -54.116  14.994  1.00  0.00     0.236 C 
HETATM   15  O   UNL     1     -42.116 -54.415  16.113  1.00  0.00    -0.272 OA
HETATM   16  N   UNL     1     -43.819 -53.709  14.734  1.00  0.00    -0.355 N 
HETATM   17  H   UNL     1     -43.920 -53.089  13.931  1.00  0.00     0.162 HD
BRANCH  16  18
HETATM   18  C   UNL     1     -44.842 -53.606  15.770  1.00  0.00     0.084 C 
HETATM   19  C   UNL     1     -46.224 -53.929  15.187  1.00  0.00     0.025 C 
HETATM   20  C   UNL     1     -46.747 -52.833  14.258  1.00  0.00     0.002 C 
HETATM   21  C   UNL     1     -46.735 -51.464  14.930  1.00  0.00     0.000 C 
HETATM   22  C   UNL     1     -45.371 -51.120  15.518  1.00  0.00     0.002 C 
HETATM   23  C   UNL     1     -44.846 -52.223  16.439  1.00  0.00     0.025 C 
ENDBRANCH  16  18
ENDBRANCH  13  14
ENDBRANCH   8  13
TORSDOF 4
ENDMDL
MODEL 5
REMARK VINA RESULT:      -5.7      2.442      7.013
REMARK  4 active torsions:
REMARK  status: ('A' for Active; 'I' for Inactive)
REMARK    1  A    between atoms: C_2  and  N_3 
REMARK    2  A    between atoms: N_10  and  C_11 
REMARK    3  A    between atoms: C_11  and  C_12 
REMARK       I    between atoms: C_12  and  N_14 
REMARK    4  A    between atoms: N_14  and  C_15 
ROOT
HETATM    1  N   UNL     1     -40.052 -48.163  13.527  1.00  0.00    -0.308 N 
HETATM    2  C   UNL     1     -39.080 -48.402  12.580  1.00  0.00     0.124 C 
HETATM    3  C   UNL     1     -38.732 -49.644  12.229  1.00  0.00     0.128 C 
HETATM    4  C   UNL     1     -37.726 -49.912  11.268  1.00  0.00     0.106 C 
HETATM    5  N   UNL     1     -36.910 -50.081  10.462  1.00  0.00    -0.191 NA
HETATM    6  C   UNL     1     -39.395 -50.748  12.954  1.00  0.00     0.274 C 
HETATM    7  O   UNL     1     -38.852 -51.845  13.067  1.00  0.00    -0.266 OA
HETATM    8  N   UNL     1     -40.626 -50.449  13.508  1.00  0.00    -0.256 N 
HETATM    9  C   UNL     1     -40.875 -49.180  14.026  1.00  0.00     0.331 C 
HETATM   10  O   UNL     1     -41.716 -48.968  14.897  1.00  0.00    -0.246 OA
ENDROOT
BRANCH   1  11
HETATM   11  C   UNL     1     -40.271 -46.793  14.000  1.00  0.00     0.128 C 
HETATM   12  C   UNL     1     -39.081 -46.267  14.784  1.00  0.00     0.027 C 
ENDBRANCH   1  11
BRANCH   8  13
HETATM   13  C   UNL     1     -41.395 -51.553  14.069  1.00  0.00     0.239 C 
BRANCH  13  14
HETATM   14  C   UNL     1     -42.484 -52.044  13.108  1.00  0.00     0.236 C 
HETATM   15  O   UNL     1     -42.233 -52.490  11.993  1.00  0.00    -0.272 OA
HETATM   16  N   UNL     1     -43.757 -51.991  13.645  1.00  0.00    -0.355 N 
HETATM   17  H   UNL     1     -43.795 -52.037  14.662  1.00  0.00     0.162 HD
BRANCH  16  18
HETATM   18  C   UNL     1     -44.940 -52.453  12.926  1.00  0.00     0.084 C 
HETATM   19  C   UNL     1     -46.095 -51.458  13.109  1.00  0.00     0.025 C 
HETATM   20  C   UNL     1     -46.679 -51.481  14.522  1.00  0.00     0.002 C 
HETATM   21  C   UNL     1     -47.085 -52.889  14.947  1.00  0.00     0.000 C 
HETATM   22  C   UNL     1     -45.953 -53.895  14.773  1.00  0.00     0.002 C 
HETATM   23  C   UNL     1     -45.365 -53.863  13.362  1.00  0.00     0.025 C 
ENDBRANCH  16  18
ENDBRANCH  13  14
ENDBRANCH   8  13
TORSDOF 4
ENDMDL
MODEL 6
REMARK VINA RESULT:      -5.6      1.968      2.967
REMARK  4 active torsions:
REMARK  status: ('A' for Active; 'I' for Inactive)
REMARK    1  A    between atoms: C_2  and  N_3 
REMARK    2  A    between atoms: N_10  and  C_11 
REMARK    3  A    between atoms: C_11  and  C_12 
REMARK       I    between atoms: C_12  and  N_14 
REMARK    4  A    between atoms: N_14  and  C_15 
ROOT
HETATM    1  N   UNL     1     -44.144 -52.234  13.931  1.00  0.00    -0.308 N 
HETATM    2  C   UNL     1     -44.546 -52.731  15.152  1.00  0.00     0.124 C 
HETATM    3  C   UNL     1     -43.915 -53.755  15.736  1.00  0.00     0.128 C 
HETATM    4  C   UNL     1     -44.321 -54.291  16.983  1.00  0.00     0.106 C 
HETATM    5  N   UNL     1     -44.678 -54.683  18.013  1.00  0.00    -0.191 NA
HETATM    6  C   UNL     1     -42.805 -54.368  14.977  1.00  0.00     0.274 C 
HETATM    7  O   UNL     1     -42.483 -55.540  15.166  1.00  0.00    -0.266 OA
HETATM    8  N   UNL     1     -42.194 -53.553  14.042  1.00  0.00    -0.256 N 
HETATM    9  C   UNL     1     -42.940 -52.619  13.328  1.00  0.00     0.331 C 
HETATM   10  O   UNL     1     -42.603 -52.200  12.223  1.00  0.00    -0.246 OA
ENDROOT
BRANCH   1  11
HETATM   11  C   UNL     1     -44.974 -51.232  13.257  1.00  0.00     0.128 C 
HETATM   12  C   UNL     1     -46.456 -51.490  13.464  1.00  0.00     0.027 C 
ENDBRANCH   1  11
BRANCH   8  13
HETATM   13  C   UNL     1     -40.981 -54.054  13.406  1.00  0.00     0.239 C 
BRANCH  13  14
HETATM   14  C   UNL     1     -39.718 -53.404  13.982  1.00  0.00     0.236 C 
HETATM   15  O   UNL     1     -38.922 -54.013  14.692  1.00  0.00    -0.272 OA
HETATM   16  N   UNL     1     -39.536 -52.096  13.574  1.00  0.00    -0.355 N 
HETATM   17  H   UNL     1     -39.976 -51.859  12.685  1.00  0.00     0.162 HD
BRANCH  16  18
HETATM   18  C   UNL     1     -38.376 -51.298  13.961  1.00  0.00     0.084 C 
HETATM   19  C   UNL     1     -38.826 -49.926  14.484  1.00  0.00     0.025 C 
HETATM   20  C   UNL     1     -39.355 -49.014  13.377  1.00  0.00     0.002 C 
HETATM   21  C   UNL     1     -38.358 -48.873  12.231  1.00  0.00     0.000 C 
HETATM   22  C   UNL     1     -37.897 -50.224  11.695  1.00  0.00     0.002 C 
HETATM   23  C   UNL     1     -37.377 -51.137  12.806  1.00  0.00     0.025 C 
ENDBRANCH  16  18
ENDBRANCH  13  14
ENDBRANCH   8  13
TORSDOF 4
ENDMDL
MODEL 7
REMARK VINA RESULT:      -5.6      2.410      6.856
REMARK  4 active torsions:
REMARK  status: ('A' for Active; 'I' for Inactive)
REMARK    1  A    between atoms: C_2  and  N_3 
REMARK    2  A    between atoms: N_10  and  C_11 
REMARK    3  A    between atoms: C_11  and  C_12 
REMARK       I    between atoms: C_12  and  N_14 
REMARK    4  A    between atoms: N_14  and  C_15 
ROOT
HETATM    1  N   UNL     1     -39.083 -49.739  13.963  1.00  0.00    -0.308 N 
HETATM    2  C   UNL     1     -39.859 -48.616  14.150  1.00  0.00     0.124 C 
HETATM    3  C   UNL     1     -40.976 -48.410  13.445  1.00  0.00     0.128 C 
HETATM    4  C   UNL     1     -41.782 -47.255  13.611  1.00  0.00     0.106 C 
HETATM    5  N   UNL     1     -42.418 -46.305  13.795  1.00  0.00    -0.191 NA
HETATM    6  C   UNL     1     -41.302 -49.414  12.410  1.00  0.00     0.274 C 
HETATM    7  O   UNL     1     -41.983 -49.114  11.432  1.00  0.00    -0.266 OA
HETATM    8  N   UNL     1     -40.769 -50.674  12.608  1.00  0.00    -0.256 N 
HETATM    9  C   UNL     1     -39.512 -50.824  13.189  1.00  0.00     0.331 C 
HETATM   10  O   UNL     1     -38.801 -51.808  12.996  1.00  0.00    -0.246 OA
ENDROOT
BRANCH   1  11
HETATM   11  C   UNL     1     -37.782 -49.831  14.633  1.00  0.00     0.128 C 
HETATM   12  C   UNL     1     -37.140 -48.466  14.814  1.00  0.00     0.027 C 
ENDBRANCH   1  11
BRANCH   8  13
HETATM   13  C   UNL     1     -41.214 -51.738  11.716  1.00  0.00     0.239 C 
BRANCH  13  14
HETATM   14  C   UNL     1     -42.103 -52.759  12.436  1.00  0.00     0.236 C 
HETATM   15  O   UNL     1     -41.668 -53.815  12.887  1.00  0.00    -0.272 OA
HETATM   16  N   UNL     1     -43.414 -52.346  12.579  1.00  0.00    -0.355 N 
HETATM   17  H   UNL     1     -43.546 -51.335  12.580  1.00  0.00     0.162 HD
BRANCH  16  18
HETATM   18  C   UNL     1     -44.424 -53.137  13.275  1.00  0.00     0.084 C 
HETATM   19  C   UNL     1     -45.776 -53.021  12.559  1.00  0.00     0.025 C 
HETATM   20  C   UNL     1     -46.423 -51.647  12.732  1.00  0.00     0.002 C 
HETATM   21  C   UNL     1     -46.537 -51.252  14.201  1.00  0.00     0.000 C 
HETATM   22  C   UNL     1     -45.204 -51.360  14.934  1.00  0.00     0.002 C 
HETATM   23  C   UNL     1     -44.556 -52.733  14.751  1.00  0.00     0.025 C 
ENDBRANCH  16  18
ENDBRANCH  13  14
ENDBRANCH   8  13
TORSDOF 4
ENDMDL
MODEL 8
REMARK VINA RESULT:      -5.4      3.593      7.027
REMARK  4 active torsions:
REMARK  status: ('A' for Active; 'I' for Inactive)
REMARK    1  A    between atoms: C_2  and  N_3 
REMARK    2  A    between atoms: N_10  and  C_11 
REMARK    3  A    between atoms: C_11  and  C_12 
REMARK       I    between atoms: C_12  and  N_14 
REMARK    4  A    between atoms: N_14  and  C_15 
ROOT
HETATM    1  N   UNL     1     -42.842 -47.534  10.876  1.00  0.00    -0.308 N 
HETATM    2  C   UNL     1     -42.045 -46.588  10.268  1.00  0.00     0.124 C 
HETATM    3  C   UNL     1     -40.859 -46.238  10.776  1.00  0.00     0.128 C 
HETATM    4  C   UNL     1     -40.031 -45.258  10.175  1.00  0.00     0.106 C 
HETATM    5  N   UNL     1     -39.380 -44.465   9.637  1.00  0.00    -0.191 NA
HETATM    6  C   UNL     1     -40.475 -46.868  12.056  1.00  0.00     0.274 C 
HETATM    7  O   UNL     1     -39.693 -46.311  12.824  1.00  0.00    -0.266 OA
HETATM    8  N   UNL     1     -41.071 -48.085  12.330  1.00  0.00    -0.256 N 
HETATM    9  C   UNL     1     -42.382 -48.332  11.931  1.00  0.00     0.331 C 
HETATM   10  O   UNL     1     -43.108 -49.149  12.493  1.00  0.00    -0.246 OA
ENDROOT
BRANCH   1  11
HETATM   11  C   UNL     1     -44.203 -47.752  10.378  1.00  0.00     0.128 C 
HETATM   12  C   UNL     1     -44.433 -47.069   9.041  1.00  0.00     0.027 C 
ENDBRANCH   1  11
BRANCH   8  13
HETATM   13  C   UNL     1     -40.583 -48.826  13.486  1.00  0.00     0.239 C 
BRANCH  13  14
HETATM   14  C   UNL     1     -39.916 -50.147  13.085  1.00  0.00     0.236 C 
HETATM   15  O   UNL     1     -38.825 -50.196  12.524  1.00  0.00    -0.272 OA
HETATM   16  N   UNL     1     -40.631 -51.265  13.471  1.00  0.00    -0.355 N 
HETATM   17  H   UNL     1     -41.242 -51.126  14.275  1.00  0.00     0.162 HD
BRANCH  16  18
HETATM   18  C   UNL     1     -40.161 -52.627  13.236  1.00  0.00     0.084 C 
HETATM   19  C   UNL     1     -41.220 -53.429  12.466  1.00  0.00     0.025 C 
HETATM   20  C   UNL     1     -42.444 -53.766  13.318  1.00  0.00     0.002 C 
HETATM   21  C   UNL     1     -42.057 -54.463  14.618  1.00  0.00     0.000 C 
HETATM   22  C   UNL     1     -41.005 -53.685  15.401  1.00  0.00     0.002 C 
HETATM   23  C   UNL     1     -39.787 -53.341  14.544  1.00  0.00     0.025 C 
ENDBRANCH  16  18
ENDBRANCH  13  14
ENDBRANCH   8  13
TORSDOF 4
ENDMDL
MODEL 9
REMARK VINA RESULT:      -5.3      3.247      5.108
REMARK  4 active torsions:
REMARK  status: ('A' for Active; 'I' for Inactive)
REMARK    1  A    between atoms: C_2  and  N_3 
REMARK    2  A    between atoms: N_10  and  C_11 
REMARK    3  A    between atoms: C_11  and  C_12 
REMARK       I    between atoms: C_12  and  N_14 
REMARK    4  A    between atoms: N_14  and  C_15 
ROOT
HETATM    1  N   UNL     1     -39.456 -52.579  13.806  1.00  0.00    -0.308 N 
HETATM    2  C   UNL     1     -38.655 -51.820  14.632  1.00  0.00     0.124 C 
HETATM    3  C   UNL     1     -38.229 -50.605  14.274  1.00  0.00     0.128 C 
HETATM    4  C   UNL     1     -37.392 -49.815  15.101  1.00  0.00     0.106 C 
HETATM    5  N   UNL     1     -36.726 -49.198  15.820  1.00  0.00    -0.191 NA
HETATM    6  C   UNL     1     -38.604 -50.143  12.921  1.00  0.00     0.274 C 
HETATM    7  O   UNL     1     -37.919 -49.316  12.324  1.00  0.00    -0.266 OA
HETATM    8  N   UNL     1     -39.738 -50.722  12.382  1.00  0.00    -0.256 N 
HETATM    9  C   UNL     1     -40.041 -52.055  12.647  1.00  0.00     0.331 C 
HETATM   10  O   UNL     1     -40.726 -52.746  11.894  1.00  0.00    -0.246 OA
ENDROOT
BRANCH   1  11
HETATM   11  C   UNL     1     -39.750 -53.968  14.171  1.00  0.00     0.128 C 
HETATM   12  C   UNL     1     -40.936 -54.067  15.114  1.00  0.00     0.027 C 
ENDBRANCH   1  11
BRANCH   8  13
HETATM   13  C   UNL     1     -40.248 -50.164  11.135  1.00  0.00     0.239 C 
BRANCH  13  14
HETATM   14  C   UNL     1     -41.225 -49.008  11.379  1.00  0.00     0.236 C 
HETATM   15  O   UNL     1     -42.382 -49.183  11.749  1.00  0.00    -0.272 OA
HETATM   16  N   UNL     1     -40.657 -47.760  11.201  1.00  0.00    -0.355 N 
HETATM   17  H   UNL     1     -39.647 -47.726  11.337  1.00  0.00     0.162 HD
BRANCH  16  18
HETATM   18  C   UNL     1     -41.388 -46.517  11.426  1.00  0.00     0.084 C 
HETATM   19  C   UNL     1     -41.012 -45.479  10.359  1.00  0.00     0.025 C 
HETATM   20  C   UNL     1     -39.596 -44.931  10.538  1.00  0.00     0.002 C 
HETATM   21  C   UNL     1     -39.369 -44.389  11.945  1.00  0.00     0.000 C 
HETATM   22  C   UNL     1     -39.736 -45.403  13.023  1.00  0.00     0.002 C 
HETATM   23  C   UNL     1     -41.150 -45.955  12.836  1.00  0.00     0.025 C 
ENDBRANCH  16  18
ENDBRANCH  13  14
ENDBRANCH   8  13
TORSDOF 4
ENDMDL
