MODEL 1
REMARK VINA RESULT:      -7.0      0.000      0.000
REMARK  2 active torsions:
REMARK  status: ('A' for Active; 'I' for Inactive)
REMARK    1  A    between atoms: C_9  and  N_11 
REMARK       I    between atoms: N_11  and  C_12 
REMARK       I    between atoms: C_12  and  N_14 
REMARK    2  A    between atoms: N_14  and  C_15 
ROOT
HETATM    1  N   UNL     1     -40.611 -49.490  10.483  1.00  0.00    -0.338 N 
HETATM    2  C   UNL     1     -41.615 -48.555  10.584  1.00  0.00     0.321 C 
HETATM    3  O   UNL     1     -41.898 -48.024  11.644  1.00  0.00    -0.247 OA
HETATM    4  N   UNL     1     -42.250 -48.344   9.373  1.00  0.00    -0.309 N 
HETATM    5  H   UNL     1     -40.143 -49.519   9.587  1.00  0.00     0.164 HD
HETATM    6  H   UNL     1     -42.150 -49.085   8.694  1.00  0.00     0.170 HD
ENDROOT
BRANCH   1   7
HETATM    7  C   UNL     1     -39.760 -49.795  11.652  1.00  0.00     0.090 C 
HETATM    8  C   UNL     1     -39.049 -48.511  12.088  1.00  0.00     0.061 C 
HETATM    9  C   UNL     1     -38.896 -48.291  13.597  1.00  0.00     0.225 C 
HETATM   10  N   UNL     1     -40.134 -48.688  14.271  1.00  0.00     0.093 N 
HETATM   11  C   UNL     1     -37.633 -48.929  14.193  1.00  0.00     0.036 C 
HETATM   12  C   UNL     1     -40.211 -48.200  15.645  1.00  0.00     0.310 C 
HETATM   13  C   UNL     1     -40.298 -50.141  14.178  1.00  0.00     0.225 C 
HETATM   14  C   UNL     1     -39.145 -50.944  14.799  1.00  0.00     0.036 C 
HETATM   15  C   UNL     1     -40.600 -50.508  12.722  1.00  0.00     0.061 C 
HETATM   16  C   UNL     1     -37.737 -50.400  14.574  1.00  0.00     0.004 C 
ENDBRANCH   1   7
BRANCH   4  17
HETATM   17  C   UNL     1     -43.310 -47.425   9.180  1.00  0.00     0.039 A 
HETATM   18  C   UNL     1     -43.093 -46.053   9.101  1.00  0.00     0.046 A 
HETATM   19  C   UNL     1     -44.185 -45.214   9.020  1.00  0.00     0.090 A 
HETATM   20  N   UNL     1     -45.460 -45.647   8.997  1.00  0.00    -0.369 N 
HETATM   21  C   UNL     1     -45.663 -46.983   9.041  1.00  0.00     0.007 A 
ATOM     22  HN  UNL     1     -46.242 -44.993   8.948  1.00  0.00     0.165 HD
HETATM   23  C   UNL     1     -47.090 -47.440   9.071  1.00  0.00     0.068 C 
HETATM   24  C   UNL     1     -44.617 -47.904   9.096  1.00  0.00     0.054 A 
ENDBRANCH   4  17
TORSDOF 2
ENDMDL
MODEL 2
REMARK VINA RESULT:      -6.8      3.760      6.667
REMARK  2 active torsions:
REMARK  status: ('A' for Active; 'I' for Inactive)
REMARK    1  A    between atoms: C_9  and  N_11 
REMARK       I    between atoms: N_11  and  C_12 
REMARK       I    between atoms: C_12  and  N_14 
REMARK    2  A    between atoms: N_14  and  C_15 
ROOT
HETATM    1  N   UNL     1     -42.017 -49.676  11.640  1.00  0.00    -0.338 N 
HETATM    2  C   UNL     1     -42.669 -50.545  12.484  1.00  0.00     0.321 C 
HETATM    3  O   UNL     1     -43.274 -50.156  13.468  1.00  0.00    -0.247 OA
HETATM    4  N   UNL     1     -42.511 -51.863  12.094  1.00  0.00    -0.309 N 
HETATM    5  H   UNL     1     -41.964 -49.977  10.676  1.00  0.00     0.164 HD
HETATM    6  H   UNL     1     -41.721 -52.047  11.493  1.00  0.00     0.170 HD
ENDROOT
BRANCH   1   7
HETATM    7  C   UNL     1     -42.133 -48.217  11.842  1.00  0.00     0.090 C 
HETATM    8  C   UNL     1     -40.888 -47.725  12.583  1.00  0.00     0.061 C 
HETATM    9  C   UNL     1     -40.324 -46.367  12.150  1.00  0.00     0.225 C 
HETATM   10  N   UNL     1     -40.374 -46.267  10.689  1.00  0.00     0.093 N 
HETATM   11  C   UNL     1     -40.957 -45.171  12.875  1.00  0.00     0.036 C 
HETATM   12  C   UNL     1     -39.556 -45.176  10.169  1.00  0.00     0.310 C 
HETATM   13  C   UNL     1     -41.770 -46.184  10.251  1.00  0.00     0.225 C 
HETATM   14  C   UNL     1     -42.540 -44.989  10.832  1.00  0.00     0.036 C 
HETATM   15  C   UNL     1     -42.442 -47.539  10.498  1.00  0.00     0.061 C 
HETATM   16  C   UNL     1     -42.262 -44.643  12.291  1.00  0.00     0.004 C 
ENDBRANCH   1   7
BRANCH   4  17
HETATM   17  C   UNL     1     -43.085 -52.967  12.769  1.00  0.00     0.039 A 
HETATM   18  C   UNL     1     -44.380 -53.402  12.505  1.00  0.00     0.046 A 
HETATM   19  C   UNL     1     -44.908 -54.416  13.279  1.00  0.00     0.090 A 
HETATM   20  N   UNL     1     -44.235 -55.025  14.273  1.00  0.00    -0.369 N 
HETATM   21  C   UNL     1     -42.966 -54.620  14.503  1.00  0.00     0.007 A 
ATOM     22  HN  UNL     1     -44.665 -55.763  14.831  1.00  0.00     0.165 HD
HETATM   23  C   UNL     1     -42.255 -55.272  15.650  1.00  0.00     0.068 C 
HETATM   24  C   UNL     1     -42.344 -53.622  13.752  1.00  0.00     0.054 A 
ENDBRANCH   4  17
TORSDOF 2
ENDMDL
MODEL 3
REMARK VINA RESULT:      -6.7      1.859      2.890
REMARK  2 active torsions:
REMARK  status: ('A' for Active; 'I' for Inactive)
REMARK    1  A    between atoms: C_9  and  N_11 
REMARK       I    between atoms: N_11  and  C_12 
REMARK       I    between atoms: C_12  and  N_14 
REMARK    2  A    between atoms: N_14  and  C_15 
ROOT
HETATM    1  N   UNL     1     -41.330 -49.981  11.680  1.00  0.00    -0.338 N 
HETATM    2  C   UNL     1     -42.267 -48.986  11.518  1.00  0.00     0.321 C 
HETATM    3  O   UNL     1     -42.969 -48.604  12.438  1.00  0.00    -0.247 OA
HETATM    4  N   UNL     1     -42.320 -48.533  10.211  1.00  0.00    -0.309 N 
HETATM    5  H   UNL     1     -40.525 -49.911  11.073  1.00  0.00     0.164 HD
HETATM    6  H   UNL     1     -41.949 -49.165   9.516  1.00  0.00     0.170 HD
ENDROOT
BRANCH   1   7
HETATM    7  C   UNL     1     -41.066 -50.539  13.023  1.00  0.00     0.090 C 
HETATM    8  C   UNL     1     -41.947 -51.775  13.221  1.00  0.00     0.061 C 
HETATM    9  C   UNL     1     -41.315 -52.955  13.968  1.00  0.00     0.225 C 
HETATM   10  N   UNL     1     -39.932 -53.126  13.517  1.00  0.00     0.093 N 
HETATM   11  C   UNL     1     -41.464 -52.877  15.493  1.00  0.00     0.036 C 
HETATM   12  C   UNL     1     -39.365 -54.414  13.907  1.00  0.00     0.310 C 
HETATM   13  C   UNL     1     -39.123 -51.992  13.974  1.00  0.00     0.225 C 
HETATM   14  C   UNL     1     -39.103 -51.810  15.499  1.00  0.00     0.036 C 
HETATM   15  C   UNL     1     -39.554 -50.741  13.203  1.00  0.00     0.061 C 
HETATM   16  C   UNL     1     -40.420 -52.049  16.232  1.00  0.00     0.004 C 
ENDBRANCH   1   7
BRANCH   4  17
HETATM   17  C   UNL     1     -43.181 -47.504   9.760  1.00  0.00     0.039 A 
HETATM   18  C   UNL     1     -42.742 -46.195   9.589  1.00  0.00     0.046 A 
HETATM   19  C   UNL     1     -43.665 -45.226   9.250  1.00  0.00     0.090 A 
HETATM   20  N   UNL     1     -44.974 -45.476   9.058  1.00  0.00    -0.369 N 
HETATM   21  C   UNL     1     -45.389 -46.755   9.195  1.00  0.00     0.007 A 
ATOM     22  HN  UNL     1     -45.627 -44.729   8.820  1.00  0.00     0.165 HD
HETATM   23  C   UNL     1     -46.858 -47.001   9.033  1.00  0.00     0.068 C 
HETATM   24  C   UNL     1     -44.520 -47.801   9.508  1.00  0.00     0.054 A 
ENDBRANCH   4  17
TORSDOF 2
ENDMDL
MODEL 4
REMARK VINA RESULT:      -6.7      2.656      3.955
REMARK  2 active torsions:
REMARK  status: ('A' for Active; 'I' for Inactive)
REMARK    1  A    between atoms: C_9  and  N_11 
REMARK       I    between atoms: N_11  and  C_12 
REMARK       I    between atoms: C_12  and  N_14 
REMARK    2  A    between atoms: N_14  and  C_15 
ROOT
HETATM    1  N   UNL     1     -41.785 -50.548  11.808  1.00  0.00    -0.338 N 
HETATM    2  C   UNL     1     -42.505 -49.377  11.752  1.00  0.00     0.321 C 
HETATM    3  O   UNL     1     -43.306 -49.069  12.618  1.00  0.00    -0.247 OA
HETATM    4  N   UNL     1     -42.229 -48.653  10.605  1.00  0.00    -0.309 N 
HETATM    5  H   UNL     1     -40.875 -50.510  11.369  1.00  0.00     0.164 HD
HETATM    6  H   UNL     1     -41.831 -49.182   9.842  1.00  0.00     0.170 HD
ENDROOT
BRANCH   1   7
HETATM    7  C   UNL     1     -41.880 -51.421  12.996  1.00  0.00     0.090 C 
HETATM    8  C   UNL     1     -42.135 -52.856  12.528  1.00  0.00     0.061 C 
HETATM    9  C   UNL     1     -41.422 -53.968  13.308  1.00  0.00     0.225 C 
HETATM   10  N   UNL     1     -40.052 -53.544  13.607  1.00  0.00     0.093 N 
HETATM   11  C   UNL     1     -42.200 -54.464  14.534  1.00  0.00     0.036 C 
HETATM   12  C   UNL     1     -39.200 -54.650  14.034  1.00  0.00     0.310 C 
HETATM   13  C   UNL     1     -40.079 -52.446  14.576  1.00  0.00     0.225 C 
HETATM   14  C   UNL     1     -40.765 -52.798  15.905  1.00  0.00     0.036 C 
HETATM   15  C   UNL     1     -40.651 -51.201  13.891  1.00  0.00     0.061 C 
HETATM   16  C   UNL     1     -42.020 -53.661  15.817  1.00  0.00     0.004 C 
ENDBRANCH   1   7
BRANCH   4  17
HETATM   17  C   UNL     1     -42.814 -47.402  10.294  1.00  0.00     0.039 A 
HETATM   18  C   UNL     1     -43.780 -47.264   9.302  1.00  0.00     0.046 A 
HETATM   19  C   UNL     1     -44.225 -45.997   8.983  1.00  0.00     0.090 A 
HETATM   20  N   UNL     1     -43.788 -44.877   9.589  1.00  0.00    -0.369 N 
HETATM   21  C   UNL     1     -42.873 -45.020  10.574  1.00  0.00     0.007 A 
ATOM     22  HN  UNL     1     -44.133 -43.957   9.315  1.00  0.00     0.165 HD
HETATM   23  C   UNL     1     -42.359 -43.757  11.195  1.00  0.00     0.068 C 
HETATM   24  C   UNL     1     -42.389 -46.264  10.980  1.00  0.00     0.054 A 
ENDBRANCH   4  17
TORSDOF 2
ENDMDL
MODEL 5
REMARK VINA RESULT:      -6.5      4.603      6.039
REMARK  2 active torsions:
REMARK  status: ('A' for Active; 'I' for Inactive)
REMARK    1  A    between atoms: C_9  and  N_11 
REMARK       I    between atoms: N_11  and  C_12 
REMARK       I    between atoms: C_12  and  N_14 
REMARK    2  A    between atoms: N_14  and  C_15 
ROOT
HETATM    1  N   UNL     1     -43.240 -49.102  12.394  1.00  0.00    -0.338 N 
HETATM    2  C   UNL     1     -43.813 -50.005  13.260  1.00  0.00     0.321 C 
HETATM    3  O   UNL     1     -43.482 -50.077  14.430  1.00  0.00    -0.247 OA
HETATM    4  N   UNL     1     -44.747 -50.808  12.628  1.00  0.00    -0.309 N 
HETATM    5  H   UNL     1     -43.844 -48.786  11.647  1.00  0.00     0.164 HD
HETATM    6  H   UNL     1     -44.658 -50.871  11.623  1.00  0.00     0.170 HD
ENDROOT
BRANCH   1   7
HETATM    7  C   UNL     1     -42.277 -48.101  12.897  1.00  0.00     0.090 C 
HETATM    8  C   UNL     1     -40.873 -48.499  12.435  1.00  0.00     0.061 C 
HETATM    9  C   UNL     1     -39.941 -47.358  12.013  1.00  0.00     0.225 C 
HETATM   10  N   UNL     1     -40.700 -46.379  11.232  1.00  0.00     0.093 N 
HETATM   11  C   UNL     1     -39.145 -46.743  13.173  1.00  0.00     0.036 C 
HETATM   12  C   UNL     1     -39.842 -45.448  10.505  1.00  0.00     0.310 C 
HETATM   13  C   UNL     1     -41.661 -45.696  12.103  1.00  0.00     0.225 C 
HETATM   14  C   UNL     1     -41.020 -44.960  13.289  1.00  0.00     0.036 C 
HETATM   15  C   UNL     1     -42.752 -46.693  12.505  1.00  0.00     0.061 C 
HETATM   16  C   UNL     1     -39.854 -45.661  13.978  1.00  0.00     0.004 C 
ENDBRANCH   1   7
BRANCH   4  17
HETATM   17  C   UNL     1     -45.502 -51.814  13.278  1.00  0.00     0.039 A 
HETATM   18  C   UNL     1     -46.560 -51.510  14.129  1.00  0.00     0.046 A 
HETATM   19  C   UNL     1     -47.179 -52.539  14.809  1.00  0.00     0.090 A 
HETATM   20  N   UNL     1     -46.827 -53.833  14.687  1.00  0.00    -0.369 N 
HETATM   21  C   UNL     1     -45.820 -54.125  13.834  1.00  0.00     0.007 A 
ATOM     22  HN  UNL     1     -47.302 -54.564  15.217  1.00  0.00     0.165 HD
HETATM   23  C   UNL     1     -45.408 -55.564  13.757  1.00  0.00     0.068 C 
HETATM   24  C   UNL     1     -45.158 -53.152  13.086  1.00  0.00     0.054 A 
ENDBRANCH   4  17
TORSDOF 2
ENDMDL
MODEL 6
REMARK VINA RESULT:      -6.5      3.648      6.329
REMARK  2 active torsions:
REMARK  status: ('A' for Active; 'I' for Inactive)
REMARK    1  A    between atoms: C_9  and  N_11 
REMARK       I    between atoms: N_11  and  C_12 
REMARK       I    between atoms: C_12  and  N_14 
REMARK    2  A    between atoms: N_14  and  C_15 
ROOT
HETATM    1  N   UNL     1     -40.794 -50.753  11.188  1.00  0.00    -0.338 N 
HETATM    2  C   UNL     1     -41.673 -51.281  12.106  1.00  0.00     0.321 C 
HETATM    3  O   UNL     1     -42.180 -50.599  12.980  1.00  0.00    -0.247 OA
HETATM    4  N   UNL     1     -41.858 -52.641  11.924  1.00  0.00    -0.309 N 
HETATM    5  H   UNL     1     -40.798 -51.208  10.284  1.00  0.00     0.164 HD
HETATM    6  H   UNL     1     -41.128 -53.114  11.410  1.00  0.00     0.170 HD
ENDROOT
BRANCH   1   7
HETATM    7  C   UNL     1     -40.528 -49.300  11.166  1.00  0.00     0.090 C 
HETATM    8  C   UNL     1     -41.741 -48.590  10.559  1.00  0.00     0.061 C 
HETATM    9  C   UNL     1     -42.136 -47.250  11.190  1.00  0.00     0.225 C 
HETATM   10  N   UNL     1     -42.019 -47.349  12.647  1.00  0.00     0.093 N 
HETATM   11  C   UNL     1     -41.406 -46.040  10.590  1.00  0.00     0.036 C 
HETATM   12  C   UNL     1     -42.693 -46.257  13.343  1.00  0.00     0.310 C 
HETATM   13  C   UNL     1     -40.607 -47.468  13.018  1.00  0.00     0.225 C 
HETATM   14  C   UNL     1     -39.734 -46.292  12.554  1.00  0.00     0.036 C 
HETATM   15  C   UNL     1     -40.096 -48.840  12.567  1.00  0.00     0.061 C 
HETATM   16  C   UNL     1     -40.030 -45.730  11.167  1.00  0.00     0.004 C 
ENDBRANCH   1   7
BRANCH   4  17
HETATM   17  C   UNL     1     -42.719 -53.439  12.715  1.00  0.00     0.039 A 
HETATM   18  C   UNL     1     -44.084 -53.525  12.463  1.00  0.00     0.046 A 
HETATM   19  C   UNL     1     -44.876 -54.238  13.342  1.00  0.00     0.090 A 
HETATM   20  N   UNL     1     -44.400 -54.874  14.429  1.00  0.00    -0.369 N 
HETATM   21  C   UNL     1     -43.067 -54.813  14.650  1.00  0.00     0.007 A 
ATOM     22  HN  UNL     1     -45.019 -55.381  15.061  1.00  0.00     0.165 HD
HETATM   23  C   UNL     1     -42.567 -55.480  15.895  1.00  0.00     0.068 C 
HETATM   24  C   UNL     1     -42.190 -54.139  13.799  1.00  0.00     0.054 A 
ENDBRANCH   4  17
TORSDOF 2
ENDMDL
MODEL 7
REMARK VINA RESULT:      -6.4      3.080      4.148
REMARK  2 active torsions:
REMARK  status: ('A' for Active; 'I' for Inactive)
REMARK    1  A    between atoms: C_9  and  N_11 
REMARK       I    between atoms: N_11  and  C_12 
REMARK       I    between atoms: C_12  and  N_14 
REMARK    2  A    between atoms: N_14  and  C_15 
ROOT
HETATM    1  N   UNL     1     -41.072 -51.676  11.553  1.00  0.00    -0.338 N 
HETATM    2  C   UNL     1     -41.531 -50.384  11.661  1.00  0.00     0.321 C 
HETATM    3  O   UNL     1     -42.341 -50.055  12.509  1.00  0.00    -0.247 OA
HETATM    4  N   UNL     1     -40.993 -49.560  10.686  1.00  0.00    -0.309 N 
HETATM    5  H   UNL     1     -40.131 -51.766  11.193  1.00  0.00     0.164 HD
HETATM    6  H   UNL     1     -40.631 -50.032   9.869  1.00  0.00     0.170 HD
ENDROOT
BRANCH   1   7
HETATM    7  C   UNL     1     -41.468 -52.690  12.553  1.00  0.00     0.090 C 
HETATM    8  C   UNL     1     -40.864 -52.303  13.906  1.00  0.00     0.061 C 
HETATM    9  C   UNL     1     -41.739 -52.547  15.141  1.00  0.00     0.225 C 
HETATM   10  N   UNL     1     -43.120 -52.165  14.837  1.00  0.00     0.093 N 
HETATM   11  C   UNL     1     -41.602 -53.957  15.732  1.00  0.00     0.036 C 
HETATM   12  C   UNL     1     -43.947 -52.034  16.034  1.00  0.00     0.310 C 
HETATM   13  C   UNL     1     -43.684 -53.100  13.861  1.00  0.00     0.225 C 
HETATM   14  C   UNL     1     -43.692 -54.564  14.325  1.00  0.00     0.036 C 
HETATM   15  C   UNL     1     -42.992 -52.878  12.513  1.00  0.00     0.061 C 
HETATM   16  C   UNL     1     -42.465 -55.041  15.097  1.00  0.00     0.004 C 
ENDBRANCH   1   7
BRANCH   4  17
HETATM   17  C   UNL     1     -41.277 -48.179  10.567  1.00  0.00     0.039 A 
HETATM   18  C   UNL     1     -40.513 -47.209  11.207  1.00  0.00     0.046 A 
HETATM   19  C   UNL     1     -40.915 -45.891  11.131  1.00  0.00     0.090 A 
HETATM   20  N   UNL     1     -42.005 -45.481  10.455  1.00  0.00    -0.369 N 
HETATM   21  C   UNL     1     -42.726 -46.424   9.808  1.00  0.00     0.007 A 
ATOM     22  HN  UNL     1     -42.276 -44.498  10.432  1.00  0.00     0.165 HD
HETATM   23  C   UNL     1     -43.965 -45.953   9.110  1.00  0.00     0.068 C 
HETATM   24  C   UNL     1     -42.376 -47.775   9.809  1.00  0.00     0.054 A 
ENDBRANCH   4  17
TORSDOF 2
ENDMDL
MODEL 8
REMARK VINA RESULT:      -6.2      3.579      6.292
REMARK  2 active torsions:
REMARK  status: ('A' for Active; 'I' for Inactive)
REMARK    1  A    between atoms: C_9  and  N_11 
REMARK       I    between atoms: N_11  and  C_12 
REMARK       I    between atoms: C_12  and  N_14 
REMARK    2  A    between atoms: N_14  and  C_15 
ROOT
HETATM    1  N   UNL     1     -41.571 -48.294  11.529  1.00  0.00    -0.338 N 
HETATM    2  C   UNL     1     -41.433 -49.417  12.312  1.00  0.00     0.321 C 
HETATM    3  O   UNL     1     -40.881 -49.383  13.399  1.00  0.00    -0.247 OA
HETATM    4  N   UNL     1     -41.952 -50.543  11.699  1.00  0.00    -0.309 N 
HETATM    5  H   UNL     1     -42.388 -48.287  10.934  1.00  0.00     0.164 HD
HETATM    6  H   UNL     1     -42.049 -50.486  10.695  1.00  0.00     0.170 HD
ENDROOT
BRANCH   1   7
HETATM    7  C   UNL     1     -41.150 -46.974  12.044  1.00  0.00     0.090 C 
HETATM    8  C   UNL     1     -40.610 -46.143  10.878  1.00  0.00     0.061 C 
HETATM    9  C   UNL     1     -40.955 -44.649  10.883  1.00  0.00     0.225 C 
HETATM   10  N   UNL     1     -42.349 -44.478  11.300  1.00  0.00     0.093 N 
HETATM   11  C   UNL     1     -39.961 -43.784  11.670  1.00  0.00     0.036 C 
HETATM   12  C   UNL     1     -42.866 -43.144  11.008  1.00  0.00     0.310 C 
HETATM   13  C   UNL     1     -42.485 -44.838  12.714  1.00  0.00     0.225 C 
HETATM   14  C   UNL     1     -41.604 -44.010  13.661  1.00  0.00     0.036 C 
HETATM   15  C   UNL     1     -42.299 -46.352  12.853  1.00  0.00     0.061 C 
HETATM   16  C   UNL     1     -40.195 -43.686  13.172  1.00  0.00     0.004 C 
ENDBRANCH   1   7
BRANCH   4  17
HETATM   17  C   UNL     1     -41.961 -51.834  12.280  1.00  0.00     0.039 A 
HETATM   18  C   UNL     1     -40.805 -52.598  12.399  1.00  0.00     0.046 A 
HETATM   19  C   UNL     1     -40.910 -53.888  12.878  1.00  0.00     0.090 A 
HETATM   20  N   UNL     1     -42.073 -54.452  13.256  1.00  0.00    -0.369 N 
HETATM   21  C   UNL     1     -43.188 -53.693  13.170  1.00  0.00     0.007 A 
ATOM     22  HN  UNL     1     -42.111 -55.413  13.595  1.00  0.00     0.165 HD
HETATM   23  C   UNL     1     -44.478 -54.358  13.542  1.00  0.00     0.068 C 
HETATM   24  C   UNL     1     -43.169 -52.371  12.723  1.00  0.00     0.054 A 
ENDBRANCH   4  17
TORSDOF 2
ENDMDL
MODEL 9
REMARK VINA RESULT:      -6.1      3.986      5.277
REMARK  2 active torsions:
REMARK  status: ('A' for Active; 'I' for Inactive)
REMARK    1  A    between atoms: C_9  and  N_11 
REMARK       I    between atoms: N_11  and  C_12 
REMARK       I    between atoms: C_12  and  N_14 
REMARK    2  A    between atoms: N_14  and  C_15 
ROOT
HETATM    1  N   UNL     1     -43.185 -49.977  12.521  1.00  0.00    -0.338 N 
HETATM    2  C   UNL     1     -42.447 -48.828  12.696  1.00  0.00     0.321 C 
HETATM    3  O   UNL     1     -41.667 -48.698  13.624  1.00  0.00    -0.247 OA
HETATM    4  N   UNL     1     -42.736 -47.875  11.735  1.00  0.00    -0.309 N 
HETATM    5  H   UNL     1     -43.413 -50.194  11.560  1.00  0.00     0.164 HD
HETATM    6  H   UNL     1     -43.624 -47.984  11.267  1.00  0.00     0.170 HD
ENDROOT
BRANCH   1   7
HETATM    7  C   UNL     1     -42.961 -51.144  13.399  1.00  0.00     0.090 C 
HETATM    8  C   UNL     1     -44.141 -51.261  14.367  1.00  0.00     0.061 C 
HETATM    9  C   UNL     1     -44.626 -52.680  14.687  1.00  0.00     0.225 C 
HETATM   10  N   UNL     1     -44.624 -53.479  13.459  1.00  0.00     0.093 N 
HETATM   11  C   UNL     1     -43.885 -53.340  15.858  1.00  0.00     0.036 C 
HETATM   12  C   UNL     1     -45.385 -54.718  13.591  1.00  0.00     0.310 C 
HETATM   13  C   UNL     1     -43.244 -53.707  13.025  1.00  0.00     0.225 C 
HETATM   14  C   UNL     1     -42.371 -54.433  14.061  1.00  0.00     0.036 C 
HETATM   15  C   UNL     1     -42.657 -52.379  12.537  1.00  0.00     0.061 C 
HETATM   16  C   UNL     1     -42.570 -54.032  15.520  1.00  0.00     0.004 C 
ENDBRANCH   1   7
BRANCH   4  17
HETATM   17  C   UNL     1     -42.115 -46.605  11.663  1.00  0.00     0.039 A 
HETATM   18  C   UNL     1     -42.612 -45.500  12.347  1.00  0.00     0.046 A 
HETATM   19  C   UNL     1     -42.016 -44.272  12.143  1.00  0.00     0.090 A 
HETATM   20  N   UNL     1     -40.963 -44.079  11.325  1.00  0.00    -0.369 N 
HETATM   21  C   UNL     1     -40.465 -45.162  10.688  1.00  0.00     0.007 A 
ATOM     22  HN  UNL     1     -40.558 -43.153  11.192  1.00  0.00     0.165 HD
HETATM   23  C   UNL     1     -39.331 -44.916   9.741  1.00  0.00     0.068 C 
HETATM   24  C   UNL     1     -40.987 -46.445  10.858  1.00  0.00     0.054 A 
ENDBRANCH   4  17
TORSDOF 2
ENDMDL
