MODEL 1
REMARK VINA RESULT:      -5.8      0.000      0.000
REMARK  7 active torsions:
REMARK  status: ('A' for Active; 'I' for Inactive)
REMARK    1  A    between atoms: C_2  and  C_3 
REMARK       I    between atoms: C_2  and  N_13 
REMARK    2  A    between atoms: C_3  and  C_4 
REMARK    3  A    between atoms: C_4  and  S_5 
REMARK    4  A    between atoms: S_5  and  C_8 
REMARK    5  A    between atoms: N_13  and  C_14 
REMARK    6  A    between atoms: C_14  and  C_15 
REMARK    7  A    between atoms: C_15  and  C_16 
ROOT
HETATM    1  O   UNL     1     -44.489 -50.463  14.618  1.00  0.00    -0.274 OA
HETATM    2  C   UNL     1     -44.559 -51.151  13.605  1.00  0.00     0.218 C 
HETATM    3  N   UNL     1     -43.554 -51.250  12.668  1.00  0.00    -0.361 N 
HETATM    4  H   UNL     1     -43.797 -51.658  11.772  1.00  0.00     0.162 HD
ENDROOT
BRANCH   2   5
HETATM    5  C   UNL     1     -45.766 -52.001  13.295  1.00  0.00     0.117 C 
BRANCH   5   6
HETATM    6  C   UNL     1     -45.860 -53.152  14.287  1.00  0.00     0.150 C 
BRANCH   6   7
HETATM    7  S   UNL     1     -45.010 -54.585  13.666  1.00  0.00     0.149 S 
HETATM    8  O   UNL     1     -45.878 -55.727  13.885  1.00  0.00    -0.227 OA
HETATM    9  O   UNL     1     -44.533 -54.271  12.333  1.00  0.00    -0.227 OA
BRANCH   7  10
HETATM   10  C   UNL     1     -43.604 -54.773  14.745  1.00  0.00     0.108 C 
HETATM   11  C   UNL     1     -43.596 -53.833  15.950  1.00  0.00     0.020 C 
HETATM   12  C   UNL     1     -42.136 -53.425  16.163  1.00  0.00     0.001 C 
HETATM   13  C   UNL     1     -41.320 -54.220  15.153  1.00  0.00     0.001 C 
HETATM   14  C   UNL     1     -42.294 -54.484  14.020  1.00  0.00     0.020 C 
ENDBRANCH   7  10
ENDBRANCH   6   7
ENDBRANCH   5   6
ENDBRANCH   2   5
BRANCH   3  15
HETATM   15  C   UNL     1     -42.356 -50.420  12.701  1.00  0.00     0.127 C 
BRANCH  15  16
HETATM   16  C   UNL     1     -41.152 -51.071  13.391  1.00  0.00     0.059 C 
BRANCH  16  17
HETATM   17  C   UNL     1     -39.846 -50.744  12.722  1.00  0.00    -0.041 A 
HETATM   18  C   UNL     1     -38.626 -51.118  13.289  1.00  0.00     0.010 A 
HETATM   19  C   UNL     1     -37.438 -50.836  12.621  1.00  0.00     0.018 A 
HETATM   20  C   UNL     1     -37.512 -50.175  11.408  1.00  0.00     0.087 A 
HETATM   21  N   UNL     1     -38.670 -49.780  10.836  1.00  0.00    -0.375 N 
HETATM   22  C   UNL     1     -39.808 -50.076  11.502  1.00  0.00     0.094 A 
ATOM     23  HN  UNL     1     -38.685 -49.283   9.945  1.00  0.00     0.164 HD
ENDBRANCH  16  17
ENDBRANCH  15  16
ENDBRANCH   3  15
TORSDOF 7
ENDMDL
MODEL 2
REMARK VINA RESULT:      -5.6      2.089      3.911
REMARK  7 active torsions:
REMARK  status: ('A' for Active; 'I' for Inactive)
REMARK    1  A    between atoms: C_2  and  C_3 
REMARK       I    between atoms: C_2  and  N_13 
REMARK    2  A    between atoms: C_3  and  C_4 
REMARK    3  A    between atoms: C_4  and  S_5 
REMARK    4  A    between atoms: S_5  and  C_8 
REMARK    5  A    between atoms: N_13  and  C_14 
REMARK    6  A    between atoms: C_14  and  C_15 
REMARK    7  A    between atoms: C_15  and  C_16 
ROOT
HETATM    1  O   UNL     1     -41.664 -52.419  11.645  1.00  0.00    -0.274 OA
HETATM    2  C   UNL     1     -41.591 -52.744  12.825  1.00  0.00     0.218 C 
HETATM    3  N   UNL     1     -41.145 -51.912  13.829  1.00  0.00    -0.361 N 
HETATM    4  H   UNL     1     -40.914 -52.342  14.717  1.00  0.00     0.162 HD
ENDROOT
BRANCH   2   5
HETATM    5  C   UNL     1     -42.023 -54.105  13.311  1.00  0.00     0.117 C 
BRANCH   5   6
HETATM    6  C   UNL     1     -43.094 -53.960  14.384  1.00  0.00     0.150 C 
BRANCH   6   7
HETATM    7  S   UNL     1     -44.713 -54.197  13.689  1.00  0.00     0.149 S 
HETATM    8  O   UNL     1     -44.549 -54.313  12.251  1.00  0.00    -0.227 OA
HETATM    9  O   UNL     1     -45.366 -55.251  14.441  1.00  0.00    -0.227 OA
BRANCH   7  10
HETATM   10  C   UNL     1     -45.563 -52.662  14.003  1.00  0.00     0.108 C 
HETATM   11  C   UNL     1     -44.728 -51.609  14.728  1.00  0.00     0.020 C 
HETATM   12  C   UNL     1     -45.682 -50.897  15.692  1.00  0.00     0.001 C 
HETATM   13  C   UNL     1     -47.065 -51.474  15.425  1.00  0.00     0.001 C 
HETATM   14  C   UNL     1     -46.786 -52.867  14.891  1.00  0.00     0.020 C 
ENDBRANCH   7  10
ENDBRANCH   6   7
ENDBRANCH   5   6
ENDBRANCH   2   5
BRANCH   3  15
HETATM   15  C   UNL     1     -40.560 -50.602  13.570  1.00  0.00     0.127 C 
BRANCH  15  16
HETATM   16  C   UNL     1     -41.545 -49.433  13.687  1.00  0.00     0.059 C 
BRANCH  16  17
HETATM   17  C   UNL     1     -41.956 -48.876  12.353  1.00  0.00    -0.041 A 
HETATM   18  C   UNL     1     -43.157 -48.180  12.195  1.00  0.00     0.010 A 
HETATM   19  C   UNL     1     -43.485 -47.643  10.954  1.00  0.00     0.018 A 
HETATM   20  C   UNL     1     -42.602 -47.832   9.905  1.00  0.00     0.087 A 
HETATM   21  N   UNL     1     -41.442 -48.514  10.014  1.00  0.00    -0.375 N 
HETATM   22  C   UNL     1     -41.143 -49.016  11.232  1.00  0.00     0.094 A 
ATOM     23  HN  UNL     1     -40.821 -48.645   9.214  1.00  0.00     0.164 HD
ENDBRANCH  16  17
ENDBRANCH  15  16
ENDBRANCH   3  15
TORSDOF 7
ENDMDL
MODEL 3
REMARK VINA RESULT:      -5.5      2.771      3.985
REMARK  7 active torsions:
REMARK  status: ('A' for Active; 'I' for Inactive)
REMARK    1  A    between atoms: C_2  and  C_3 
REMARK       I    between atoms: C_2  and  N_13 
REMARK    2  A    between atoms: C_3  and  C_4 
REMARK    3  A    between atoms: C_4  and  S_5 
REMARK    4  A    between atoms: S_5  and  C_8 
REMARK    5  A    between atoms: N_13  and  C_14 
REMARK    6  A    between atoms: C_14  and  C_15 
REMARK    7  A    between atoms: C_15  and  C_16 
ROOT
HETATM    1  O   UNL     1     -40.273 -52.578  12.550  1.00  0.00    -0.274 OA
HETATM    2  C   UNL     1     -41.318 -52.108  12.113  1.00  0.00     0.218 C 
HETATM    3  N   UNL     1     -41.412 -50.887  11.483  1.00  0.00    -0.361 N 
HETATM    4  H   UNL     1     -42.341 -50.498  11.364  1.00  0.00     0.162 HD
ENDROOT
BRANCH   2   5
HETATM    5  C   UNL     1     -42.627 -52.853  12.194  1.00  0.00     0.117 C 
BRANCH   5   6
HETATM    6  C   UNL     1     -42.620 -53.788  13.397  1.00  0.00     0.150 C 
BRANCH   6   7
HETATM    7  S   UNL     1     -44.273 -54.309  13.794  1.00  0.00     0.149 S 
HETATM    8  O   UNL     1     -44.970 -54.516  12.537  1.00  0.00    -0.227 OA
HETATM    9  O   UNL     1     -44.175 -55.382  14.764  1.00  0.00    -0.227 OA
BRANCH   7  10
HETATM   10  C   UNL     1     -45.011 -52.892  14.582  1.00  0.00     0.108 C 
HETATM   11  C   UNL     1     -45.878 -53.219  15.797  1.00  0.00     0.020 C 
HETATM   12  C   UNL     1     -47.066 -52.253  15.746  1.00  0.00     0.001 C 
HETATM   13  C   UNL     1     -46.804 -51.320  14.573  1.00  0.00     0.001 C 
HETATM   14  C   UNL     1     -45.940 -52.140  13.634  1.00  0.00     0.020 C 
ENDBRANCH   7  10
ENDBRANCH   6   7
ENDBRANCH   5   6
ENDBRANCH   2   5
BRANCH   3  15
HETATM   15  C   UNL     1     -40.300 -49.946  11.409  1.00  0.00     0.127 C 
BRANCH  15  16
HETATM   16  C   UNL     1     -40.347 -48.824  12.452  1.00  0.00     0.059 C 
BRANCH  16  17
HETATM   17  C   UNL     1     -40.429 -47.455  11.837  1.00  0.00    -0.041 A 
HETATM   18  C   UNL     1     -39.731 -46.373  12.379  1.00  0.00     0.010 A 
HETATM   19  C   UNL     1     -39.797 -45.129  11.759  1.00  0.00     0.018 A 
HETATM   20  C   UNL     1     -40.573 -45.007  10.620  1.00  0.00     0.087 A 
HETATM   21  N   UNL     1     -41.278 -46.023  10.077  1.00  0.00    -0.375 N 
HETATM   22  C   UNL     1     -41.187 -47.223  10.694  1.00  0.00     0.094 A 
ATOM     23  HN  UNL     1     -41.850 -45.892   9.243  1.00  0.00     0.164 HD
ENDBRANCH  16  17
ENDBRANCH  15  16
ENDBRANCH   3  15
TORSDOF 7
ENDMDL
MODEL 4
REMARK VINA RESULT:      -5.4      1.770      3.420
REMARK  7 active torsions:
REMARK  status: ('A' for Active; 'I' for Inactive)
REMARK    1  A    between atoms: C_2  and  C_3 
REMARK       I    between atoms: C_2  and  N_13 
REMARK    2  A    between atoms: C_3  and  C_4 
REMARK    3  A    between atoms: C_4  and  S_5 
REMARK    4  A    between atoms: S_5  and  C_8 
REMARK    5  A    between atoms: N_13  and  C_14 
REMARK    6  A    between atoms: C_14  and  C_15 
REMARK    7  A    between atoms: C_15  and  C_16 
ROOT
HETATM    1  O   UNL     1     -40.751 -54.270  15.078  1.00  0.00    -0.274 OA
HETATM    2  C   UNL     1     -41.706 -54.529  14.354  1.00  0.00     0.218 C 
HETATM    3  N   UNL     1     -41.785 -54.179  13.024  1.00  0.00    -0.361 N 
HETATM    4  H   UNL     1     -42.695 -54.239  12.583  1.00  0.00     0.162 HD
ENDROOT
BRANCH   2   5
HETATM    5  C   UNL     1     -42.902 -55.302  14.852  1.00  0.00     0.117 C 
BRANCH   5   6
HETATM    6  C   UNL     1     -44.077 -54.358  15.071  1.00  0.00     0.150 C 
BRANCH   6   7
HETATM    7  S   UNL     1     -45.313 -54.594  13.816  1.00  0.00     0.149 S 
HETATM    8  O   UNL     1     -44.731 -54.168  12.556  1.00  0.00    -0.227 OA
HETATM    9  O   UNL     1     -45.841 -55.937  13.963  1.00  0.00    -0.227 OA
BRANCH   7  10
HETATM   10  C   UNL     1     -46.597 -53.429  14.228  1.00  0.00     0.108 C 
HETATM   11  C   UNL     1     -46.405 -52.034  13.634  1.00  0.00     0.020 C 
HETATM   12  C   UNL     1     -46.884 -51.046  14.702  1.00  0.00     0.001 C 
HETATM   13  C   UNL     1     -47.442 -51.888  15.840  1.00  0.00     0.001 C 
HETATM   14  C   UNL     1     -46.688 -53.200  15.733  1.00  0.00     0.020 C 
ENDBRANCH   7  10
ENDBRANCH   6   7
ENDBRANCH   5   6
ENDBRANCH   2   5
BRANCH   3  15
HETATM   15  C   UNL     1     -40.803 -53.320  12.372  1.00  0.00     0.127 C 
BRANCH  15  16
HETATM   16  C   UNL     1     -41.314 -51.916  12.031  1.00  0.00     0.059 C 
BRANCH  16  17
HETATM   17  C   UNL     1     -40.230 -50.876  12.052  1.00  0.00    -0.041 A 
HETATM   18  C   UNL     1     -39.044 -51.077  12.762  1.00  0.00     0.010 A 
HETATM   19  C   UNL     1     -38.044 -50.110  12.725  1.00  0.00     0.018 A 
HETATM   20  C   UNL     1     -38.272 -48.963  11.985  1.00  0.00     0.087 A 
HETATM   21  N   UNL     1     -39.412 -48.723  11.302  1.00  0.00    -0.375 N 
HETATM   22  C   UNL     1     -40.361 -49.684  11.347  1.00  0.00     0.094 A 
ATOM     23  HN  UNL     1     -39.549 -47.859  10.777  1.00  0.00     0.164 HD
ENDBRANCH  16  17
ENDBRANCH  15  16
ENDBRANCH   3  15
TORSDOF 7
ENDMDL
MODEL 5
REMARK VINA RESULT:      -5.4      1.855      3.540
REMARK  7 active torsions:
REMARK  status: ('A' for Active; 'I' for Inactive)
REMARK    1  A    between atoms: C_2  and  C_3 
REMARK       I    between atoms: C_2  and  N_13 
REMARK    2  A    between atoms: C_3  and  C_4 
REMARK    3  A    between atoms: C_4  and  S_5 
REMARK    4  A    between atoms: S_5  and  C_8 
REMARK    5  A    between atoms: N_13  and  C_14 
REMARK    6  A    between atoms: C_14  and  C_15 
REMARK    7  A    between atoms: C_15  and  C_16 
ROOT
HETATM    1  O   UNL     1     -41.436 -52.374  15.047  1.00  0.00    -0.274 OA
HETATM    2  C   UNL     1     -41.059 -52.913  14.012  1.00  0.00     0.218 C 
HETATM    3  N   UNL     1     -39.881 -52.606  13.366  1.00  0.00    -0.361 N 
HETATM    4  H   UNL     1     -39.775 -52.941  12.415  1.00  0.00     0.162 HD
ENDROOT
BRANCH   2   5
HETATM    5  C   UNL     1     -41.849 -54.012  13.347  1.00  0.00     0.117 C 
BRANCH   5   6
HETATM    6  C   UNL     1     -42.851 -54.601  14.331  1.00  0.00     0.150 C 
BRANCH   6   7
HETATM    7  S   UNL     1     -44.508 -54.443  13.707  1.00  0.00     0.149 S 
HETATM    8  O   UNL     1     -44.406 -54.156  12.287  1.00  0.00    -0.227 OA
HETATM    9  O   UNL     1     -45.266 -55.589  14.171  1.00  0.00    -0.227 OA
BRANCH   7  10
HETATM   10  C   UNL     1     -45.146 -52.979  14.498  1.00  0.00     0.108 C 
HETATM   11  C   UNL     1     -46.080 -53.248  15.677  1.00  0.00     0.020 C 
HETATM   12  C   UNL     1     -47.175 -52.180  15.606  1.00  0.00     0.001 C 
HETATM   13  C   UNL     1     -46.792 -51.253  14.460  1.00  0.00     0.001 C 
HETATM   14  C   UNL     1     -45.971 -52.132  13.535  1.00  0.00     0.020 C 
ENDBRANCH   7  10
ENDBRANCH   6   7
ENDBRANCH   5   6
ENDBRANCH   2   5
BRANCH   3  15
HETATM   15  C   UNL     1     -39.029 -51.491  13.760  1.00  0.00     0.127 C 
BRANCH  15  16
HETATM   16  C   UNL     1     -38.410 -50.719  12.589  1.00  0.00     0.059 C 
BRANCH  16  17
HETATM   17  C   UNL     1     -39.318 -49.652  12.045  1.00  0.00    -0.041 A 
HETATM   18  C   UNL     1     -39.177 -48.315  12.427  1.00  0.00     0.010 A 
HETATM   19  C   UNL     1     -40.008 -47.347  11.872  1.00  0.00     0.018 A 
HETATM   20  C   UNL     1     -40.965 -47.754  10.958  1.00  0.00     0.087 A 
HETATM   21  N   UNL     1     -41.145 -49.037  10.579  1.00  0.00    -0.375 N 
HETATM   22  C   UNL     1     -40.317 -49.954  11.126  1.00  0.00     0.094 A 
ATOM     23  HN  UNL     1     -41.870 -49.301   9.912  1.00  0.00     0.164 HD
ENDBRANCH  16  17
ENDBRANCH  15  16
ENDBRANCH   3  15
TORSDOF 7
ENDMDL
MODEL 6
REMARK VINA RESULT:      -5.3      1.956      2.219
REMARK  7 active torsions:
REMARK  status: ('A' for Active; 'I' for Inactive)
REMARK    1  A    between atoms: C_2  and  C_3 
REMARK       I    between atoms: C_2  and  N_13 
REMARK    2  A    between atoms: C_3  and  C_4 
REMARK    3  A    between atoms: C_4  and  S_5 
REMARK    4  A    between atoms: S_5  and  C_8 
REMARK    5  A    between atoms: N_13  and  C_14 
REMARK    6  A    between atoms: C_14  and  C_15 
REMARK    7  A    between atoms: C_15  and  C_16 
ROOT
HETATM    1  O   UNL     1     -44.997 -50.792  15.272  1.00  0.00    -0.274 OA
HETATM    2  C   UNL     1     -45.231 -51.104  14.109  1.00  0.00     0.218 C 
HETATM    3  N   UNL     1     -44.460 -50.716  13.036  1.00  0.00    -0.361 N 
HETATM    4  H   UNL     1     -44.860 -50.837  12.112  1.00  0.00     0.162 HD
ENDROOT
BRANCH   2   5
HETATM    5  C   UNL     1     -46.393 -51.991  13.735  1.00  0.00     0.117 C 
BRANCH   5   6
HETATM    6  C   UNL     1     -46.287 -53.323  14.466  1.00  0.00     0.150 C 
BRANCH   6   7
HETATM    7  S   UNL     1     -45.089 -54.375  13.679  1.00  0.00     0.149 S 
HETATM    8  O   UNL     1     -45.478 -55.746  13.953  1.00  0.00    -0.227 OA
HETATM    9  O   UNL     1     -44.928 -53.916  12.313  1.00  0.00    -0.227 OA
BRANCH   7  10
HETATM   10  C   UNL     1     -43.574 -54.067  14.566  1.00  0.00     0.108 C 
HETATM   11  C   UNL     1     -42.411 -53.595  13.696  1.00  0.00     0.020 C 
HETATM   12  C   UNL     1     -41.154 -54.258  14.266  1.00  0.00     0.001 C 
HETATM   13  C   UNL     1     -41.597 -55.007  15.514  1.00  0.00     0.001 C 
HETATM   14  C   UNL     1     -43.057 -55.327  15.253  1.00  0.00     0.020 C 
ENDBRANCH   7  10
ENDBRANCH   6   7
ENDBRANCH   5   6
ENDBRANCH   2   5
BRANCH   3  15
HETATM   15  C   UNL     1     -43.368 -49.757  13.151  1.00  0.00     0.127 C 
BRANCH  15  16
HETATM   16  C   UNL     1     -42.182 -50.030  12.218  1.00  0.00     0.059 C 
BRANCH  16  17
HETATM   17  C   UNL     1     -41.415 -48.786  11.866  1.00  0.00    -0.041 A 
HETATM   18  C   UNL     1     -40.430 -48.276  12.716  1.00  0.00     0.010 A 
HETATM   19  C   UNL     1     -39.711 -47.146  12.339  1.00  0.00     0.018 A 
HETATM   20  C   UNL     1     -40.012 -46.554  11.124  1.00  0.00     0.087 A 
HETATM   21  N   UNL     1     -40.970 -47.006  10.285  1.00  0.00    -0.375 N 
HETATM   22  C   UNL     1     -41.645 -48.110  10.672  1.00  0.00     0.094 A 
ATOM     23  HN  UNL     1     -41.173 -46.535   9.403  1.00  0.00     0.164 HD
ENDBRANCH  16  17
ENDBRANCH  15  16
ENDBRANCH   3  15
TORSDOF 7
ENDMDL
MODEL 7
REMARK VINA RESULT:      -5.2      2.297      4.200
REMARK  7 active torsions:
REMARK  status: ('A' for Active; 'I' for Inactive)
REMARK    1  A    between atoms: C_2  and  C_3 
REMARK       I    between atoms: C_2  and  N_13 
REMARK    2  A    between atoms: C_3  and  C_4 
REMARK    3  A    between atoms: C_4  and  S_5 
REMARK    4  A    between atoms: S_5  and  C_8 
REMARK    5  A    between atoms: N_13  and  C_14 
REMARK    6  A    between atoms: C_14  and  C_15 
REMARK    7  A    between atoms: C_15  and  C_16 
ROOT
HETATM    1  O   UNL     1     -40.765 -53.997  15.137  1.00  0.00    -0.274 OA
HETATM    2  C   UNL     1     -41.645 -54.393  14.380  1.00  0.00     0.218 C 
HETATM    3  N   UNL     1     -41.691 -54.109  13.032  1.00  0.00    -0.361 N 
HETATM    4  H   UNL     1     -42.564 -54.291  12.551  1.00  0.00     0.162 HD
ENDROOT
BRANCH   2   5
HETATM    5  C   UNL     1     -42.772 -55.277  14.854  1.00  0.00     0.117 C 
BRANCH   5   6
HETATM    6  C   UNL     1     -44.005 -54.435  15.148  1.00  0.00     0.150 C 
BRANCH   6   7
HETATM    7  S   UNL     1     -45.220 -54.634  13.864  1.00  0.00     0.149 S 
HETATM    8  O   UNL     1     -44.629 -54.137  12.635  1.00  0.00    -0.227 OA
HETATM    9  O   UNL     1     -45.722 -55.992  13.939  1.00  0.00    -0.227 OA
BRANCH   7  10
HETATM   10  C   UNL     1     -46.532 -53.515  14.312  1.00  0.00     0.108 C 
HETATM   11  C   UNL     1     -46.529 -52.192  13.549  1.00  0.00     0.020 C 
HETATM   12  C   UNL     1     -46.949 -51.117  14.555  1.00  0.00     0.001 C 
HETATM   13  C   UNL     1     -47.292 -51.852  15.844  1.00  0.00     0.001 C 
HETATM   14  C   UNL     1     -46.453 -53.114  15.782  1.00  0.00     0.020 C 
ENDBRANCH   7  10
ENDBRANCH   6   7
ENDBRANCH   5   6
ENDBRANCH   2   5
BRANCH   3  15
HETATM   15  C   UNL     1     -40.778 -53.171  12.390  1.00  0.00     0.127 C 
BRANCH  15  16
HETATM   16  C   UNL     1     -41.430 -51.859  11.939  1.00  0.00     0.059 C 
BRANCH  16  17
HETATM   17  C   UNL     1     -41.826 -50.977  13.089  1.00  0.00    -0.041 A 
HETATM   18  C   UNL     1     -43.169 -50.720  13.378  1.00  0.00     0.010 A 
HETATM   19  C   UNL     1     -43.501 -49.931  14.476  1.00  0.00     0.018 A 
HETATM   20  C   UNL     1     -42.472 -49.414  15.244  1.00  0.00     0.087 A 
HETATM   21  N   UNL     1     -41.162 -49.623  14.985  1.00  0.00    -0.375 N 
HETATM   22  C   UNL     1     -40.870 -50.401  13.919  1.00  0.00     0.094 A 
ATOM     23  HN  UNL     1     -40.431 -49.214  15.566  1.00  0.00     0.164 HD
ENDBRANCH  16  17
ENDBRANCH  15  16
ENDBRANCH   3  15
TORSDOF 7
ENDMDL
MODEL 8
REMARK VINA RESULT:      -5.2      3.230      6.171
REMARK  7 active torsions:
REMARK  status: ('A' for Active; 'I' for Inactive)
REMARK    1  A    between atoms: C_2  and  C_3 
REMARK       I    between atoms: C_2  and  N_13 
REMARK    2  A    between atoms: C_3  and  C_4 
REMARK    3  A    between atoms: C_4  and  S_5 
REMARK    4  A    between atoms: S_5  and  C_8 
REMARK    5  A    between atoms: N_13  and  C_14 
REMARK    6  A    between atoms: C_14  and  C_15 
REMARK    7  A    between atoms: C_15  and  C_16 
ROOT
HETATM    1  O   UNL     1     -41.397 -55.048  16.627  1.00  0.00    -0.274 OA
HETATM    2  C   UNL     1     -41.195 -54.696  15.470  1.00  0.00     0.218 C 
HETATM    3  N   UNL     1     -42.180 -54.579  14.514  1.00  0.00    -0.361 N 
HETATM    4  H   UNL     1     -41.881 -54.502  13.549  1.00  0.00     0.162 HD
ENDROOT
BRANCH   2   5
HETATM    5  C   UNL     1     -39.820 -54.317  14.975  1.00  0.00     0.117 C 
BRANCH   5   6
HETATM    6  C   UNL     1     -39.668 -52.802  14.975  1.00  0.00     0.150 C 
BRANCH   6   7
HETATM    7  S   UNL     1     -39.773 -52.163  13.318  1.00  0.00     0.149 S 
HETATM    8  O   UNL     1     -38.477 -51.593  12.996  1.00  0.00    -0.227 OA
HETATM    9  O   UNL     1     -40.347 -53.199  12.482  1.00  0.00    -0.227 OA
BRANCH   7  10
HETATM   10  C   UNL     1     -40.932 -50.814  13.432  1.00  0.00     0.108 C 
HETATM   11  C   UNL     1     -41.505 -50.584  14.830  1.00  0.00     0.020 C 
HETATM   12  C   UNL     1     -42.972 -50.192  14.630  1.00  0.00     0.001 C 
HETATM   13  C   UNL     1     -43.185 -50.097  13.126  1.00  0.00     0.001 C 
HETATM   14  C   UNL     1     -42.152 -51.044  12.546  1.00  0.00     0.020 C 
ENDBRANCH   7  10
ENDBRANCH   6   7
ENDBRANCH   5   6
ENDBRANCH   2   5
BRANCH   3  15
HETATM   15  C   UNL     1     -43.554 -55.015  14.737  1.00  0.00     0.127 C 
BRANCH  15  16
HETATM   16  C   UNL     1     -44.450 -53.970  15.412  1.00  0.00     0.059 C 
BRANCH  16  17
HETATM   17  C   UNL     1     -45.224 -53.139  14.429  1.00  0.00    -0.041 A 
HETATM   18  C   UNL     1     -46.100 -52.137  14.856  1.00  0.00     0.010 A 
HETATM   19  C   UNL     1     -46.770 -51.359  13.916  1.00  0.00     0.018 A 
HETATM   20  C   UNL     1     -46.549 -51.619  12.575  1.00  0.00     0.087 A 
HETATM   21  N   UNL     1     -45.725 -52.590  12.123  1.00  0.00    -0.375 N 
HETATM   22  C   UNL     1     -45.081 -53.323  13.058  1.00  0.00     0.094 A 
ATOM     23  HN  UNL     1     -45.597 -52.760  11.126  1.00  0.00     0.164 HD
ENDBRANCH  16  17
ENDBRANCH  15  16
ENDBRANCH   3  15
TORSDOF 7
ENDMDL
MODEL 9
REMARK VINA RESULT:      -5.1      2.549      6.234
REMARK  7 active torsions:
REMARK  status: ('A' for Active; 'I' for Inactive)
REMARK    1  A    between atoms: C_2  and  C_3 
REMARK       I    between atoms: C_2  and  N_13 
REMARK    2  A    between atoms: C_3  and  C_4 
REMARK    3  A    between atoms: C_4  and  S_5 
REMARK    4  A    between atoms: S_5  and  C_8 
REMARK    5  A    between atoms: N_13  and  C_14 
REMARK    6  A    between atoms: C_14  and  C_15 
REMARK    7  A    between atoms: C_15  and  C_16 
ROOT
HETATM    1  O   UNL     1     -44.624 -54.726  15.086  1.00  0.00    -0.274 OA
HETATM    2  C   UNL     1     -43.766 -54.256  14.346  1.00  0.00     0.218 C 
HETATM    3  N   UNL     1     -44.035 -53.412  13.290  1.00  0.00    -0.361 N 
HETATM    4  H   UNL     1     -43.293 -53.264  12.616  1.00  0.00     0.162 HD
ENDROOT
BRANCH   2   5
HETATM    5  C   UNL     1     -42.297 -54.534  14.543  1.00  0.00     0.117 C 
BRANCH   5   6
HETATM    6  C   UNL     1     -41.526 -53.224  14.629  1.00  0.00     0.150 C 
BRANCH   6   7
HETATM    7  S   UNL     1     -40.366 -53.091  13.288  1.00  0.00     0.149 S 
HETATM    8  O   UNL     1     -39.277 -54.009  13.570  1.00  0.00    -0.227 OA
HETATM    9  O   UNL     1     -41.111 -53.195  12.048  1.00  0.00    -0.227 OA
BRANCH   7  10
HETATM   10  C   UNL     1     -39.714 -51.438  13.424  1.00  0.00     0.108 C 
HETATM   11  C   UNL     1     -40.001 -50.539  12.222  1.00  0.00     0.020 C 
HETATM   12  C   UNL     1     -38.747 -49.682  12.020  1.00  0.00     0.001 C 
HETATM   13  C   UNL     1     -37.810 -50.023  13.171  1.00  0.00     0.001 C 
HETATM   14  C   UNL     1     -38.194 -51.441  13.551  1.00  0.00     0.020 C 
ENDBRANCH   7  10
ENDBRANCH   6   7
ENDBRANCH   5   6
ENDBRANCH   2   5
BRANCH   3  15
HETATM   15  C   UNL     1     -45.390 -53.113  12.841  1.00  0.00     0.127 C 
BRANCH  15  16
HETATM   16  C   UNL     1     -45.828 -51.662  13.070  1.00  0.00     0.059 C 
BRANCH  16  17
HETATM   17  C   UNL     1     -45.975 -51.317  14.525  1.00  0.00    -0.041 A 
HETATM   18  C   UNL     1     -47.159 -51.582  15.219  1.00  0.00     0.010 A 
HETATM   19  C   UNL     1     -47.246 -51.286  16.576  1.00  0.00     0.018 A 
HETATM   20  C   UNL     1     -46.143 -50.722  17.193  1.00  0.00     0.087 A 
HETATM   21  N   UNL     1     -44.989 -50.433  16.553  1.00  0.00    -0.375 N 
HETATM   22  C   UNL     1     -44.930 -50.740  15.239  1.00  0.00     0.094 A 
ATOM     23  HN  UNL     1     -44.201 -50.004  17.039  1.00  0.00     0.164 HD
ENDBRANCH  16  17
ENDBRANCH  15  16
ENDBRANCH   3  15
TORSDOF 7
ENDMDL
