MODEL 1
REMARK VINA RESULT:      -7.0      0.000      0.000
REMARK  5 active torsions:
REMARK  status: ('A' for Active; 'I' for Inactive)
REMARK    1  A    between atoms: C_2  and  N_4 
REMARK    2  A    between atoms: N_3  and  C_13 
REMARK    3  A    between atoms: C_13  and  C_19 
REMARK    4  A    between atoms: C_17  and  C_29 
REMARK    5  A    between atoms: C_19  and  O_24 
ROOT
HETATM    1  C   UNL     1     -41.424 -49.584  11.848  1.00  0.00     0.117 A 
HETATM    2  C   UNL     1     -42.453 -48.614  11.840  1.00  0.00     0.115 A 
HETATM    3  N   UNL     1     -40.181 -51.131  12.765  1.00  0.00    -0.324 N 
HETATM    4  C   UNL     1     -41.230 -50.292  13.022  1.00  0.00     0.140 A 
HETATM    5  N   UNL     1     -40.500 -49.981  10.895  1.00  0.00    -0.346 N 
ATOM      6  HN  UNL     1     -40.389 -49.614   9.950  1.00  0.00     0.167 HD
HETATM    7  C   UNL     1     -39.796 -50.931  11.469  1.00  0.00     0.185 A 
HETATM    8  N   UNL     1     -43.177 -48.487  12.990  1.00  0.00    -0.341 N 
ATOM      9  HN  UNL     1     -43.944 -47.816  13.039  1.00  0.00     0.167 HD
HETATM   10  N   UNL     1     -41.911 -50.180  14.174  1.00  0.00    -0.336 N 
ATOM     11  HN  UNL     1     -41.723 -50.724  15.016  1.00  0.00     0.168 HD
HETATM   12  C   UNL     1     -42.876 -49.249  14.061  1.00  0.00     0.183 A 
ENDROOT
BRANCH   2  13
HETATM   13  N   UNL     1     -42.731 -47.716  10.802  1.00  0.00    -0.258 NA
HETATM   14  C   UNL     1     -44.174 -47.656  10.477  1.00  0.00     0.134 C 
HETATM   15  C   UNL     1     -44.364 -46.929   9.128  1.00  0.00     0.066 C 
HETATM   16  O   UNL     1     -43.821 -45.593   9.210  1.00  0.00    -0.378 OA
HETATM   17  C   UNL     1     -43.737 -47.733   7.979  1.00  0.00     0.047 C 
HETATM   18  C   UNL     1     -45.865 -46.767   8.858  1.00  0.00     0.047 C 
HETATM   19  C   UNL     1     -42.445 -45.565   9.630  1.00  0.00     0.188 C 
HETATM   20  C   UNL     1     -42.178 -46.342  10.952  1.00  0.00     0.088 C 
BRANCH  20  21
HETATM   21  C   UNL     1     -40.686 -46.277  11.333  1.00  0.00     0.018 C 
HETATM   22  C   UNL     1     -39.844 -45.309  10.512  1.00  0.00     0.007 C 
ENDBRANCH  20  21
ENDBRANCH   2  13
BRANCH   3  23
HETATM   23  C   UNL     1     -39.655 -52.132  13.667  1.00  0.00     0.169 C 
BRANCH  23  24
HETATM   24  C   UNL     1     -40.206 -53.564  13.469  1.00  0.00     0.078 C 
HETATM   25  C   UNL     1     -41.546 -53.681  14.218  1.00  0.00     0.066 C 
HETATM   26  C   UNL     1     -41.342 -53.875  15.711  1.00  0.00     0.170 C 
HETATM   27  O   UNL     1     -40.577 -55.055  15.940  1.00  0.00    -0.391 OA
HETATM   28  C   UNL     1     -39.255 -54.953  15.410  1.00  0.00     0.170 C 
HETATM   29  C   UNL     1     -39.272 -54.711  13.904  1.00  0.00     0.066 C 
BRANCH  24  30
HETATM   30  O   UNL     1     -40.509 -53.721  12.068  1.00  0.00    -0.388 OA
HETATM   31  H   UNL     1     -40.819 -52.867  11.718  1.00  0.00     0.210 HD
ENDBRANCH  24  30
ENDBRANCH  23  24
ENDBRANCH   3  23
TORSDOF 5
ENDMDL
MODEL 2
REMARK VINA RESULT:      -6.9      2.604      7.105
REMARK  5 active torsions:
REMARK  status: ('A' for Active; 'I' for Inactive)
REMARK    1  A    between atoms: C_2  and  N_4 
REMARK    2  A    between atoms: N_3  and  C_13 
REMARK    3  A    between atoms: C_13  and  C_19 
REMARK    4  A    between atoms: C_17  and  C_29 
REMARK    5  A    between atoms: C_19  and  O_24 
ROOT
HETATM    1  C   UNL     1     -41.749 -49.429  12.424  1.00  0.00     0.117 A 
HETATM    2  C   UNL     1     -42.064 -50.339  13.460  1.00  0.00     0.115 A 
HETATM    3  N   UNL     1     -40.802 -47.644  11.589  1.00  0.00    -0.324 N 
HETATM    4  C   UNL     1     -40.923 -48.366  12.745  1.00  0.00     0.140 A 
HETATM    5  N   UNL     1     -42.133 -49.350  11.095  1.00  0.00    -0.346 N 
ATOM      6  HN  UNL     1     -42.757 -49.980  10.593  1.00  0.00     0.167 HD
HETATM    7  C   UNL     1     -41.519 -48.289  10.620  1.00  0.00     0.185 A 
HETATM    8  N   UNL     1     -41.497 -50.094  14.678  1.00  0.00    -0.341 N 
ATOM      9  HN  UNL     1     -41.672 -50.726  15.459  1.00  0.00     0.167 HD
HETATM   10  N   UNL     1     -40.364 -48.086  13.934  1.00  0.00    -0.336 N 
ATOM     11  HN  UNL     1     -39.765 -47.282  14.119  1.00  0.00     0.168 HD
HETATM   12  C   UNL     1     -40.707 -49.015  14.845  1.00  0.00     0.183 A 
ENDROOT
BRANCH   2  13
HETATM   13  N   UNL     1     -42.970 -51.404  13.374  1.00  0.00    -0.258 NA
HETATM   14  C   UNL     1     -44.366 -50.947  13.199  1.00  0.00     0.134 C 
HETATM   15  C   UNL     1     -45.328 -52.128  13.455  1.00  0.00     0.066 C 
HETATM   16  O   UNL     1     -45.042 -53.201  12.531  1.00  0.00    -0.378 OA
HETATM   17  C   UNL     1     -45.247 -52.593  14.917  1.00  0.00     0.047 C 
HETATM   18  C   UNL     1     -46.762 -51.675  13.158  1.00  0.00     0.047 C 
HETATM   19  C   UNL     1     -43.667 -53.627  12.564  1.00  0.00     0.188 C 
HETATM   20  C   UNL     1     -42.647 -52.466  12.381  1.00  0.00     0.088 C 
BRANCH  20  21
HETATM   21  C   UNL     1     -41.200 -52.995  12.439  1.00  0.00     0.018 C 
HETATM   22  C   UNL     1     -40.960 -54.133  13.422  1.00  0.00     0.007 C 
ENDBRANCH  20  21
ENDBRANCH   2  13
BRANCH   3  23
HETATM   23  C   UNL     1     -39.968 -46.478  11.401  1.00  0.00     0.169 C 
BRANCH  23  24
HETATM   24  C   UNL     1     -40.713 -45.183  10.998  1.00  0.00     0.078 C 
HETATM   25  C   UNL     1     -39.882 -43.974  11.466  1.00  0.00     0.066 C 
HETATM   26  C   UNL     1     -40.057 -43.713  12.953  1.00  0.00     0.170 C 
HETATM   27  O   UNL     1     -41.432 -43.471  13.237  1.00  0.00    -0.391 OA
HETATM   28  C   UNL     1     -42.247 -44.614  12.979  1.00  0.00     0.170 C 
HETATM   29  C   UNL     1     -42.157 -45.047  11.519  1.00  0.00     0.066 C 
BRANCH  24  30
HETATM   30  O   UNL     1     -40.734 -45.126   9.557  1.00  0.00    -0.388 OA
HETATM   31  H   UNL     1     -40.585 -44.205   9.279  1.00  0.00     0.210 HD
ENDBRANCH  24  30
ENDBRANCH  23  24
ENDBRANCH   3  23
TORSDOF 5
ENDMDL
MODEL 3
REMARK VINA RESULT:      -6.9      2.695      4.399
REMARK  5 active torsions:
REMARK  status: ('A' for Active; 'I' for Inactive)
REMARK    1  A    between atoms: C_2  and  N_4 
REMARK    2  A    between atoms: N_3  and  C_13 
REMARK    3  A    between atoms: C_13  and  C_19 
REMARK    4  A    between atoms: C_17  and  C_29 
REMARK    5  A    between atoms: C_19  and  O_24 
ROOT
HETATM    1  C   UNL     1     -42.202 -49.049  12.934  1.00  0.00     0.117 A 
HETATM    2  C   UNL     1     -41.414 -48.256  12.069  1.00  0.00     0.115 A 
HETATM    3  N   UNL     1     -43.006 -50.935  13.694  1.00  0.00    -0.324 N 
HETATM    4  C   UNL     1     -42.148 -50.421  12.761  1.00  0.00     0.140 A 
HETATM    5  N   UNL     1     -43.088 -48.733  13.952  1.00  0.00    -0.346 N 
ATOM      6  HN  UNL     1     -43.348 -47.802  14.279  1.00  0.00     0.167 HD
HETATM    7  C   UNL     1     -43.522 -49.888  14.405  1.00  0.00     0.185 A 
HETATM    8  N   UNL     1     -40.649 -48.926  11.158  1.00  0.00    -0.341 N 
ATOM      9  HN  UNL     1     -40.045 -48.409  10.519  1.00  0.00     0.167 HD
HETATM   10  N   UNL     1     -41.422 -51.111  11.866  1.00  0.00    -0.336 N 
ATOM     11  HN  UNL     1     -41.422 -52.127  11.776  1.00  0.00     0.168 HD
HETATM   12  C   UNL     1     -40.695 -50.273  11.105  1.00  0.00     0.183 A 
ENDROOT
BRANCH   2  13
HETATM   13  N   UNL     1     -41.418 -46.857  12.000  1.00  0.00    -0.258 NA
HETATM   14  C   UNL     1     -40.100 -46.270  12.331  1.00  0.00     0.134 C 
HETATM   15  C   UNL     1     -40.261 -44.753  12.571  1.00  0.00     0.066 C 
HETATM   16  O   UNL     1     -40.797 -44.124  11.386  1.00  0.00    -0.378 OA
HETATM   17  C   UNL     1     -41.132 -44.483  13.807  1.00  0.00     0.047 C 
HETATM   18  C   UNL     1     -38.876 -44.135  12.797  1.00  0.00     0.047 C 
HETATM   19  C   UNL     1     -42.029 -44.717  10.936  1.00  0.00     0.188 C 
HETATM   20  C   UNL     1     -41.948 -46.260  10.743  1.00  0.00     0.088 C 
BRANCH  20  21
HETATM   21  C   UNL     1     -43.302 -46.824  10.273  1.00  0.00     0.018 C 
HETATM   22  C   UNL     1     -43.280 -47.543   8.930  1.00  0.00     0.007 C 
ENDBRANCH  20  21
ENDBRANCH   2  13
BRANCH   3  23
HETATM   23  C   UNL     1     -43.230 -52.339  13.959  1.00  0.00     0.169 C 
BRANCH  23  24
HETATM   24  C   UNL     1     -44.285 -53.027  13.060  1.00  0.00     0.078 C 
HETATM   25  C   UNL     1     -45.506 -52.098  12.937  1.00  0.00     0.066 C 
HETATM   26  C   UNL     1     -46.391 -52.164  14.171  1.00  0.00     0.170 C 
HETATM   27  O   UNL     1     -46.842 -53.501  14.364  1.00  0.00    -0.391 OA
HETATM   28  C   UNL     1     -45.768 -54.398  14.647  1.00  0.00     0.170 C 
HETATM   29  C   UNL     1     -44.746 -54.426  13.515  1.00  0.00     0.066 C 
BRANCH  24  30
HETATM   30  O   UNL     1     -43.722 -53.134  11.737  1.00  0.00    -0.388 OA
HETATM   31  H   UNL     1     -42.823 -53.503  11.809  1.00  0.00     0.210 HD
ENDBRANCH  24  30
ENDBRANCH  23  24
ENDBRANCH   3  23
TORSDOF 5
ENDMDL
MODEL 4
REMARK VINA RESULT:      -6.8      3.625      6.589
REMARK  5 active torsions:
REMARK  status: ('A' for Active; 'I' for Inactive)
REMARK    1  A    between atoms: C_2  and  N_4 
REMARK    2  A    between atoms: N_3  and  C_13 
REMARK    3  A    between atoms: C_13  and  C_19 
REMARK    4  A    between atoms: C_17  and  C_29 
REMARK    5  A    between atoms: C_19  and  O_24 
ROOT
HETATM    1  C   UNL     1     -42.921 -51.431  13.089  1.00  0.00     0.117 A 
HETATM    2  C   UNL     1     -43.474 -52.563  13.731  1.00  0.00     0.115 A 
HETATM    3  N   UNL     1     -41.385 -50.360  11.961  1.00  0.00    -0.324 N 
HETATM    4  C   UNL     1     -41.692 -51.591  12.472  1.00  0.00     0.140 A 
HETATM    5  N   UNL     1     -43.350 -50.119  12.963  1.00  0.00    -0.346 N 
ATOM      6  HN  UNL     1     -44.203 -49.709  13.341  1.00  0.00     0.167 HD
HETATM    7  C   UNL     1     -42.422 -49.518  12.253  1.00  0.00     0.185 A 
HETATM    8  N   UNL     1     -42.750 -53.719  13.656  1.00  0.00    -0.341 N 
ATOM      9  HN  UNL     1     -43.107 -54.573  14.084  1.00  0.00     0.167 HD
HETATM   10  N   UNL     1     -40.947 -52.705  12.394  1.00  0.00    -0.336 N 
ATOM     11  HN  UNL     1     -40.041 -52.768  11.930  1.00  0.00     0.168 HD
HETATM   12  C   UNL     1     -41.564 -53.727  13.016  1.00  0.00     0.183 A 
ENDROOT
BRANCH   2  13
HETATM   13  N   UNL     1     -44.639 -52.583  14.509  1.00  0.00    -0.258 NA
HETATM   14  C   UNL     1     -44.437 -51.981  15.846  1.00  0.00     0.134 C 
HETATM   15  C   UNL     1     -45.633 -52.340  16.754  1.00  0.00     0.066 C 
HETATM   16  O   UNL     1     -46.858 -51.843  16.171  1.00  0.00    -0.378 OA
HETATM   17  C   UNL     1     -45.692 -53.854  17.010  1.00  0.00     0.047 C 
HETATM   18  C   UNL     1     -45.472 -51.617  18.097  1.00  0.00     0.047 C 
HETATM   19  C   UNL     1     -47.069 -52.299  14.822  1.00  0.00     0.188 C 
HETATM   20  C   UNL     1     -45.865 -52.026  13.873  1.00  0.00     0.088 C 
BRANCH  20  21
HETATM   21  C   UNL     1     -46.158 -52.550  12.453  1.00  0.00     0.018 C 
HETATM   22  C   UNL     1     -47.044 -51.654  11.597  1.00  0.00     0.007 C 
ENDBRANCH  20  21
ENDBRANCH   2  13
BRANCH   3  23
HETATM   23  C   UNL     1     -40.229 -50.041  11.153  1.00  0.00     0.169 C 
BRANCH  23  24
HETATM   24  C   UNL     1     -39.159 -49.156  11.837  1.00  0.00     0.078 C 
HETATM   25  C   UNL     1     -37.766 -49.648  11.404  1.00  0.00     0.066 C 
HETATM   26  C   UNL     1     -37.346 -50.894  12.167  1.00  0.00     0.170 C 
HETATM   27  O   UNL     1     -37.328 -50.615  13.564  1.00  0.00    -0.391 OA
HETATM   28  C   UNL     1     -38.627 -50.308  14.071  1.00  0.00     0.170 C 
HETATM   29  C   UNL     1     -39.226 -49.089  13.376  1.00  0.00     0.066 C 
BRANCH  24  30
HETATM   30  O   UNL     1     -39.300 -47.822  11.310  1.00  0.00    -0.388 OA
HETATM   31  H   UNL     1     -39.762 -47.871  10.454  1.00  0.00     0.210 HD
ENDBRANCH  24  30
ENDBRANCH  23  24
ENDBRANCH   3  23
TORSDOF 5
ENDMDL
MODEL 5
REMARK VINA RESULT:      -6.7      2.309      3.036
REMARK  5 active torsions:
REMARK  status: ('A' for Active; 'I' for Inactive)
REMARK    1  A    between atoms: C_2  and  N_4 
REMARK    2  A    between atoms: N_3  and  C_13 
REMARK    3  A    between atoms: C_13  and  C_19 
REMARK    4  A    between atoms: C_17  and  C_29 
REMARK    5  A    between atoms: C_19  and  O_24 
ROOT
HETATM    1  C   UNL     1     -41.587 -48.971  11.559  1.00  0.00     0.117 A 
HETATM    2  C   UNL     1     -42.646 -48.034  11.597  1.00  0.00     0.115 A 
HETATM    3  N   UNL     1     -40.067 -50.265  12.450  1.00  0.00    -0.324 N 
HETATM    4  C   UNL     1     -41.075 -49.397  12.772  1.00  0.00     0.140 A 
HETATM    5  N   UNL     1     -40.895 -49.564  10.515  1.00  0.00    -0.346 N 
ATOM      6  HN  UNL     1     -41.036 -49.416   9.516  1.00  0.00     0.167 HD
HETATM    7  C   UNL     1     -40.017 -50.357  11.087  1.00  0.00     0.185 A 
HETATM    8  N   UNL     1     -43.080 -47.658  12.836  1.00  0.00    -0.341 N 
ATOM      9  HN  UNL     1     -43.853 -46.999  12.927  1.00  0.00     0.167 HD
HETATM   10  N   UNL     1     -41.466 -49.036  14.004  1.00  0.00    -0.336 N 
ATOM     11  HN  UNL     1     -41.049 -49.377  14.870  1.00  0.00     0.168 HD
HETATM   12  C   UNL     1     -42.485 -48.160  13.936  1.00  0.00     0.183 A 
ENDROOT
BRANCH   2  13
HETATM   13  N   UNL     1     -43.219 -47.392  10.492  1.00  0.00    -0.258 NA
HETATM   14  C   UNL     1     -44.681 -47.605  10.409  1.00  0.00     0.134 C 
HETATM   15  C   UNL     1     -45.183 -47.174   9.014  1.00  0.00     0.066 C 
HETATM   16  O   UNL     1     -44.875 -45.780   8.791  1.00  0.00    -0.378 OA
HETATM   17  C   UNL     1     -44.593 -48.074   7.917  1.00  0.00     0.047 C 
HETATM   18  C   UNL     1     -46.712 -47.287   8.978  1.00  0.00     0.047 C 
HETATM   19  C   UNL     1     -43.479 -45.473   8.964  1.00  0.00     0.188 C 
HETATM   20  C   UNL     1     -42.898 -45.947  10.328  1.00  0.00     0.088 C 
BRANCH  20  21
HETATM   21  C   UNL     1     -41.401 -45.595  10.437  1.00  0.00     0.018 C 
HETATM   22  C   UNL     1     -41.089 -44.283  11.146  1.00  0.00     0.007 C 
ENDBRANCH  20  21
ENDBRANCH   2  13
BRANCH   3  23
HETATM   23  C   UNL     1     -39.281 -51.036  13.387  1.00  0.00     0.169 C 
BRANCH  23  24
HETATM   24  C   UNL     1     -37.805 -50.597  13.541  1.00  0.00     0.078 C 
HETATM   25  C   UNL     1     -37.390 -50.780  15.012  1.00  0.00     0.066 C 
HETATM   26  C   UNL     1     -37.906 -49.650  15.888  1.00  0.00     0.170 C 
HETATM   27  O   UNL     1     -37.398 -48.407  15.412  1.00  0.00    -0.391 OA
HETATM   28  C   UNL     1     -37.877 -48.091  14.105  1.00  0.00     0.170 C 
HETATM   29  C   UNL     1     -37.481 -49.159  13.090  1.00  0.00     0.066 C 
BRANCH  24  30
HETATM   30  O   UNL     1     -36.999 -51.514  12.775  1.00  0.00    -0.388 OA
HETATM   31  H   UNL     1     -37.163 -52.419  13.097  1.00  0.00     0.210 HD
ENDBRANCH  24  30
ENDBRANCH  23  24
ENDBRANCH   3  23
TORSDOF 5
ENDMDL
MODEL 6
REMARK VINA RESULT:      -6.6      1.621      3.286
REMARK  5 active torsions:
REMARK  status: ('A' for Active; 'I' for Inactive)
REMARK    1  A    between atoms: C_2  and  N_4 
REMARK    2  A    between atoms: N_3  and  C_13 
REMARK    3  A    between atoms: C_13  and  C_19 
REMARK    4  A    between atoms: C_17  and  C_29 
REMARK    5  A    between atoms: C_19  and  O_24 
ROOT
HETATM    1  C   UNL     1     -41.700 -49.387  12.087  1.00  0.00     0.117 A 
HETATM    2  C   UNL     1     -41.018 -48.238  11.625  1.00  0.00     0.115 A 
HETATM    3  N   UNL     1     -41.887 -51.516  12.546  1.00  0.00    -0.324 N 
HETATM    4  C   UNL     1     -41.003 -50.582  12.082  1.00  0.00     0.140 A 
HETATM    5  N   UNL     1     -42.994 -49.594  12.538  1.00  0.00    -0.346 N 
ATOM      6  HN  UNL     1     -43.738 -48.901  12.622  1.00  0.00     0.167 HD
HETATM    7  C   UNL     1     -43.058 -50.872  12.836  1.00  0.00     0.185 A 
HETATM    8  N   UNL     1     -39.720 -48.414  11.242  1.00  0.00    -0.341 N 
ATOM      9  HN  UNL     1     -39.171 -47.619  10.918  1.00  0.00     0.167 HD
HETATM   10  N   UNL     1     -39.734 -50.794  11.696  1.00  0.00    -0.336 N 
ATOM     11  HN  UNL     1     -39.266 -51.701  11.707  1.00  0.00     0.168 HD
HETATM   12  C   UNL     1     -39.166 -49.643  11.294  1.00  0.00     0.183 A 
ENDROOT
BRANCH   2  13
HETATM   13  N   UNL     1     -41.577 -46.967  11.439  1.00  0.00    -0.258 NA
HETATM   14  C   UNL     1     -40.676 -45.881  11.885  1.00  0.00     0.134 C 
HETATM   15  C   UNL     1     -41.471 -44.560  11.973  1.00  0.00     0.066 C 
HETATM   16  O   UNL     1     -42.029 -44.237  10.681  1.00  0.00    -0.378 OA
HETATM   17  C   UNL     1     -42.553 -44.643  13.061  1.00  0.00     0.047 C 
HETATM   18  C   UNL     1     -40.505 -43.421  12.322  1.00  0.00     0.047 C 
HETATM   19  C   UNL     1     -42.832 -45.296  10.129  1.00  0.00     0.188 C 
HETATM   20  C   UNL     1     -42.106 -46.672  10.078  1.00  0.00     0.088 C 
BRANCH  20  21
HETATM   21  C   UNL     1     -43.028 -47.756   9.488  1.00  0.00     0.018 C 
HETATM   22  C   UNL     1     -43.538 -47.484   8.078  1.00  0.00     0.007 C 
ENDBRANCH  20  21
ENDBRANCH   2  13
BRANCH   3  23
HETATM   23  C   UNL     1     -41.596 -52.910  12.798  1.00  0.00     0.169 C 
BRANCH  23  24
HETATM   24  C   UNL     1     -40.670 -53.191  14.005  1.00  0.00     0.078 C 
HETATM   25  C   UNL     1     -40.967 -54.607  14.532  1.00  0.00     0.066 C 
HETATM   26  C   UNL     1     -42.226 -54.639  15.382  1.00  0.00     0.170 C 
HETATM   27  O   UNL     1     -42.079 -53.753  16.488  1.00  0.00    -0.391 OA
HETATM   28  C   UNL     1     -41.961 -52.391  16.077  1.00  0.00     0.170 C 
HETATM   29  C   UNL     1     -40.754 -52.182  15.167  1.00  0.00     0.066 C 
BRANCH  24  30
HETATM   30  O   UNL     1     -39.315 -53.218  13.514  1.00  0.00    -0.388 OA
HETATM   31  H   UNL     1     -38.722 -53.466  14.246  1.00  0.00     0.210 HD
ENDBRANCH  24  30
ENDBRANCH  23  24
ENDBRANCH   3  23
TORSDOF 5
ENDMDL
MODEL 7
REMARK VINA RESULT:      -6.6      1.771      2.748
REMARK  5 active torsions:
REMARK  status: ('A' for Active; 'I' for Inactive)
REMARK    1  A    between atoms: C_2  and  N_4 
REMARK    2  A    between atoms: N_3  and  C_13 
REMARK    3  A    between atoms: C_13  and  C_19 
REMARK    4  A    between atoms: C_17  and  C_29 
REMARK    5  A    between atoms: C_19  and  O_24 
ROOT
HETATM    1  C   UNL     1     -42.358 -49.553  12.080  1.00  0.00     0.117 A 
HETATM    2  C   UNL     1     -41.647 -48.862  11.072  1.00  0.00     0.115 A 
HETATM    3  N   UNL     1     -42.679 -51.184  13.501  1.00  0.00    -0.324 N 
HETATM    4  C   UNL     1     -41.790 -50.715  12.572  1.00  0.00     0.140 A 
HETATM    5  N   UNL     1     -43.579 -49.323  12.694  1.00  0.00    -0.346 N 
ATOM      6  HN  UNL     1     -44.229 -48.559  12.511  1.00  0.00     0.167 HD
HETATM    7  C   UNL     1     -43.720 -50.301  13.562  1.00  0.00     0.185 A 
HETATM    8  N   UNL     1     -40.448 -49.398  10.698  1.00  0.00    -0.341 N 
ATOM      9  HN  UNL     1     -39.881 -48.934   9.988  1.00  0.00     0.167 HD
HETATM   10  N   UNL     1     -40.624 -51.279  12.215  1.00  0.00    -0.336 N 
ATOM     11  HN  UNL     1     -40.252 -52.144  12.607  1.00  0.00     0.168 HD
HETATM   12  C   UNL     1     -40.017 -50.541  11.268  1.00  0.00     0.183 A 
ENDROOT
BRANCH   2  13
HETATM   13  N   UNL     1     -42.100 -47.742  10.364  1.00  0.00    -0.258 NA
HETATM   14  C   UNL     1     -43.563 -47.771  10.135  1.00  0.00     0.134 C 
HETATM   15  C   UNL     1     -43.936 -46.712   9.076  1.00  0.00     0.066 C 
HETATM   16  O   UNL     1     -43.535 -45.401   9.531  1.00  0.00    -0.378 OA
HETATM   17  C   UNL     1     -43.319 -47.059   7.712  1.00  0.00     0.047 C 
HETATM   18  C   UNL     1     -45.462 -46.668   8.932  1.00  0.00     0.047 C 
HETATM   19  C   UNL     1     -42.141 -45.324   9.881  1.00  0.00     0.188 C 
HETATM   20  C   UNL     1     -41.688 -46.414  10.896  1.00  0.00     0.088 C 
BRANCH  20  21
HETATM   21  C   UNL     1     -40.186 -46.276  11.213  1.00  0.00     0.018 C 
HETATM   22  C   UNL     1     -39.439 -45.231  10.394  1.00  0.00     0.007 C 
ENDBRANCH  20  21
ENDBRANCH   2  13
BRANCH   3  23
HETATM   23  C   UNL     1     -42.490 -52.340  14.349  1.00  0.00     0.169 C 
BRANCH  23  24
HETATM   24  C   UNL     1     -42.713 -53.711  13.669  1.00  0.00     0.078 C 
HETATM   25  C   UNL     1     -43.744 -53.536  12.540  1.00  0.00     0.066 C 
HETATM   26  C   UNL     1     -45.165 -53.477  13.078  1.00  0.00     0.170 C 
HETATM   27  O   UNL     1     -45.454 -54.676  13.792  1.00  0.00    -0.391 OA
HETATM   28  C   UNL     1     -44.638 -54.824  14.954  1.00  0.00     0.170 C 
HETATM   29  C   UNL     1     -43.156 -54.859  14.597  1.00  0.00     0.066 C 
BRANCH  24  30
HETATM   30  O   UNL     1     -41.474 -54.084  13.032  1.00  0.00    -0.388 OA
HETATM   31  H   UNL     1     -41.279 -53.441  12.327  1.00  0.00     0.210 HD
ENDBRANCH  24  30
ENDBRANCH  23  24
ENDBRANCH   3  23
TORSDOF 5
ENDMDL
MODEL 8
REMARK VINA RESULT:      -6.6      2.458      7.494
REMARK  5 active torsions:
REMARK  status: ('A' for Active; 'I' for Inactive)
REMARK    1  A    between atoms: C_2  and  N_4 
REMARK    2  A    between atoms: N_3  and  C_13 
REMARK    3  A    between atoms: C_13  and  C_19 
REMARK    4  A    between atoms: C_17  and  C_29 
REMARK    5  A    between atoms: C_19  and  O_24 
ROOT
HETATM    1  C   UNL     1     -42.285 -49.413  12.812  1.00  0.00     0.117 A 
HETATM    2  C   UNL     1     -42.620 -50.263  13.891  1.00  0.00     0.115 A 
HETATM    3  N   UNL     1     -41.977 -47.472  11.854  1.00  0.00    -0.324 N 
HETATM    4  C   UNL     1     -42.314 -48.049  13.047  1.00  0.00     0.140 A 
HETATM    5  N   UNL     1     -41.944 -49.660  11.491  1.00  0.00    -0.346 N 
ATOM      6  HN  UNL     1     -41.872 -50.567  11.030  1.00  0.00     0.167 HD
HETATM    7  C   UNL     1     -41.734 -48.477  10.960  1.00  0.00     0.185 A 
HETATM    8  N   UNL     1     -42.916 -49.653  15.076  1.00  0.00    -0.341 N 
ATOM      9  HN  UNL     1     -43.148 -50.215  15.895  1.00  0.00     0.167 HD
HETATM   10  N   UNL     1     -42.617 -47.417  14.192  1.00  0.00    -0.336 N 
ATOM     11  HN  UNL     1     -42.630 -46.404  14.312  1.00  0.00     0.168 HD
HETATM   12  C   UNL     1     -42.902 -48.308  15.160  1.00  0.00     0.183 A 
ENDROOT
BRANCH   2  13
HETATM   13  N   UNL     1     -42.765 -51.655  13.828  1.00  0.00    -0.258 NA
HETATM   14  C   UNL     1     -41.788 -52.365  14.684  1.00  0.00     0.134 C 
HETATM   15  C   UNL     1     -41.775 -53.863  14.311  1.00  0.00     0.066 C 
HETATM   16  O   UNL     1     -43.093 -54.426  14.496  1.00  0.00    -0.378 OA
HETATM   17  C   UNL     1     -41.261 -54.066  12.878  1.00  0.00     0.047 C 
HETATM   18  C   UNL     1     -40.849 -54.609  15.280  1.00  0.00     0.047 C 
HETATM   19  C   UNL     1     -44.119 -53.716  13.779  1.00  0.00     0.188 C 
HETATM   20  C   UNL     1     -44.137 -52.185  14.062  1.00  0.00     0.088 C 
BRANCH  20  21
HETATM   21  C   UNL     1     -45.251 -51.492  13.253  1.00  0.00     0.018 C 
HETATM   22  C   UNL     1     -46.609 -51.423  13.938  1.00  0.00     0.007 C 
ENDBRANCH  20  21
ENDBRANCH   2  13
BRANCH   3  23
HETATM   23  C   UNL     1     -41.794 -46.057  11.617  1.00  0.00     0.169 C 
BRANCH  23  24
HETATM   24  C   UNL     1     -40.327 -45.591  11.457  1.00  0.00     0.078 C 
HETATM   25  C   UNL     1     -39.527 -46.058  12.686  1.00  0.00     0.066 C 
HETATM   26  C   UNL     1     -39.769 -45.162  13.889  1.00  0.00     0.170 C 
HETATM   27  O   UNL     1     -39.395 -43.824  13.571  1.00  0.00    -0.391 OA
HETATM   28  C   UNL     1     -40.210 -43.265  12.541  1.00  0.00     0.170 C 
HETATM   29  C   UNL     1     -40.121 -44.077  11.253  1.00  0.00     0.066 C 
BRANCH  24  30
HETATM   30  O   UNL     1     -39.774 -46.289  10.323  1.00  0.00    -0.388 OA
HETATM   31  H   UNL     1     -40.340 -46.124   9.548  1.00  0.00     0.210 HD
ENDBRANCH  24  30
ENDBRANCH  23  24
ENDBRANCH   3  23
TORSDOF 5
ENDMDL
MODEL 9
REMARK VINA RESULT:      -6.5      2.641      7.986
REMARK  5 active torsions:
REMARK  status: ('A' for Active; 'I' for Inactive)
REMARK    1  A    between atoms: C_2  and  N_4 
REMARK    2  A    between atoms: N_3  and  C_13 
REMARK    3  A    between atoms: C_13  and  C_19 
REMARK    4  A    between atoms: C_17  and  C_29 
REMARK    5  A    between atoms: C_19  and  O_24 
ROOT
HETATM    1  C   UNL     1     -40.242 -47.722  12.460  1.00  0.00     0.117 A 
HETATM    2  C   UNL     1     -40.604 -49.076  12.270  1.00  0.00     0.115 A 
HETATM    3  N   UNL     1     -40.121 -45.616  11.886  1.00  0.00    -0.324 N 
HETATM    4  C   UNL     1     -40.604 -46.826  11.469  1.00  0.00     0.140 A 
HETATM    5  N   UNL     1     -39.541 -47.068  13.460  1.00  0.00    -0.346 N 
ATOM      6  HN  UNL     1     -39.130 -47.479  14.298  1.00  0.00     0.167 HD
HETATM    7  C   UNL     1     -39.519 -45.804  13.099  1.00  0.00     0.185 A 
HETATM    8  N   UNL     1     -41.302 -49.365  11.134  1.00  0.00    -0.341 N 
ATOM      9  HN  UNL     1     -41.607 -50.321  10.951  1.00  0.00     0.167 HD
HETATM   10  N   UNL     1     -41.274 -47.079  10.333  1.00  0.00    -0.336 N 
ATOM     11  HN  UNL     1     -41.512 -46.379   9.630  1.00  0.00     0.168 HD
HETATM   12  C   UNL     1     -41.589 -48.385  10.254  1.00  0.00     0.183 A 
ENDROOT
BRANCH   2  13
HETATM   13  N   UNL     1     -40.232 -50.150  13.088  1.00  0.00    -0.258 NA
HETATM   14  C   UNL     1     -41.342 -51.104  13.310  1.00  0.00     0.134 C 
HETATM   15  C   UNL     1     -40.976 -52.054  14.471  1.00  0.00     0.066 C 
HETATM   16  O   UNL     1     -39.764 -52.773  14.153  1.00  0.00    -0.378 OA
HETATM   17  C   UNL     1     -40.854 -51.281  15.793  1.00  0.00     0.047 C 
HETATM   18  C   UNL     1     -42.078 -53.110  14.615  1.00  0.00     0.047 C 
HETATM   19  C   UNL     1     -38.664 -51.910  13.816  1.00  0.00     0.188 C 
HETATM   20  C   UNL     1     -38.994 -50.880  12.696  1.00  0.00     0.088 C 
BRANCH  20  21
HETATM   21  C   UNL     1     -37.776 -49.986  12.397  1.00  0.00     0.018 C 
HETATM   22  C   UNL     1     -37.281 -50.015  10.957  1.00  0.00     0.007 C 
ENDBRANCH  20  21
ENDBRANCH   2  13
BRANCH   3  23
HETATM   23  C   UNL     1     -40.320 -44.347  11.220  1.00  0.00     0.169 C 
BRANCH  23  24
HETATM   24  C   UNL     1     -41.728 -43.726  11.374  1.00  0.00     0.078 C 
HETATM   25  C   UNL     1     -41.631 -42.216  11.092  1.00  0.00     0.066 C 
HETATM   26  C   UNL     1     -41.073 -41.455  12.283  1.00  0.00     0.170 C 
HETATM   27  O   UNL     1     -41.909 -41.664  13.418  1.00  0.00    -0.391 OA
HETATM   28  C   UNL     1     -41.919 -43.027  13.839  1.00  0.00     0.170 C 
HETATM   29  C   UNL     1     -42.419 -43.952  12.733  1.00  0.00     0.066 C 
BRANCH  24  30
HETATM   30  O   UNL     1     -42.561 -44.280  10.335  1.00  0.00    -0.388 OA
HETATM   31  H   UNL     1     -42.456 -45.248  10.334  1.00  0.00     0.210 HD
ENDBRANCH  24  30
ENDBRANCH  23  24
ENDBRANCH   3  23
TORSDOF 5
ENDMDL
