MODEL 1
REMARK VINA RESULT:      -6.0      0.000      0.000
REMARK  4 active torsions:
REMARK  status: ('A' for Active; 'I' for Inactive)
REMARK    1  A    between atoms: O_1  and  C_2 
REMARK    2  A    between atoms: C_6  and  C_7 
REMARK    3  A    between atoms: C_7  and  N_8 
REMARK       I    between atoms: N_8  and  C_9 
REMARK       I    between atoms: C_9  and  N_11 
REMARK    4  A    between atoms: N_11  and  C_12 
ROOT
HETATM    1  N   UNL     1     -40.658 -49.177  10.611  1.00  0.00    -0.342 N 
HETATM    2  C   UNL     1     -41.915 -48.601  10.697  1.00  0.00     0.322 C 
HETATM    3  O   UNL     1     -42.486 -48.457  11.769  1.00  0.00    -0.247 OA
HETATM    4  N   UNL     1     -42.353 -48.194   9.464  1.00  0.00    -0.289 N 
HETATM    5  H   UNL     1     -40.552 -49.834   9.843  1.00  0.00     0.164 HD
HETATM    6  H   UNL     1     -41.671 -48.061   8.737  1.00  0.00     0.172 HD
ENDROOT
BRANCH   1   7
HETATM    7  C   UNL     1     -40.037 -49.624  11.841  1.00  0.00     0.131 C 
BRANCH   7   8
HETATM    8  C   UNL     1     -38.672 -48.972  12.076  1.00  0.00     0.032 C 
HETATM    9  C   UNL     1     -37.500 -49.739  11.455  1.00  0.00     0.123 C 
HETATM   10  C   UNL     1     -37.237 -50.888  12.426  1.00  0.00     0.032 C 
HETATM   11  C   UNL     1     -37.711 -50.390  13.793  1.00  0.00     0.003 C 
HETATM   12  C   UNL     1     -38.297 -48.997  13.559  1.00  0.00     0.009 C 
BRANCH   9  13
HETATM   13  O   UNL     1     -37.774 -50.201  10.142  1.00  0.00    -0.395 OA
HETATM   14  H   UNL     1     -38.242 -49.481   9.680  1.00  0.00     0.210 HD
ENDBRANCH   9  13
ENDBRANCH   7   8
ENDBRANCH   1   7
BRANCH   4  15
HETATM   15  C   UNL     1     -43.566 -47.581   9.317  1.00  0.00     0.152 A 
HETATM   16  N   UNL     1     -44.764 -48.063   9.528  1.00  0.00    -0.346 N 
HETATM   17  C   UNL     1     -45.700 -47.076   9.317  1.00  0.00     0.097 A 
ATOM     18  HN  UNL     1     -44.971 -49.023   9.806  1.00  0.00     0.167 HD
HETATM   19  C   UNL     1     -45.195 -45.854   8.926  1.00  0.00     0.070 A 
HETATM   20  S   UNL     1     -43.486 -45.960   8.783  1.00  0.00    -0.064 SA
ENDBRANCH   4  15
TORSDOF 4
ENDMDL
MODEL 2
REMARK VINA RESULT:      -6.0      3.126      6.733
REMARK  4 active torsions:
REMARK  status: ('A' for Active; 'I' for Inactive)
REMARK    1  A    between atoms: O_1  and  C_2 
REMARK    2  A    between atoms: C_6  and  C_7 
REMARK    3  A    between atoms: C_7  and  N_8 
REMARK       I    between atoms: N_8  and  C_9 
REMARK       I    between atoms: C_9  and  N_11 
REMARK    4  A    between atoms: N_11  and  C_12 
ROOT
HETATM    1  N   UNL     1     -41.499 -47.890  10.072  1.00  0.00    -0.342 N 
HETATM    2  C   UNL     1     -41.654 -48.930  10.974  1.00  0.00     0.322 C 
HETATM    3  O   UNL     1     -42.585 -48.963  11.766  1.00  0.00    -0.247 OA
HETATM    4  N   UNL     1     -40.683 -49.881  10.796  1.00  0.00    -0.289 N 
HETATM    5  H   UNL     1     -40.542 -47.561   9.975  1.00  0.00     0.164 HD
HETATM    6  H   UNL     1     -40.196 -49.905   9.917  1.00  0.00     0.172 HD
ENDROOT
BRANCH   1   7
HETATM    7  C   UNL     1     -42.476 -46.821  10.105  1.00  0.00     0.131 C 
BRANCH   7   8
HETATM    8  C   UNL     1     -43.039 -46.502   8.718  1.00  0.00     0.032 C 
HETATM    9  C   UNL     1     -44.199 -45.500   8.731  1.00  0.00     0.123 C 
HETATM   10  C   UNL     1     -45.412 -46.326   9.150  1.00  0.00     0.032 C 
HETATM   11  C   UNL     1     -45.113 -47.757   8.702  1.00  0.00     0.003 C 
HETATM   12  C   UNL     1     -43.709 -47.731   8.099  1.00  0.00     0.009 C 
BRANCH   9  13
HETATM   13  O   UNL     1     -43.972 -44.402   9.599  1.00  0.00    -0.395 OA
HETATM   14  H   UNL     1     -43.079 -44.515   9.973  1.00  0.00     0.210 HD
ENDBRANCH   9  13
ENDBRANCH   7   8
ENDBRANCH   1   7
BRANCH   4  15
HETATM   15  C   UNL     1     -40.655 -51.008  11.569  1.00  0.00     0.152 A 
HETATM   16  N   UNL     1     -41.201 -52.175  11.345  1.00  0.00    -0.346 N 
HETATM   17  C   UNL     1     -40.864 -53.043  12.361  1.00  0.00     0.097 A 
ATOM     18  HN  UNL     1     -41.786 -52.407  10.542  1.00  0.00     0.167 HD
HETATM   19  C   UNL     1     -40.077 -52.509  13.359  1.00  0.00     0.070 A 
HETATM   20  S   UNL     1     -39.780 -50.849  13.028  1.00  0.00    -0.064 SA
ENDBRANCH   4  15
TORSDOF 4
ENDMDL
MODEL 3
REMARK VINA RESULT:      -5.9      2.537      7.065
REMARK  4 active torsions:
REMARK  status: ('A' for Active; 'I' for Inactive)
REMARK    1  A    between atoms: O_1  and  C_2 
REMARK    2  A    between atoms: C_6  and  C_7 
REMARK    3  A    between atoms: C_7  and  N_8 
REMARK       I    between atoms: N_8  and  C_9 
REMARK       I    between atoms: C_9  and  N_11 
REMARK    4  A    between atoms: N_11  and  C_12 
ROOT
HETATM    1  N   UNL     1     -42.126 -48.372  10.032  1.00  0.00    -0.342 N 
HETATM    2  C   UNL     1     -40.949 -48.535  10.745  1.00  0.00     0.322 C 
HETATM    3  O   UNL     1     -40.431 -47.609  11.353  1.00  0.00    -0.247 OA
HETATM    4  N   UNL     1     -40.527 -49.838  10.703  1.00  0.00    -0.289 N 
HETATM    5  H   UNL     1     -42.130 -48.830   9.125  1.00  0.00     0.164 HD
HETATM    6  H   UNL     1     -41.198 -50.548  10.466  1.00  0.00     0.172 HD
ENDROOT
BRANCH   1   7
HETATM    7  C   UNL     1     -42.724 -47.053  10.014  1.00  0.00     0.131 C 
BRANCH   7   8
HETATM    8  C   UNL     1     -43.301 -46.692   8.643  1.00  0.00     0.032 C 
HETATM    9  C   UNL     1     -44.377 -45.602   8.686  1.00  0.00     0.123 C 
HETATM   10  C   UNL     1     -45.639 -46.330   9.144  1.00  0.00     0.032 C 
HETATM   11  C   UNL     1     -45.467 -47.781   8.692  1.00  0.00     0.003 C 
HETATM   12  C   UNL     1     -44.083 -47.866   8.049  1.00  0.00     0.009 C 
BRANCH   9  13
HETATM   13  O   UNL     1     -44.040 -44.525   9.544  1.00  0.00    -0.395 OA
HETATM   14  H   UNL     1     -43.066 -44.475   9.568  1.00  0.00     0.210 HD
ENDBRANCH   9  13
ENDBRANCH   7   8
ENDBRANCH   1   7
BRANCH   4  15
HETATM   15  C   UNL     1     -39.392 -50.229  11.356  1.00  0.00     0.152 A 
HETATM   16  N   UNL     1     -38.143 -50.089  10.994  1.00  0.00    -0.346 N 
HETATM   17  C   UNL     1     -37.319 -50.571  11.987  1.00  0.00     0.097 A 
ATOM     18  HN  UNL     1     -37.827 -49.684  10.112  1.00  0.00     0.167 HD
HETATM   19  C   UNL     1     -37.963 -51.094  13.089  1.00  0.00     0.070 A 
HETATM   20  S   UNL     1     -39.663 -51.009  12.852  1.00  0.00    -0.064 SA
ENDBRANCH   4  15
TORSDOF 4
ENDMDL
MODEL 4
REMARK VINA RESULT:      -5.6      5.039      5.492
REMARK  4 active torsions:
REMARK  status: ('A' for Active; 'I' for Inactive)
REMARK    1  A    between atoms: O_1  and  C_2 
REMARK    2  A    between atoms: C_6  and  C_7 
REMARK    3  A    between atoms: C_7  and  N_8 
REMARK       I    between atoms: N_8  and  C_9 
REMARK       I    between atoms: C_9  and  N_11 
REMARK    4  A    between atoms: N_11  and  C_12 
ROOT
HETATM    1  N   UNL     1     -41.978 -52.336  11.686  1.00  0.00    -0.342 N 
HETATM    2  C   UNL     1     -42.787 -52.838  12.693  1.00  0.00     0.322 C 
HETATM    3  O   UNL     1     -42.351 -53.075  13.811  1.00  0.00    -0.247 OA
HETATM    4  N   UNL     1     -44.084 -52.957  12.266  1.00  0.00    -0.289 N 
HETATM    5  H   UNL     1     -42.128 -52.767  10.778  1.00  0.00     0.164 HD
HETATM    6  H   UNL     1     -44.371 -52.425  11.464  1.00  0.00     0.172 HD
ENDROOT
BRANCH   1   7
HETATM    7  C   UNL     1     -40.581 -52.113  11.994  1.00  0.00     0.131 C 
BRANCH   7   8
HETATM    8  C   UNL     1     -40.316 -50.695  12.508  1.00  0.00     0.032 C 
HETATM    9  C   UNL     1     -39.731 -49.748  11.455  1.00  0.00     0.123 C 
HETATM   10  C   UNL     1     -38.251 -50.116  11.391  1.00  0.00     0.032 C 
HETATM   11  C   UNL     1     -37.906 -50.681  12.770  1.00  0.00     0.003 C 
HETATM   12  C   UNL     1     -39.211 -50.690  13.566  1.00  0.00     0.009 C 
BRANCH   9  13
HETATM   13  O   UNL     1     -40.366 -49.866  10.192  1.00  0.00    -0.395 OA
HETATM   14  H   UNL     1     -41.317 -50.000  10.363  1.00  0.00     0.210 HD
ENDBRANCH   9  13
ENDBRANCH   7   8
ENDBRANCH   1   7
BRANCH   4  15
HETATM   15  C   UNL     1     -45.059 -53.418  13.106  1.00  0.00     0.152 A 
HETATM   16  N   UNL     1     -45.222 -54.618  13.599  1.00  0.00    -0.346 N 
HETATM   17  C   UNL     1     -46.302 -54.621  14.455  1.00  0.00     0.097 A 
ATOM     18  HN  UNL     1     -44.640 -55.428  13.383  1.00  0.00     0.167 HD
HETATM   19  C   UNL     1     -46.959 -53.415  14.583  1.00  0.00     0.070 A 
HETATM   20  S   UNL     1     -46.216 -52.248  13.564  1.00  0.00    -0.064 SA
ENDBRANCH   4  15
TORSDOF 4
ENDMDL
MODEL 5
REMARK VINA RESULT:      -5.6      3.310      4.213
REMARK  4 active torsions:
REMARK  status: ('A' for Active; 'I' for Inactive)
REMARK    1  A    between atoms: O_1  and  C_2 
REMARK    2  A    between atoms: C_6  and  C_7 
REMARK    3  A    between atoms: C_7  and  N_8 
REMARK       I    between atoms: N_8  and  C_9 
REMARK       I    between atoms: C_9  and  N_11 
REMARK    4  A    between atoms: N_11  and  C_12 
ROOT
HETATM    1  N   UNL     1     -40.773 -51.213  11.493  1.00  0.00    -0.342 N 
HETATM    2  C   UNL     1     -40.998 -49.857  11.670  1.00  0.00     0.322 C 
HETATM    3  O   UNL     1     -40.896 -49.325  12.767  1.00  0.00    -0.247 OA
HETATM    4  N   UNL     1     -41.277 -49.247  10.475  1.00  0.00    -0.289 N 
HETATM    5  H   UNL     1     -41.447 -51.671  10.887  1.00  0.00     0.164 HD
HETATM    6  H   UNL     1     -41.002 -49.713   9.628  1.00  0.00     0.172 HD
ENDROOT
BRANCH   1   7
HETATM    7  C   UNL     1     -40.424 -51.994  12.662  1.00  0.00     0.131 C 
BRANCH   7   8
HETATM    8  C   UNL     1     -40.845 -53.460  12.530  1.00  0.00     0.032 C 
HETATM    9  C   UNL     1     -42.353 -53.691  12.674  1.00  0.00     0.123 C 
HETATM   10  C   UNL     1     -42.606 -53.644  14.179  1.00  0.00     0.032 C 
HETATM   11  C   UNL     1     -41.292 -54.079  14.832  1.00  0.00     0.003 C 
HETATM   12  C   UNL     1     -40.300 -54.297  13.690  1.00  0.00     0.009 C 
BRANCH   9  13
HETATM   13  O   UNL     1     -43.130 -52.735  11.971  1.00  0.00    -0.395 OA
HETATM   14  H   UNL     1     -43.672 -52.267  12.634  1.00  0.00     0.210 HD
ENDBRANCH   9  13
ENDBRANCH   7   8
ENDBRANCH   1   7
BRANCH   4  15
HETATM   15  C   UNL     1     -41.515 -47.902  10.413  1.00  0.00     0.152 A 
HETATM   16  N   UNL     1     -40.675 -46.909  10.555  1.00  0.00    -0.346 N 
HETATM   17  C   UNL     1     -41.335 -45.717  10.350  1.00  0.00     0.097 A 
ATOM     18  HN  UNL     1     -39.685 -47.003  10.782  1.00  0.00     0.167 HD
HETATM   19  C   UNL     1     -42.681 -45.825  10.073  1.00  0.00     0.070 A 
HETATM   20  S   UNL     1     -43.142 -47.480  10.108  1.00  0.00    -0.064 SA
ENDBRANCH   4  15
TORSDOF 4
ENDMDL
MODEL 6
REMARK VINA RESULT:      -5.4      4.956      6.930
REMARK  4 active torsions:
REMARK  status: ('A' for Active; 'I' for Inactive)
REMARK    1  A    between atoms: O_1  and  C_2 
REMARK    2  A    between atoms: C_6  and  C_7 
REMARK    3  A    between atoms: C_7  and  N_8 
REMARK       I    between atoms: N_8  and  C_9 
REMARK       I    between atoms: C_9  and  N_11 
REMARK    4  A    between atoms: N_11  and  C_12 
ROOT
HETATM    1  N   UNL     1     -42.881 -52.893  12.021  1.00  0.00    -0.342 N 
HETATM    2  C   UNL     1     -41.880 -52.027  12.428  1.00  0.00     0.322 C 
HETATM    3  O   UNL     1     -41.479 -52.002  13.583  1.00  0.00    -0.247 OA
HETATM    4  N   UNL     1     -41.406 -51.295  11.370  1.00  0.00    -0.289 N 
HETATM    5  H   UNL     1     -43.571 -52.473  11.405  1.00  0.00     0.164 HD
HETATM    6  H   UNL     1     -41.573 -51.639  10.441  1.00  0.00     0.172 HD
ENDROOT
BRANCH   1   7
HETATM    7  C   UNL     1     -43.459 -53.769  13.020  1.00  0.00     0.131 C 
BRANCH   7   8
HETATM    8  C   UNL     1     -44.932 -54.079  12.742  1.00  0.00     0.032 C 
HETATM    9  C   UNL     1     -45.874 -52.894  12.979  1.00  0.00     0.123 C 
HETATM   10  C   UNL     1     -46.060 -52.850  14.494  1.00  0.00     0.032 C 
HETATM   11  C   UNL     1     -45.847 -54.286  14.978  1.00  0.00     0.003 C 
HETATM   12  C   UNL     1     -45.478 -55.103  13.740  1.00  0.00     0.009 C 
BRANCH   9  13
HETATM   13  O   UNL     1     -45.368 -51.672  12.467  1.00  0.00    -0.395 OA
HETATM   14  H   UNL     1     -44.914 -51.222  13.204  1.00  0.00     0.210 HD
ENDBRANCH   9  13
ENDBRANCH   7   8
ENDBRANCH   1   7
BRANCH   4  15
HETATM   15  C   UNL     1     -40.399 -50.387  11.541  1.00  0.00     0.152 A 
HETATM   16  N   UNL     1     -39.114 -50.596  11.672  1.00  0.00    -0.346 N 
HETATM   17  C   UNL     1     -38.457 -49.388  11.756  1.00  0.00     0.097 A 
ATOM     18  HN  UNL     1     -38.667 -51.513  11.706  1.00  0.00     0.167 HD
HETATM   19  C   UNL     1     -39.264 -48.271  11.708  1.00  0.00     0.070 A 
HETATM   20  S   UNL     1     -40.908 -48.757  11.590  1.00  0.00    -0.064 SA
ENDBRANCH   4  15
TORSDOF 4
ENDMDL
MODEL 7
REMARK VINA RESULT:      -5.4      4.070      5.266
REMARK  4 active torsions:
REMARK  status: ('A' for Active; 'I' for Inactive)
REMARK    1  A    between atoms: O_1  and  C_2 
REMARK    2  A    between atoms: C_6  and  C_7 
REMARK    3  A    between atoms: C_7  and  N_8 
REMARK       I    between atoms: N_8  and  C_9 
REMARK       I    between atoms: C_9  and  N_11 
REMARK    4  A    between atoms: N_11  and  C_12 
ROOT
HETATM    1  N   UNL     1     -42.741 -50.948  12.109  1.00  0.00    -0.342 N 
HETATM    2  C   UNL     1     -41.995 -49.784  12.193  1.00  0.00     0.322 C 
HETATM    3  O   UNL     1     -41.260 -49.556  13.143  1.00  0.00    -0.247 OA
HETATM    4  N   UNL     1     -42.165 -49.012  11.073  1.00  0.00    -0.289 N 
HETATM    5  H   UNL     1     -43.694 -50.810  11.784  1.00  0.00     0.164 HD
HETATM    6  H   UNL     1     -42.514 -49.453  10.240  1.00  0.00     0.172 HD
ENDROOT
BRANCH   1   7
HETATM    7  C   UNL     1     -42.637 -51.893  13.203  1.00  0.00     0.131 C 
BRANCH   7   8
HETATM    8  C   UNL     1     -42.699 -53.346  12.725  1.00  0.00     0.032 C 
HETATM    9  C   UNL     1     -44.121 -53.905  12.611  1.00  0.00     0.123 C 
HETATM   10  C   UNL     1     -44.512 -54.249  14.046  1.00  0.00     0.032 C 
HETATM   11  C   UNL     1     -43.199 -54.542  14.774  1.00  0.00     0.003 C 
HETATM   12  C   UNL     1     -42.084 -54.292  13.759  1.00  0.00     0.009 C 
BRANCH   9  13
HETATM   13  O   UNL     1     -45.028 -52.994  12.013  1.00  0.00    -0.395 OA
HETATM   14  H   UNL     1     -45.657 -52.723  12.707  1.00  0.00     0.210 HD
ENDBRANCH   9  13
ENDBRANCH   7   8
ENDBRANCH   1   7
BRANCH   4  15
HETATM   15  C   UNL     1     -41.506 -47.822  10.934  1.00  0.00     0.152 A 
HETATM   16  N   UNL     1     -40.232 -47.563  11.086  1.00  0.00    -0.346 N 
HETATM   17  C   UNL     1     -39.993 -46.241  10.784  1.00  0.00     0.097 A 
ATOM     18  HN  UNL     1     -39.526 -48.237  11.381  1.00  0.00     0.167 HD
HETATM   19  C   UNL     1     -41.103 -45.505  10.425  1.00  0.00     0.070 A 
HETATM   20  S   UNL     1     -42.501 -46.502  10.505  1.00  0.00    -0.064 SA
ENDBRANCH   4  15
TORSDOF 4
ENDMDL
MODEL 8
REMARK VINA RESULT:      -5.1      4.629      6.400
REMARK  4 active torsions:
REMARK  status: ('A' for Active; 'I' for Inactive)
REMARK    1  A    between atoms: O_1  and  C_2 
REMARK    2  A    between atoms: C_6  and  C_7 
REMARK    3  A    between atoms: C_7  and  N_8 
REMARK       I    between atoms: N_8  and  C_9 
REMARK       I    between atoms: C_9  and  N_11 
REMARK    4  A    between atoms: N_11  and  C_12 
ROOT
HETATM    1  N   UNL     1     -42.804 -52.147  12.260  1.00  0.00    -0.342 N 
HETATM    2  C   UNL     1     -42.361 -50.861  12.519  1.00  0.00     0.322 C 
HETATM    3  O   UNL     1     -42.586 -50.303  13.584  1.00  0.00    -0.247 OA
HETATM    4  N   UNL     1     -41.625 -50.376  11.469  1.00  0.00    -0.289 N 
HETATM    5  H   UNL     1     -43.188 -52.277  11.328  1.00  0.00     0.164 HD
HETATM    6  H   UNL     1     -41.235 -51.034  10.817  1.00  0.00     0.172 HD
ENDROOT
BRANCH   1   7
HETATM    7  C   UNL     1     -43.565 -52.817  13.295  1.00  0.00     0.131 C 
BRANCH   7   8
HETATM    8  C   UNL     1     -44.825 -53.492  12.748  1.00  0.00     0.032 C 
HETATM    9  C   UNL     1     -46.067 -52.593  12.754  1.00  0.00     0.123 C 
HETATM   10  C   UNL     1     -46.552 -52.622  14.202  1.00  0.00     0.032 C 
HETATM   11  C   UNL     1     -46.079 -53.961  14.770  1.00  0.00     0.003 C 
HETATM   12  C   UNL     1     -45.276 -54.636  13.658  1.00  0.00     0.009 C 
BRANCH   9  13
HETATM   13  O   UNL     1     -45.798 -51.275  12.306  1.00  0.00    -0.395 OA
HETATM   14  H   UNL     1     -45.926 -50.683  13.071  1.00  0.00     0.210 HD
ENDBRANCH   9  13
ENDBRANCH   7   8
ENDBRANCH   1   7
BRANCH   4  15
HETATM   15  C   UNL     1     -41.073 -49.126  11.517  1.00  0.00     0.152 A 
HETATM   16  N   UNL     1     -40.061 -48.699  12.228  1.00  0.00    -0.346 N 
HETATM   17  C   UNL     1     -39.804 -47.382  11.916  1.00  0.00     0.097 A 
ATOM     18  HN  UNL     1     -39.543 -49.255  12.908  1.00  0.00     0.167 HD
HETATM   19  C   UNL     1     -40.645 -46.820  10.979  1.00  0.00     0.070 A 
HETATM   20  S   UNL     1     -41.823 -47.976  10.501  1.00  0.00    -0.064 SA
ENDBRANCH   4  15
TORSDOF 4
ENDMDL
MODEL 9
REMARK VINA RESULT:      -5.0      4.130      6.020
REMARK  4 active torsions:
REMARK  status: ('A' for Active; 'I' for Inactive)
REMARK    1  A    between atoms: O_1  and  C_2 
REMARK    2  A    between atoms: C_6  and  C_7 
REMARK    3  A    between atoms: C_7  and  N_8 
REMARK       I    between atoms: N_8  and  C_9 
REMARK       I    between atoms: C_9  and  N_11 
REMARK    4  A    between atoms: N_11  and  C_12 
ROOT
HETATM    1  N   UNL     1     -41.275 -50.282  11.085  1.00  0.00    -0.342 N 
HETATM    2  C   UNL     1     -41.709 -51.013  12.179  1.00  0.00     0.322 C 
HETATM    3  O   UNL     1     -41.771 -50.522  13.298  1.00  0.00    -0.247 OA
HETATM    4  N   UNL     1     -42.087 -52.276  11.806  1.00  0.00    -0.289 N 
HETATM    5  H   UNL     1     -40.647 -50.789  10.468  1.00  0.00     0.164 HD
HETATM    6  H   UNL     1     -42.305 -52.441  10.839  1.00  0.00     0.172 HD
ENDROOT
BRANCH   1   7
HETATM    7  C   UNL     1     -40.877 -48.907  11.310  1.00  0.00     0.131 C 
BRANCH   7   8
HETATM    8  C   UNL     1     -41.788 -47.911  10.587  1.00  0.00     0.032 C 
HETATM    9  C   UNL     1     -41.286 -46.464  10.626  1.00  0.00     0.123 C 
HETATM   10  C   UNL     1     -41.667 -45.965  12.017  1.00  0.00     0.032 C 
HETATM   11  C   UNL     1     -42.890 -46.786  12.430  1.00  0.00     0.003 C 
HETATM   12  C   UNL     1     -43.137 -47.782  11.297  1.00  0.00     0.009 C 
BRANCH   9  13
HETATM   13  O   UNL     1     -39.893 -46.355  10.382  1.00  0.00    -0.395 OA
HETATM   14  H   UNL     1     -39.739 -45.467  10.007  1.00  0.00     0.210 HD
ENDBRANCH   9  13
ENDBRANCH   7   8
ENDBRANCH   1   7
BRANCH   4  15
HETATM   15  C   UNL     1     -42.566 -53.165  12.727  1.00  0.00     0.152 A 
HETATM   16  N   UNL     1     -41.924 -53.796  13.676  1.00  0.00    -0.346 N 
HETATM   17  C   UNL     1     -42.813 -54.547  14.413  1.00  0.00     0.097 A 
ATOM     18  HN  UNL     1     -40.919 -53.740  13.844  1.00  0.00     0.167 HD
HETATM   19  C   UNL     1     -44.126 -54.490  13.994  1.00  0.00     0.070 A 
HETATM   20  S   UNL     1     -44.240 -53.486  12.604  1.00  0.00    -0.064 SA
ENDBRANCH   4  15
TORSDOF 4
ENDMDL
