MODEL 1
REMARK VINA RESULT:      -5.7      0.000      0.000
REMARK  4 active torsions:
REMARK  status: ('A' for Active; 'I' for Inactive)
REMARK    1  A    between atoms: C_5  and  N_14 
REMARK    2  A    between atoms: C_9  and  C_10 
REMARK    3  A    between atoms: C_10  and  C_11 
REMARK    4  A    between atoms: C_11  and  O_13 
ROOT
HETATM    1  C   UNL     1     -42.650 -55.356  15.366  1.00  0.00     0.069 C 
HETATM    2  C   UNL     1     -42.902 -54.421  14.214  1.00  0.00     0.035 A 
HETATM    3  N   UNL     1     -41.823 -53.624  13.907  1.00  0.00    -0.195 N 
ATOM      4  HN  UNL     1     -40.958 -53.707  14.441  1.00  0.00     0.184 HD
HETATM    5  C   UNL     1     -41.909 -52.770  12.938  1.00  0.00     0.683 A 
HETATM    6  N   UNL     1     -43.070 -52.640  12.228  1.00  0.00    -0.155 N 
HETATM    7  C   UNL     1     -44.189 -53.355  12.504  1.00  0.00     0.268 A 
HETATM    8  O   UNL     1     -45.247 -53.179  11.900  1.00  0.00    -0.267 OA
HETATM    9  C   UNL     1     -44.088 -54.362  13.573  1.00  0.00     0.043 A 
HETATM   10  H   UNL     1     -43.148 -51.938  11.516  1.00  0.00     0.187 HD
ENDROOT
BRANCH   5  11
HETATM   11  N   UNL     1     -40.853 -51.962  12.588  1.00  0.00    -0.217 N 
HETATM   12  C   UNL     1     -41.034 -50.819  11.692  1.00  0.00     0.141 C 
HETATM   13  C   UNL     1     -39.808 -49.933  11.906  1.00  0.00     0.022 C 
HETATM   14  C   UNL     1     -39.218 -50.413  13.219  1.00  0.00     0.022 C 
HETATM   15  C   UNL     1     -39.553 -51.896  13.237  1.00  0.00     0.141 C 
ENDBRANCH   5  11
BRANCH   9  16
HETATM   16  C   UNL     1     -45.339 -55.132  13.900  1.00  0.00     0.156 C 
BRANCH  16  17
HETATM   17  C   UNL     1     -46.286 -54.456  14.879  1.00  0.00     0.143 C 
HETATM   18  O   UNL     1     -46.159 -54.543  16.095  1.00  0.00    -0.650 OA
BRANCH  17  19
HETATM   19  O   UNL     1     -47.248 -53.687  14.326  1.00  0.00    -0.776 OA
HETATM   20  H   UNL     1     -48.102 -53.682  14.824  1.00  0.00     0.167 HD
ENDBRANCH  17  19
ENDBRANCH  16  17
ENDBRANCH   9  16
TORSDOF 4
ENDMDL
MODEL 2
REMARK VINA RESULT:      -5.5      4.034      5.710
REMARK  4 active torsions:
REMARK  status: ('A' for Active; 'I' for Inactive)
REMARK    1  A    between atoms: C_5  and  N_14 
REMARK    2  A    between atoms: C_9  and  C_10 
REMARK    3  A    between atoms: C_10  and  C_11 
REMARK    4  A    between atoms: C_11  and  O_13 
ROOT
HETATM    1  C   UNL     1     -43.607 -50.650  13.341  1.00  0.00     0.069 C 
HETATM    2  C   UNL     1     -42.476 -50.115  12.503  1.00  0.00     0.035 A 
HETATM    3  N   UNL     1     -42.842 -49.065  11.693  1.00  0.00    -0.195 N 
ATOM      4  HN  UNL     1     -43.802 -48.720  11.705  1.00  0.00     0.184 HD
HETATM    5  C   UNL     1     -41.964 -48.515  10.917  1.00  0.00     0.683 A 
HETATM    6  N   UNL     1     -40.679 -48.981  10.882  1.00  0.00    -0.155 N 
HETATM    7  C   UNL     1     -40.258 -50.041  11.614  1.00  0.00     0.268 A 
HETATM    8  O   UNL     1     -39.116 -50.492  11.521  1.00  0.00    -0.267 OA
HETATM    9  C   UNL     1     -41.236 -50.645  12.534  1.00  0.00     0.043 A 
HETATM   10  H   UNL     1     -40.020 -48.587  10.238  1.00  0.00     0.187 HD
ENDROOT
BRANCH   5  11
HETATM   11  N   UNL     1     -42.282 -47.455  10.099  1.00  0.00    -0.217 N 
HETATM   12  C   UNL     1     -43.278 -47.589   9.036  1.00  0.00     0.141 C 
HETATM   13  C   UNL     1     -43.685 -46.161   8.676  1.00  0.00     0.022 C 
HETATM   14  C   UNL     1     -43.210 -45.323   9.849  1.00  0.00     0.022 C 
HETATM   15  C   UNL     1     -41.964 -46.054  10.324  1.00  0.00     0.141 C 
ENDBRANCH   5  11
BRANCH   9  16
HETATM   16  C   UNL     1     -40.776 -51.841  13.322  1.00  0.00     0.156 C 
BRANCH  16  17
HETATM   17  C   UNL     1     -41.039 -53.192  12.674  1.00  0.00     0.143 C 
HETATM   18  O   UNL     1     -41.741 -54.052  13.192  1.00  0.00    -0.650 OA
BRANCH  17  19
HETATM   19  O   UNL     1     -40.503 -53.366  11.447  1.00  0.00    -0.776 OA
HETATM   20  H   UNL     1     -39.850 -52.671  11.186  1.00  0.00     0.167 HD
ENDBRANCH  17  19
ENDBRANCH  16  17
ENDBRANCH   9  16
TORSDOF 4
ENDMDL
MODEL 3
REMARK VINA RESULT:      -5.4      5.092      7.429
REMARK  4 active torsions:
REMARK  status: ('A' for Active; 'I' for Inactive)
REMARK    1  A    between atoms: C_5  and  N_14 
REMARK    2  A    between atoms: C_9  and  C_10 
REMARK    3  A    between atoms: C_10  and  C_11 
REMARK    4  A    between atoms: C_11  and  O_13 
ROOT
HETATM    1  C   UNL     1     -39.809 -45.326  10.370  1.00  0.00     0.069 C 
HETATM    2  C   UNL     1     -40.532 -46.584  10.773  1.00  0.00     0.035 A 
HETATM    3  N   UNL     1     -39.688 -47.623  11.093  1.00  0.00    -0.195 N 
ATOM      4  HN  UNL     1     -38.677 -47.494  11.047  1.00  0.00     0.184 HD
HETATM    5  C   UNL     1     -40.181 -48.765  11.452  1.00  0.00     0.683 A 
HETATM    6  N   UNL     1     -41.534 -48.953  11.500  1.00  0.00    -0.155 N 
HETATM    7  C   UNL     1     -42.426 -47.992  11.154  1.00  0.00     0.268 A 
HETATM    8  O   UNL     1     -43.640 -48.197  11.137  1.00  0.00    -0.267 OA
HETATM    9  C   UNL     1     -41.878 -46.676  10.788  1.00  0.00     0.043 A 
HETATM   10  H   UNL     1     -41.909 -49.855  11.725  1.00  0.00     0.187 HD
ENDROOT
BRANCH   5  11
HETATM   11  N   UNL     1     -39.376 -49.828  11.791  1.00  0.00    -0.217 N 
HETATM   12  C   UNL     1     -37.919 -49.737  11.695  1.00  0.00     0.141 C 
HETATM   13  C   UNL     1     -37.381 -50.877  12.559  1.00  0.00     0.022 C 
HETATM   14  C   UNL     1     -38.556 -51.280  13.431  1.00  0.00     0.022 C 
HETATM   15  C   UNL     1     -39.762 -51.009  12.546  1.00  0.00     0.141 C 
ENDBRANCH   5  11
BRANCH   9  16
HETATM   16  C   UNL     1     -42.867 -45.621  10.373  1.00  0.00     0.156 C 
BRANCH  16  17
HETATM   17  C   UNL     1     -43.507 -45.824   9.009  1.00  0.00     0.143 C 
HETATM   18  O   UNL     1     -44.717 -45.755   8.825  1.00  0.00    -0.650 OA
BRANCH  17  19
HETATM   19  O   UNL     1     -42.650 -46.019   7.983  1.00  0.00    -0.776 OA
HETATM   20  H   UNL     1     -41.933 -46.673   8.172  1.00  0.00     0.167 HD
ENDBRANCH  17  19
ENDBRANCH  16  17
ENDBRANCH   9  16
TORSDOF 4
ENDMDL
MODEL 4
REMARK VINA RESULT:      -5.4      3.506      6.674
REMARK  4 active torsions:
REMARK  status: ('A' for Active; 'I' for Inactive)
REMARK    1  A    between atoms: C_5  and  N_14 
REMARK    2  A    between atoms: C_9  and  C_10 
REMARK    3  A    between atoms: C_10  and  C_11 
REMARK    4  A    between atoms: C_11  and  O_13 
ROOT
HETATM    1  C   UNL     1     -41.200 -49.261  11.365  1.00  0.00     0.069 C 
HETATM    2  C   UNL     1     -41.055 -50.593  12.052  1.00  0.00     0.035 A 
HETATM    3  N   UNL     1     -42.228 -51.310  12.109  1.00  0.00    -0.195 N 
ATOM      4  HN  UNL     1     -43.082 -50.928  11.704  1.00  0.00     0.184 HD
HETATM    5  C   UNL     1     -42.243 -52.473  12.679  1.00  0.00     0.683 A 
HETATM    6  N   UNL     1     -41.107 -52.987  13.239  1.00  0.00    -0.155 N 
HETATM    7  C   UNL     1     -39.928 -52.318  13.264  1.00  0.00     0.268 A 
HETATM    8  O   UNL     1     -38.931 -52.764  13.832  1.00  0.00    -0.267 OA
HETATM    9  C   UNL     1     -39.887 -51.015  12.579  1.00  0.00     0.043 A 
HETATM   10  H   UNL     1     -41.139 -53.862  13.727  1.00  0.00     0.187 HD
ENDROOT
BRANCH   5  11
HETATM   11  N   UNL     1     -43.389 -53.230  12.749  1.00  0.00    -0.217 N 
HETATM   12  C   UNL     1     -43.451 -54.440  13.571  1.00  0.00     0.141 C 
HETATM   13  C   UNL     1     -44.940 -54.727  13.763  1.00  0.00     0.022 C 
HETATM   14  C   UNL     1     -45.628 -53.425  13.397  1.00  0.00     0.022 C 
HETATM   15  C   UNL     1     -44.723 -52.835  12.327  1.00  0.00     0.141 C 
ENDBRANCH   5  11
BRANCH   9  16
HETATM   16  C   UNL     1     -38.588 -50.260  12.635  1.00  0.00     0.156 C 
BRANCH  16  17
HETATM   17  C   UNL     1     -37.541 -50.683  11.616  1.00  0.00     0.143 C 
HETATM   18  O   UNL     1     -36.737 -51.585  11.824  1.00  0.00    -0.650 OA
BRANCH  17  19
HETATM   19  O   UNL     1     -37.591 -50.047  10.426  1.00  0.00    -0.776 OA
HETATM   20  H   UNL     1     -38.485 -49.697  10.189  1.00  0.00     0.167 HD
ENDBRANCH  17  19
ENDBRANCH  16  17
ENDBRANCH   9  16
TORSDOF 4
ENDMDL
MODEL 5
REMARK VINA RESULT:      -5.3      3.401      6.365
REMARK  4 active torsions:
REMARK  status: ('A' for Active; 'I' for Inactive)
REMARK    1  A    between atoms: C_5  and  N_14 
REMARK    2  A    between atoms: C_9  and  C_10 
REMARK    3  A    between atoms: C_10  and  C_11 
REMARK    4  A    between atoms: C_11  and  O_13 
ROOT
HETATM    1  C   UNL     1     -39.050 -52.227  15.042  1.00  0.00     0.069 C 
HETATM    2  C   UNL     1     -40.012 -51.921  13.926  1.00  0.00     0.035 A 
HETATM    3  N   UNL     1     -41.143 -52.706  13.945  1.00  0.00    -0.195 N 
ATOM      4  HN  UNL     1     -41.265 -53.409  14.674  1.00  0.00     0.184 HD
HETATM    5  C   UNL     1     -42.051 -52.548  13.036  1.00  0.00     0.683 A 
HETATM    6  N   UNL     1     -41.889 -51.620  12.046  1.00  0.00    -0.155 N 
HETATM    7  C   UNL     1     -40.781 -50.846  11.933  1.00  0.00     0.268 A 
HETATM    8  O   UNL     1     -40.620 -50.063  10.998  1.00  0.00    -0.267 OA
HETATM    9  C   UNL     1     -39.763 -50.984  12.988  1.00  0.00     0.043 A 
HETATM   10  H   UNL     1     -42.569 -51.543  11.314  1.00  0.00     0.187 HD
ENDROOT
BRANCH   5  11
HETATM   11  N   UNL     1     -43.202 -53.302  13.024  1.00  0.00    -0.217 N 
HETATM   12  C   UNL     1     -43.324 -54.515  13.832  1.00  0.00     0.141 C 
HETATM   13  C   UNL     1     -44.823 -54.799  13.920  1.00  0.00     0.022 C 
HETATM   14  C   UNL     1     -45.481 -53.492  13.515  1.00  0.00     0.022 C 
HETATM   15  C   UNL     1     -44.502 -52.900  12.513  1.00  0.00     0.141 C 
ENDBRANCH   5  11
BRANCH   9  16
HETATM   16  C   UNL     1     -38.521 -50.147  12.844  1.00  0.00     0.156 C 
BRANCH  16  17
HETATM   17  C   UNL     1     -37.482 -50.681  11.870  1.00  0.00     0.143 C 
HETATM   18  O   UNL     1     -36.706 -51.586  12.156  1.00  0.00    -0.650 OA
BRANCH  17  19
HETATM   19  O   UNL     1     -37.507 -50.140  10.633  1.00  0.00    -0.776 OA
HETATM   20  H   UNL     1     -38.295 -50.396  10.094  1.00  0.00     0.167 HD
ENDBRANCH  17  19
ENDBRANCH  16  17
ENDBRANCH   9  16
TORSDOF 4
ENDMDL
MODEL 6
REMARK VINA RESULT:      -5.1      2.363      2.953
REMARK  4 active torsions:
REMARK  status: ('A' for Active; 'I' for Inactive)
REMARK    1  A    between atoms: C_5  and  N_14 
REMARK    2  A    between atoms: C_9  and  C_10 
REMARK    3  A    between atoms: C_10  and  C_11 
REMARK    4  A    between atoms: C_11  and  O_13 
ROOT
HETATM    1  C   UNL     1     -45.380 -50.651  16.472  1.00  0.00     0.069 C 
HETATM    2  C   UNL     1     -45.026 -51.050  15.064  1.00  0.00     0.035 A 
HETATM    3  N   UNL     1     -44.037 -50.273  14.506  1.00  0.00    -0.195 N 
ATOM      4  HN  UNL     1     -43.617 -49.515  15.044  1.00  0.00     0.184 HD
HETATM    5  C   UNL     1     -43.641 -50.508  13.295  1.00  0.00     0.683 A 
HETATM    6  N   UNL     1     -44.209 -51.511  12.561  1.00  0.00    -0.155 N 
HETATM    7  C   UNL     1     -45.220 -52.285  13.026  1.00  0.00     0.268 A 
HETATM    8  O   UNL     1     -45.768 -53.140  12.329  1.00  0.00    -0.267 OA
HETATM    9  C   UNL     1     -45.647 -52.058  14.417  1.00  0.00     0.043 A 
HETATM   10  H   UNL     1     -43.937 -51.650  11.607  1.00  0.00     0.187 HD
ENDROOT
BRANCH   5  11
HETATM   11  N   UNL     1     -42.648 -49.764  12.701  1.00  0.00    -0.217 N 
HETATM   12  C   UNL     1     -41.418 -50.390  12.215  1.00  0.00     0.141 C 
HETATM   13  C   UNL     1     -40.802 -49.382  11.246  1.00  0.00     0.022 C 
HETATM   14  C   UNL     1     -41.937 -48.429  10.917  1.00  0.00     0.022 C 
HETATM   15  C   UNL     1     -42.760 -48.405  12.196  1.00  0.00     0.141 C 
ENDBRANCH   5  11
BRANCH   9  16
HETATM   16  C   UNL     1     -46.790 -52.896  14.921  1.00  0.00     0.156 C 
BRANCH  16  17
HETATM   17  C   UNL     1     -46.425 -54.309  15.351  1.00  0.00     0.143 C 
HETATM   18  O   UNL     1     -45.915 -54.563  16.435  1.00  0.00    -0.650 OA
BRANCH  17  19
HETATM   19  O   UNL     1     -46.764 -55.289  14.486  1.00  0.00    -0.776 OA
HETATM   20  H   UNL     1     -46.967 -54.973  13.572  1.00  0.00     0.167 HD
ENDBRANCH  17  19
ENDBRANCH  16  17
ENDBRANCH   9  16
TORSDOF 4
ENDMDL
MODEL 7
REMARK VINA RESULT:      -5.0      3.546      5.436
REMARK  4 active torsions:
REMARK  status: ('A' for Active; 'I' for Inactive)
REMARK    1  A    between atoms: C_5  and  N_14 
REMARK    2  A    between atoms: C_9  and  C_10 
REMARK    3  A    between atoms: C_10  and  C_11 
REMARK    4  A    between atoms: C_11  and  O_13 
ROOT
HETATM    1  C   UNL     1     -41.773 -54.999  17.029  1.00  0.00     0.069 C 
HETATM    2  C   UNL     1     -41.937 -54.023  15.895  1.00  0.00     0.035 A 
HETATM    3  N   UNL     1     -43.251 -53.782  15.563  1.00  0.00    -0.195 N 
ATOM      4  HN  UNL     1     -44.001 -54.246  16.076  1.00  0.00     0.184 HD
HETATM    5  C   UNL     1     -43.531 -52.964  14.600  1.00  0.00     0.683 A 
HETATM    6  N   UNL     1     -42.533 -52.350  13.897  1.00  0.00    -0.155 N 
HETATM    7  C   UNL     1     -41.217 -52.575  14.134  1.00  0.00     0.268 A 
HETATM    8  O   UNL     1     -40.329 -52.067  13.448  1.00  0.00    -0.267 OA
HETATM    9  C   UNL     1     -40.885 -53.468  15.257  1.00  0.00     0.043 A 
HETATM   10  H   UNL     1     -42.756 -51.762  13.117  1.00  0.00     0.187 HD
ENDROOT
BRANCH   5  11
HETATM   11  N   UNL     1     -44.830 -52.684  14.242  1.00  0.00    -0.217 N 
HETATM   12  C   UNL     1     -45.697 -51.878  15.101  1.00  0.00     0.141 C 
HETATM   13  C   UNL     1     -46.841 -51.409  14.202  1.00  0.00     0.022 C 
HETATM   14  C   UNL     1     -46.327 -51.625  12.790  1.00  0.00     0.022 C 
HETATM   15  C   UNL     1     -45.424 -52.841  12.925  1.00  0.00     0.141 C 
ENDBRANCH   5  11
BRANCH   9  16
HETATM   16  C   UNL     1     -39.426 -53.741  15.498  1.00  0.00     0.156 C 
BRANCH  16  17
HETATM   17  C   UNL     1     -38.856 -54.945  14.763  1.00  0.00     0.143 C 
HETATM   18  O   UNL     1     -38.537 -55.982  15.334  1.00  0.00    -0.650 OA
BRANCH  17  19
HETATM   19  O   UNL     1     -38.784 -54.831  13.420  1.00  0.00    -0.776 OA
HETATM   20  H   UNL     1     -37.966 -55.216  13.022  1.00  0.00     0.167 HD
ENDBRANCH  17  19
ENDBRANCH  16  17
ENDBRANCH   9  16
TORSDOF 4
ENDMDL
MODEL 8
REMARK VINA RESULT:      -4.9      1.511      1.744
REMARK  4 active torsions:
REMARK  status: ('A' for Active; 'I' for Inactive)
REMARK    1  A    between atoms: C_5  and  N_14 
REMARK    2  A    between atoms: C_9  and  C_10 
REMARK    3  A    between atoms: C_10  and  C_11 
REMARK    4  A    between atoms: C_11  and  O_13 
ROOT
HETATM    1  C   UNL     1     -41.770 -54.697  15.131  1.00  0.00     0.069 C 
HETATM    2  C   UNL     1     -41.995 -53.443  14.328  1.00  0.00     0.035 A 
HETATM    3  N   UNL     1     -40.831 -52.867  13.872  1.00  0.00    -0.195 N 
ATOM      4  HN  UNL     1     -39.931 -53.296  14.085  1.00  0.00     0.184 HD
HETATM    5  C   UNL     1     -40.884 -51.779  13.172  1.00  0.00     0.683 A 
HETATM    6  N   UNL     1     -42.085 -51.188  12.897  1.00  0.00    -0.155 N 
HETATM    7  C   UNL     1     -43.268 -51.669  13.353  1.00  0.00     0.268 A 
HETATM    8  O   UNL     1     -44.335 -51.089  13.154  1.00  0.00    -0.267 OA
HETATM    9  C   UNL     1     -43.224 -52.931  14.111  1.00  0.00     0.043 A 
HETATM   10  H   UNL     1     -42.114 -50.316  12.402  1.00  0.00     0.187 HD
ENDROOT
BRANCH   5  11
HETATM   11  N   UNL     1     -39.748 -51.175  12.686  1.00  0.00    -0.217 N 
HETATM   12  C   UNL     1     -39.824 -50.099  11.696  1.00  0.00     0.141 C 
HETATM   13  C   UNL     1     -38.468 -49.396  11.753  1.00  0.00     0.022 C 
HETATM   14  C   UNL     1     -37.861 -49.847  13.069  1.00  0.00     0.022 C 
HETATM   15  C   UNL     1     -38.409 -51.254  13.248  1.00  0.00     0.141 C 
ENDBRANCH   5  11
BRANCH   9  16
HETATM   16  C   UNL     1     -44.533 -53.448  14.644  1.00  0.00     0.156 C 
BRANCH  16  17
HETATM   17  C   UNL     1     -45.292 -54.385  13.717  1.00  0.00     0.143 C 
HETATM   18  O   UNL     1     -45.437 -55.579  13.952  1.00  0.00    -0.650 OA
BRANCH  17  19
HETATM   19  O   UNL     1     -45.865 -53.806  12.640  1.00  0.00    -0.776 OA
HETATM   20  H   UNL     1     -45.228 -53.348  12.038  1.00  0.00     0.167 HD
ENDBRANCH  17  19
ENDBRANCH  16  17
ENDBRANCH   9  16
TORSDOF 4
ENDMDL
MODEL 9
REMARK VINA RESULT:      -4.9      3.015      5.646
REMARK  4 active torsions:
REMARK  status: ('A' for Active; 'I' for Inactive)
REMARK    1  A    between atoms: C_5  and  N_14 
REMARK    2  A    between atoms: C_9  and  C_10 
REMARK    3  A    between atoms: C_10  and  C_11 
REMARK    4  A    between atoms: C_11  and  O_13 
ROOT
HETATM    1  C   UNL     1     -41.778 -55.007  16.147  1.00  0.00     0.069 C 
HETATM    2  C   UNL     1     -42.796 -54.275  15.313  1.00  0.00     0.035 A 
HETATM    3  N   UNL     1     -43.922 -53.912  16.016  1.00  0.00    -0.195 N 
ATOM      4  HN  UNL     1     -44.002 -54.140  17.007  1.00  0.00     0.184 HD
HETATM    5  C   UNL     1     -44.879 -53.280  15.415  1.00  0.00     0.683 A 
HETATM    6  N   UNL     1     -44.788 -52.985  14.084  1.00  0.00    -0.155 N 
HETATM    7  C   UNL     1     -43.733 -53.353  13.316  1.00  0.00     0.268 A 
HETATM    8  O   UNL     1     -43.696 -53.140  12.104  1.00  0.00    -0.267 OA
HETATM    9  C   UNL     1     -42.618 -54.032  13.998  1.00  0.00     0.043 A 
HETATM   10  H   UNL     1     -45.556 -52.545  13.613  1.00  0.00     0.187 HD
ENDROOT
BRANCH   5  11
HETATM   11  N   UNL     1     -46.017 -52.887  16.080  1.00  0.00    -0.217 N 
HETATM   12  C   UNL     1     -46.057 -52.815  17.541  1.00  0.00     0.141 C 
HETATM   13  C   UNL     1     -47.260 -51.934  17.875  1.00  0.00     0.022 C 
HETATM   14  C   UNL     1     -47.574 -51.213  16.577  1.00  0.00     0.022 C 
HETATM   15  C   UNL     1     -47.175 -52.219  15.508  1.00  0.00     0.141 C 
ENDBRANCH   5  11
BRANCH   9  16
HETATM   16  C   UNL     1     -41.462 -54.468  13.140  1.00  0.00     0.156 C 
BRANCH  16  17
HETATM   17  C   UNL     1     -40.572 -53.348  12.623  1.00  0.00     0.143 C 
HETATM   18  O   UNL     1     -39.765 -52.759  13.332  1.00  0.00    -0.650 OA
BRANCH  17  19
HETATM   19  O   UNL     1     -40.673 -53.083  11.302  1.00  0.00    -0.776 OA
HETATM   20  H   UNL     1     -41.589 -53.165  10.940  1.00  0.00     0.167 HD
ENDBRANCH  17  19
ENDBRANCH  16  17
ENDBRANCH   9  16
TORSDOF 4
ENDMDL
