MODEL 1
REMARK VINA RESULT:      -6.5      0.000      0.000
REMARK  4 active torsions:
REMARK  status: ('A' for Active; 'I' for Inactive)
REMARK    1  A    between atoms: C_4  and  N_5 
REMARK       I    between atoms: N_5  and  C_6 
REMARK       I    between atoms: C_6  and  N_8 
REMARK    2  A    between atoms: N_8  and  C_9 
REMARK    3  A    between atoms: C_9  and  C_10 
REMARK    4  A    between atoms: C_10  and  O_11 
ROOT
HETATM    1  N   UNL     1     -42.173 -48.411   9.965  1.00  0.00    -0.309 N 
HETATM    2  C   UNL     1     -42.022 -49.031  11.182  1.00  0.00     0.320 C 
HETATM    3  O   UNL     1     -42.705 -48.845  12.186  1.00  0.00    -0.247 OA
HETATM    4  N   UNL     1     -40.968 -49.915  11.205  1.00  0.00    -0.340 N 
HETATM    5  H   UNL     1     -41.451 -48.586   9.282  1.00  0.00     0.170 HD
HETATM    6  H   UNL     1     -40.741 -50.398  10.346  1.00  0.00     0.164 HD
ENDROOT
BRANCH   1   7
HETATM    7  C   UNL     1     -43.142 -47.429   9.655  1.00  0.00     0.039 A 
HETATM    8  C   UNL     1     -44.481 -47.734   9.420  1.00  0.00     0.054 A 
HETATM    9  C   UNL     1     -45.390 -46.710   9.173  1.00  0.00     0.007 A 
HETATM   10  C   UNL     1     -46.846 -47.031   9.005  1.00  0.00     0.068 C 
HETATM   11  N   UNL     1     -45.022 -45.411   9.123  1.00  0.00    -0.369 N 
HETATM   12  C   UNL     1     -43.715 -45.136   9.329  1.00  0.00     0.090 A 
ATOM     13  HN  UNL     1     -45.699 -44.672   8.938  1.00  0.00     0.165 HD
HETATM   14  C   UNL     1     -42.749 -46.095   9.597  1.00  0.00     0.046 A 
ENDBRANCH   1   7
BRANCH   4  15
HETATM   15  C   UNL     1     -40.773 -50.656  12.440  1.00  0.00     0.162 C 
BRANCH  15  16
HETATM   16  C   UNL     1     -41.226 -52.112  12.355  1.00  0.00     0.074 C 
HETATM   17  C   UNL     1     -42.654 -52.288  12.893  1.00  0.00     0.039 C 
HETATM   18  C   UNL     1     -42.689 -53.663  13.565  1.00  0.00     0.003 C 
HETATM   19  C   UNL     1     -41.306 -54.268  13.375  1.00  0.00     0.003 C 
HETATM   20  C   UNL     1     -40.387 -53.067  13.201  1.00  0.00     0.039 C 
BRANCH  16  21
HETATM   21  O   UNL     1     -41.167 -52.543  10.987  1.00  0.00    -0.388 OA
HETATM   22  H   UNL     1     -40.447 -52.051  10.552  1.00  0.00     0.210 HD
ENDBRANCH  16  21
ENDBRANCH  15  16
ENDBRANCH   4  15
TORSDOF 4
ENDMDL
MODEL 2
REMARK VINA RESULT:      -6.5      2.223      3.083
REMARK  4 active torsions:
REMARK  status: ('A' for Active; 'I' for Inactive)
REMARK    1  A    between atoms: C_4  and  N_5 
REMARK       I    between atoms: N_5  and  C_6 
REMARK       I    between atoms: C_6  and  N_8 
REMARK    2  A    between atoms: N_8  and  C_9 
REMARK    3  A    between atoms: C_9  and  C_10 
REMARK    4  A    between atoms: C_10  and  O_11 
ROOT
HETATM    1  N   UNL     1     -42.044 -48.260   9.457  1.00  0.00    -0.309 N 
HETATM    2  C   UNL     1     -41.634 -48.830  10.639  1.00  0.00     0.320 C 
HETATM    3  O   UNL     1     -42.139 -48.662  11.746  1.00  0.00    -0.247 OA
HETATM    4  N   UNL     1     -40.530 -49.637  10.488  1.00  0.00    -0.340 N 
HETATM    5  H   UNL     1     -41.444 -48.405   8.659  1.00  0.00     0.170 HD
HETATM    6  H   UNL     1     -40.424 -50.130   9.611  1.00  0.00     0.164 HD
ENDROOT
BRANCH   1   7
HETATM    7  C   UNL     1     -43.123 -47.359   9.308  1.00  0.00     0.039 A 
HETATM    8  C   UNL     1     -44.446 -47.775   9.175  1.00  0.00     0.054 A 
HETATM    9  C   UNL     1     -45.462 -46.830   9.087  1.00  0.00     0.007 A 
HETATM   10  C   UNL     1     -46.893 -47.279   9.030  1.00  0.00     0.068 C 
HETATM   11  N   UNL     1     -45.219 -45.501   9.097  1.00  0.00    -0.369 N 
HETATM   12  C   UNL     1     -43.929 -45.115   9.203  1.00  0.00     0.090 A 
ATOM     13  HN  UNL     1     -45.976 -44.820   9.029  1.00  0.00     0.165 HD
HETATM   14  C   UNL     1     -42.859 -45.992   9.312  1.00  0.00     0.046 A 
ENDBRANCH   1   7
BRANCH   4  15
HETATM   15  C   UNL     1     -40.064 -50.324  11.681  1.00  0.00     0.162 C 
BRANCH  15  16
HETATM   16  C   UNL     1     -38.742 -49.781  12.220  1.00  0.00     0.074 C 
HETATM   17  C   UNL     1     -38.021 -50.821  13.092  1.00  0.00     0.039 C 
HETATM   18  C   UNL     1     -37.311 -50.033  14.195  1.00  0.00     0.003 C 
HETATM   19  C   UNL     1     -37.599 -48.563  13.925  1.00  0.00     0.003 C 
HETATM   20  C   UNL     1     -38.901 -48.570  13.137  1.00  0.00     0.039 C 
BRANCH  16  21
HETATM   21  O   UNL     1     -37.903 -49.409  11.116  1.00  0.00    -0.388 OA
HETATM   22  H   UNL     1     -37.722 -50.213  10.597  1.00  0.00     0.210 HD
ENDBRANCH  16  21
ENDBRANCH  15  16
ENDBRANCH   4  15
TORSDOF 4
ENDMDL
MODEL 3
REMARK VINA RESULT:      -6.5      1.131      1.945
REMARK  4 active torsions:
REMARK  status: ('A' for Active; 'I' for Inactive)
REMARK    1  A    between atoms: C_4  and  N_5 
REMARK       I    between atoms: N_5  and  C_6 
REMARK       I    between atoms: C_6  and  N_8 
REMARK    2  A    between atoms: N_8  and  C_9 
REMARK    3  A    between atoms: C_9  and  C_10 
REMARK    4  A    between atoms: C_10  and  O_11 
ROOT
HETATM    1  N   UNL     1     -41.612 -48.730  10.127  1.00  0.00    -0.309 N 
HETATM    2  C   UNL     1     -41.324 -49.365  11.312  1.00  0.00     0.320 C 
HETATM    3  O   UNL     1     -41.660 -49.001  12.436  1.00  0.00    -0.247 OA
HETATM    4  N   UNL     1     -40.564 -50.498  11.140  1.00  0.00    -0.340 N 
HETATM    5  H   UNL     1     -41.156 -49.093   9.304  1.00  0.00     0.170 HD
HETATM    6  H   UNL     1     -40.694 -51.027  10.288  1.00  0.00     0.164 HD
ENDROOT
BRANCH   1   7
HETATM    7  C   UNL     1     -42.341 -47.526   9.994  1.00  0.00     0.039 A 
HETATM    8  C   UNL     1     -42.024 -46.365  10.697  1.00  0.00     0.054 A 
HETATM    9  C   UNL     1     -42.752 -45.202  10.475  1.00  0.00     0.007 A 
HETATM   10  C   UNL     1     -42.355 -43.932  11.169  1.00  0.00     0.068 C 
HETATM   11  N   UNL     1     -43.791 -45.150   9.612  1.00  0.00    -0.369 N 
HETATM   12  C   UNL     1     -44.100 -46.290   8.957  1.00  0.00     0.090 A 
ATOM     13  HN  UNL     1     -44.317 -44.290   9.463  1.00  0.00     0.165 HD
HETATM   14  C   UNL     1     -43.414 -47.488   9.108  1.00  0.00     0.046 A 
ENDBRANCH   1   7
BRANCH   4  15
HETATM   15  C   UNL     1     -40.262 -51.261  12.339  1.00  0.00     0.162 C 
BRANCH  15  16
HETATM   16  C   UNL     1     -40.952 -52.624  12.385  1.00  0.00     0.074 C 
HETATM   17  C   UNL     1     -42.481 -52.480  12.356  1.00  0.00     0.039 C 
HETATM   18  C   UNL     1     -43.031 -53.612  13.227  1.00  0.00     0.003 C 
HETATM   19  C   UNL     1     -41.825 -54.405  13.711  1.00  0.00     0.003 C 
HETATM   20  C   UNL     1     -40.674 -53.411  13.663  1.00  0.00     0.039 C 
BRANCH  16  21
HETATM   21  O   UNL     1     -40.517 -53.407  11.263  1.00  0.00    -0.388 OA
HETATM   22  H   UNL     1     -41.301 -53.607  10.720  1.00  0.00     0.210 HD
ENDBRANCH  16  21
ENDBRANCH  15  16
ENDBRANCH   4  15
TORSDOF 4
ENDMDL
MODEL 4
REMARK VINA RESULT:      -6.1      1.749      7.066
REMARK  4 active torsions:
REMARK  status: ('A' for Active; 'I' for Inactive)
REMARK    1  A    between atoms: C_4  and  N_5 
REMARK       I    between atoms: N_5  and  C_6 
REMARK       I    between atoms: C_6  and  N_8 
REMARK    2  A    between atoms: N_8  and  C_9 
REMARK    3  A    between atoms: C_9  and  C_10 
REMARK    4  A    between atoms: C_10  and  O_11 
ROOT
HETATM    1  N   UNL     1     -40.889 -50.935  11.439  1.00  0.00    -0.309 N 
HETATM    2  C   UNL     1     -41.465 -49.689  11.508  1.00  0.00     0.320 C 
HETATM    3  O   UNL     1     -42.121 -49.238  12.445  1.00  0.00    -0.247 OA
HETATM    4  N   UNL     1     -41.263 -48.942  10.371  1.00  0.00    -0.340 N 
HETATM    5  H   UNL     1     -40.490 -51.194  10.549  1.00  0.00     0.170 HD
HETATM    6  H   UNL     1     -40.402 -49.086   9.861  1.00  0.00     0.164 HD
ENDROOT
BRANCH   1   7
HETATM    7  C   UNL     1     -40.962 -51.933  12.438  1.00  0.00     0.039 A 
HETATM    8  C   UNL     1     -42.126 -52.646  12.714  1.00  0.00     0.054 A 
HETATM    9  C   UNL     1     -42.110 -53.651  13.675  1.00  0.00     0.007 A 
HETATM   10  C   UNL     1     -43.341 -54.476  13.911  1.00  0.00     0.068 C 
HETATM   11  N   UNL     1     -41.002 -53.957  14.385  1.00  0.00    -0.369 N 
HETATM   12  C   UNL     1     -39.888 -53.240  14.121  1.00  0.00     0.090 A 
ATOM     13  HN  UNL     1     -41.006 -54.696  15.088  1.00  0.00     0.165 HD
HETATM   14  C   UNL     1     -39.815 -52.233  13.169  1.00  0.00     0.046 A 
ENDBRANCH   1   7
BRANCH   4  15
HETATM   15  C   UNL     1     -41.793 -47.589  10.384  1.00  0.00     0.162 C 
BRANCH  15  16
HETATM   16  C   UNL     1     -42.983 -47.391   9.448  1.00  0.00     0.074 C 
HETATM   17  C   UNL     1     -43.147 -45.916   9.051  1.00  0.00     0.039 C 
HETATM   18  C   UNL     1     -44.652 -45.674   8.922  1.00  0.00     0.003 C 
HETATM   19  C   UNL     1     -45.326 -47.009   9.207  1.00  0.00     0.003 C 
HETATM   20  C   UNL     1     -44.326 -47.762  10.072  1.00  0.00     0.039 C 
BRANCH  16  21
HETATM   21  O   UNL     1     -42.791 -48.191   8.271  1.00  0.00    -0.388 OA
HETATM   22  H   UNL     1     -42.909 -47.612   7.496  1.00  0.00     0.210 HD
ENDBRANCH  16  21
ENDBRANCH  15  16
ENDBRANCH   4  15
TORSDOF 4
ENDMDL
MODEL 5
REMARK VINA RESULT:      -6.0      3.844      5.848
REMARK  4 active torsions:
REMARK  status: ('A' for Active; 'I' for Inactive)
REMARK    1  A    between atoms: C_4  and  N_5 
REMARK       I    between atoms: N_5  and  C_6 
REMARK       I    between atoms: C_6  and  N_8 
REMARK    2  A    between atoms: N_8  and  C_9 
REMARK    3  A    between atoms: C_9  and  C_10 
REMARK    4  A    between atoms: C_10  and  O_11 
ROOT
HETATM    1  N   UNL     1     -41.970 -51.454  11.672  1.00  0.00    -0.309 N 
HETATM    2  C   UNL     1     -42.472 -52.385  12.550  1.00  0.00     0.320 C 
HETATM    3  O   UNL     1     -42.013 -52.669  13.654  1.00  0.00    -0.247 OA
HETATM    4  N   UNL     1     -43.582 -53.036  12.064  1.00  0.00    -0.340 N 
HETATM    5  H   UNL     1     -42.393 -51.431  10.756  1.00  0.00     0.170 HD
HETATM    6  H   UNL     1     -44.197 -52.520  11.449  1.00  0.00     0.164 HD
ENDROOT
BRANCH   1   7
HETATM    7  C   UNL     1     -40.819 -50.661  11.880  1.00  0.00     0.039 A 
HETATM    8  C   UNL     1     -39.594 -51.192  12.277  1.00  0.00     0.054 A 
HETATM    9  C   UNL     1     -38.489 -50.358  12.411  1.00  0.00     0.007 A 
HETATM   10  C   UNL     1     -37.151 -50.943  12.754  1.00  0.00     0.068 C 
HETATM   11  N   UNL     1     -38.557 -49.025  12.197  1.00  0.00    -0.369 N 
HETATM   12  C   UNL     1     -39.759 -48.523  11.836  1.00  0.00     0.090 A 
ATOM     13  HN  UNL     1     -37.739 -48.426  12.302  1.00  0.00     0.165 HD
HETATM   14  C   UNL     1     -40.904 -49.288  11.665  1.00  0.00     0.046 A 
ENDBRANCH   1   7
BRANCH   4  15
HETATM   15  C   UNL     1     -44.208 -53.998  12.954  1.00  0.00     0.162 C 
BRANCH  15  16
HETATM   16  C   UNL     1     -45.478 -53.474  13.622  1.00  0.00     0.074 C 
HETATM   17  C   UNL     1     -46.163 -52.401  12.762  1.00  0.00     0.039 C 
HETATM   18  C   UNL     1     -46.778 -51.400  13.742  1.00  0.00     0.003 C 
HETATM   19  C   UNL     1     -46.473 -51.924  15.139  1.00  0.00     0.003 C 
HETATM   20  C   UNL     1     -45.227 -52.779  14.958  1.00  0.00     0.039 C 
BRANCH  16  21
HETATM   21  O   UNL     1     -46.379 -54.570  13.840  1.00  0.00    -0.388 OA
HETATM   22  H   UNL     1     -47.286 -54.214  13.834  1.00  0.00     0.210 HD
ENDBRANCH  16  21
ENDBRANCH  15  16
ENDBRANCH   4  15
TORSDOF 4
ENDMDL
MODEL 6
REMARK VINA RESULT:      -6.0      2.550      6.965
REMARK  4 active torsions:
REMARK  status: ('A' for Active; 'I' for Inactive)
REMARK    1  A    between atoms: C_4  and  N_5 
REMARK       I    between atoms: N_5  and  C_6 
REMARK       I    between atoms: C_6  and  N_8 
REMARK    2  A    between atoms: N_8  and  C_9 
REMARK    3  A    between atoms: C_9  and  C_10 
REMARK    4  A    between atoms: C_10  and  O_11 
ROOT
HETATM    1  N   UNL     1     -42.181 -52.332  11.765  1.00  0.00    -0.309 N 
HETATM    2  C   UNL     1     -41.518 -51.194  12.159  1.00  0.00     0.320 C 
HETATM    3  O   UNL     1     -41.427 -50.761  13.306  1.00  0.00    -0.247 OA
HETATM    4  N   UNL     1     -40.946 -50.516  11.108  1.00  0.00    -0.340 N 
HETATM    5  H   UNL     1     -42.264 -52.478  10.771  1.00  0.00     0.170 HD
HETATM    6  H   UNL     1     -40.617 -51.060  10.321  1.00  0.00     0.164 HD
ENDROOT
BRANCH   1   7
HETATM    7  C   UNL     1     -42.894 -53.206  12.617  1.00  0.00     0.039 A 
HETATM    8  C   UNL     1     -42.290 -53.918  13.651  1.00  0.00     0.054 A 
HETATM    9  C   UNL     1     -43.065 -54.720  14.482  1.00  0.00     0.007 A 
HETATM   10  C   UNL     1     -42.427 -55.418  15.648  1.00  0.00     0.068 C 
HETATM   11  N   UNL     1     -44.398 -54.864  14.315  1.00  0.00    -0.369 N 
HETATM   12  C   UNL     1     -44.963 -54.185  13.293  1.00  0.00     0.090 A 
ATOM     13  HN  UNL     1     -44.952 -55.458  14.931  1.00  0.00     0.165 HD
HETATM   14  C   UNL     1     -44.266 -53.353  12.428  1.00  0.00     0.046 A 
ENDBRANCH   1   7
BRANCH   4  15
HETATM   15  C   UNL     1     -40.178 -49.330  11.445  1.00  0.00     0.162 C 
BRANCH  15  16
HETATM   16  C   UNL     1     -40.914 -48.024  11.155  1.00  0.00     0.074 C 
HETATM   17  C   UNL     1     -41.542 -47.438  12.430  1.00  0.00     0.039 C 
HETATM   18  C   UNL     1     -42.848 -46.770  11.993  1.00  0.00     0.003 C 
HETATM   19  C   UNL     1     -42.936 -46.947  10.484  1.00  0.00     0.003 C 
HETATM   20  C   UNL     1     -42.093 -48.181  10.197  1.00  0.00     0.039 C 
BRANCH  16  21
HETATM   21  O   UNL     1     -39.991 -47.080  10.592  1.00  0.00    -0.388 OA
HETATM   22  H   UNL     1     -40.060 -46.255  11.105  1.00  0.00     0.210 HD
ENDBRANCH  16  21
ENDBRANCH  15  16
ENDBRANCH   4  15
TORSDOF 4
ENDMDL
MODEL 7
REMARK VINA RESULT:      -5.9      3.804      6.335
REMARK  4 active torsions:
REMARK  status: ('A' for Active; 'I' for Inactive)
REMARK    1  A    between atoms: C_4  and  N_5 
REMARK       I    between atoms: N_5  and  C_6 
REMARK       I    between atoms: C_6  and  N_8 
REMARK    2  A    between atoms: N_8  and  C_9 
REMARK    3  A    between atoms: C_9  and  C_10 
REMARK    4  A    between atoms: C_10  and  O_11 
ROOT
HETATM    1  N   UNL     1     -43.228 -52.449  12.176  1.00  0.00    -0.309 N 
HETATM    2  C   UNL     1     -41.998 -52.054  12.645  1.00  0.00     0.320 C 
HETATM    3  O   UNL     1     -41.628 -52.053  13.817  1.00  0.00    -0.247 OA
HETATM    4  N   UNL     1     -41.163 -51.607  11.647  1.00  0.00    -0.340 N 
HETATM    5  H   UNL     1     -43.413 -52.269  11.201  1.00  0.00     0.170 HD
HETATM    6  H   UNL     1     -41.258 -52.027  10.732  1.00  0.00     0.164 HD
ENDROOT
BRANCH   1   7
HETATM    7  C   UNL     1     -44.301 -52.916  12.970  1.00  0.00     0.039 A 
HETATM    8  C   UNL     1     -45.128 -52.067  13.703  1.00  0.00     0.054 A 
HETATM    9  C   UNL     1     -46.197 -52.593  14.419  1.00  0.00     0.007 A 
HETATM   10  C   UNL     1     -47.137 -51.671  15.138  1.00  0.00     0.068 C 
HETATM   11  N   UNL     1     -46.461 -53.918  14.459  1.00  0.00    -0.369 N 
HETATM   12  C   UNL     1     -45.636 -54.729  13.762  1.00  0.00     0.090 A 
ATOM     13  HN  UNL     1     -47.248 -54.288  14.992  1.00  0.00     0.165 HD
HETATM   14  C   UNL     1     -44.557 -54.284  13.010  1.00  0.00     0.046 A 
ENDBRANCH   1   7
BRANCH   4  15
HETATM   15  C   UNL     1     -39.822 -51.222  12.050  1.00  0.00     0.162 C 
BRANCH  15  16
HETATM   16  C   UNL     1     -39.471 -49.777  11.701  1.00  0.00     0.074 C 
HETATM   17  C   UNL     1     -38.939 -49.017  12.926  1.00  0.00     0.039 C 
HETATM   18  C   UNL     1     -39.432 -47.575  12.779  1.00  0.00     0.003 C 
HETATM   19  C   UNL     1     -40.202 -47.518  11.467  1.00  0.00     0.003 C 
HETATM   20  C   UNL     1     -40.666 -48.949  11.236  1.00  0.00     0.039 C 
BRANCH  16  21
HETATM   21  O   UNL     1     -38.481 -49.773  10.661  1.00  0.00    -0.388 OA
HETATM   22  H   UNL     1     -37.668 -50.169  11.024  1.00  0.00     0.210 HD
ENDBRANCH  16  21
ENDBRANCH  15  16
ENDBRANCH   4  15
TORSDOF 4
ENDMDL
MODEL 8
REMARK VINA RESULT:      -5.9      1.998      2.879
REMARK  4 active torsions:
REMARK  status: ('A' for Active; 'I' for Inactive)
REMARK    1  A    between atoms: C_4  and  N_5 
REMARK       I    between atoms: N_5  and  C_6 
REMARK       I    between atoms: C_6  and  N_8 
REMARK    2  A    between atoms: N_8  and  C_9 
REMARK    3  A    between atoms: C_9  and  C_10 
REMARK    4  A    between atoms: C_10  and  O_11 
ROOT
HETATM    1  N   UNL     1     -41.680 -49.704  11.243  1.00  0.00    -0.309 N 
HETATM    2  C   UNL     1     -42.320 -50.179  12.364  1.00  0.00     0.320 C 
HETATM    3  O   UNL     1     -43.003 -49.525  13.148  1.00  0.00    -0.247 OA
HETATM    4  N   UNL     1     -42.106 -51.522  12.574  1.00  0.00    -0.340 N 
HETATM    5  H   UNL     1     -41.059 -50.348  10.778  1.00  0.00     0.170 HD
HETATM    6  H   UNL     1     -41.981 -52.110  11.761  1.00  0.00     0.164 HD
ENDROOT
BRANCH   1   7
HETATM    7  C   UNL     1     -41.686 -48.363  10.798  1.00  0.00     0.039 A 
HETATM    8  C   UNL     1     -42.714 -47.824  10.028  1.00  0.00     0.054 A 
HETATM    9  C   UNL     1     -42.678 -46.480   9.670  1.00  0.00     0.007 A 
HETATM   10  C   UNL     1     -43.827 -45.880   8.914  1.00  0.00     0.068 C 
HETATM   11  N   UNL     1     -41.660 -45.664  10.020  1.00  0.00    -0.369 N 
HETATM   12  C   UNL     1     -40.660 -46.209  10.747  1.00  0.00     0.090 A 
ATOM     13  HN  UNL     1     -41.647 -44.681   9.748  1.00  0.00     0.165 HD
HETATM   14  C   UNL     1     -40.626 -47.534  11.158  1.00  0.00     0.046 A 
ENDBRANCH   1   7
BRANCH   4  15
HETATM   15  C   UNL     1     -42.793 -52.116  13.708  1.00  0.00     0.162 C 
BRANCH  15  16
HETATM   16  C   UNL     1     -43.916 -53.071  13.309  1.00  0.00     0.074 C 
HETATM   17  C   UNL     1     -45.289 -52.534  13.742  1.00  0.00     0.039 C 
HETATM   18  C   UNL     1     -46.127 -53.759  14.115  1.00  0.00     0.003 C 
HETATM   19  C   UNL     1     -45.246 -54.974  13.861  1.00  0.00     0.003 C 
HETATM   20  C   UNL     1     -43.824 -54.442  13.973  1.00  0.00     0.039 C 
BRANCH  16  21
HETATM   21  O   UNL     1     -43.894 -53.252  11.885  1.00  0.00    -0.388 OA
HETATM   22  H   UNL     1     -44.323 -52.476  11.480  1.00  0.00     0.210 HD
ENDBRANCH  16  21
ENDBRANCH  15  16
ENDBRANCH   4  15
TORSDOF 4
ENDMDL
MODEL 9
REMARK VINA RESULT:      -5.8      4.810      6.341
REMARK  4 active torsions:
REMARK  status: ('A' for Active; 'I' for Inactive)
REMARK    1  A    between atoms: C_4  and  N_5 
REMARK       I    between atoms: N_5  and  C_6 
REMARK       I    between atoms: C_6  and  N_8 
REMARK    2  A    between atoms: N_8  and  C_9 
REMARK    3  A    between atoms: C_9  and  C_10 
REMARK    4  A    between atoms: C_10  and  O_11 
ROOT
HETATM    1  N   UNL     1     -42.193 -53.599  12.889  1.00  0.00    -0.309 N 
HETATM    2  C   UNL     1     -41.278 -52.920  13.658  1.00  0.00     0.320 C 
HETATM    3  O   UNL     1     -41.521 -52.249  14.659  1.00  0.00    -0.247 OA
HETATM    4  N   UNL     1     -39.992 -53.031  13.184  1.00  0.00    -0.340 N 
HETATM    5  H   UNL     1     -41.844 -53.998  12.030  1.00  0.00     0.170 HD
HETATM    6  H   UNL     1     -39.737 -53.890  12.714  1.00  0.00     0.164 HD
ENDROOT
BRANCH   1   7
HETATM    7  C   UNL     1     -43.589 -53.635  13.108  1.00  0.00     0.039 A 
HETATM    8  C   UNL     1     -44.461 -52.672  12.604  1.00  0.00     0.054 A 
HETATM    9  C   UNL     1     -45.829 -52.801  12.814  1.00  0.00     0.007 A 
HETATM   10  C   UNL     1     -46.774 -51.811  12.198  1.00  0.00     0.068 C 
HETATM   11  N   UNL     1     -46.361 -53.822  13.521  1.00  0.00    -0.369 N 
HETATM   12  C   UNL     1     -45.499 -54.734  14.023  1.00  0.00     0.090 A 
ATOM     13  HN  UNL     1     -47.367 -53.901  13.669  1.00  0.00     0.165 HD
HETATM   14  C   UNL     1     -44.124 -54.688  13.846  1.00  0.00     0.046 A 
ENDBRANCH   1   7
BRANCH   4  15
HETATM   15  C   UNL     1     -38.955 -52.388  13.972  1.00  0.00     0.162 C 
BRANCH  15  16
HETATM   16  C   UNL     1     -38.207 -51.291  13.216  1.00  0.00     0.074 C 
HETATM   17  C   UNL     1     -37.710 -50.191  14.168  1.00  0.00     0.039 C 
HETATM   18  C   UNL     1     -37.802 -48.879  13.386  1.00  0.00     0.003 C 
HETATM   19  C   UNL     1     -38.311 -49.242  11.998  1.00  0.00     0.003 C 
HETATM   20  C   UNL     1     -39.069 -50.546  12.201  1.00  0.00     0.039 C 
BRANCH  16  21
HETATM   21  O   UNL     1     -37.091 -51.875  12.526  1.00  0.00    -0.388 OA
HETATM   22  H   UNL     1     -36.997 -52.793  12.838  1.00  0.00     0.210 HD
ENDBRANCH  16  21
ENDBRANCH  15  16
ENDBRANCH   4  15
TORSDOF 4
ENDMDL
