MODEL 1
REMARK VINA RESULT:      -6.6      0.000      0.000
REMARK  5 active torsions:
REMARK  status: ('A' for Active; 'I' for Inactive)
REMARK    1  A    between atoms: C_2  and  O_3 
REMARK    2  A    between atoms: O_3  and  C_4 
REMARK    3  A    between atoms: C_4  and  C_5 
REMARK    4  A    between atoms: C_5  and  N_6 
REMARK    5  A    between atoms: C_7  and  N_19 
ROOT
HETATM    1  N   UNL     1     -41.834 -52.552  13.919  1.00  0.00    -0.172 N 
HETATM    2  C   UNL     1     -42.941 -52.996  14.650  1.00  0.00     0.685 A 
HETATM    3  N   UNL     1     -42.622 -54.055  15.374  1.00  0.00    -0.174 N 
ATOM      4  HN  UNL     1     -43.245 -54.614  15.957  1.00  0.00     0.186 HD
HETATM    5  C   UNL     1     -41.289 -54.243  15.179  1.00  0.00     0.160 A 
HETATM    6  N   UNL     1     -40.513 -55.220  15.777  1.00  0.00    -0.287 N 
HETATM    7  C   UNL     1     -41.032 -56.178  16.725  1.00  0.00     0.163 C 
HETATM    8  C   UNL     1     -39.159 -55.288  15.479  1.00  0.00     0.330 A 
HETATM    9  O   UNL     1     -38.384 -56.107  15.971  1.00  0.00    -0.246 OA
HETATM   10  N   UNL     1     -38.672 -54.374  14.581  1.00  0.00    -0.273 N 
HETATM   11  C   UNL     1     -39.364 -53.356  13.979  1.00  0.00     0.280 A 
HETATM   12  O   UNL     1     -38.756 -52.583  13.250  1.00  0.00    -0.265 OA
HETATM   13  C   UNL     1     -40.754 -53.334  14.300  1.00  0.00     0.164 A 
HETATM   14  H   UNL     1     -37.685 -54.421  14.384  1.00  0.00     0.173 HD
ENDROOT
BRANCH   2  15
HETATM   15  N   UNL     1     -44.173 -52.426  14.515  1.00  0.00    -0.217 N 
HETATM   16  C   UNL     1     -44.945 -52.766  13.303  1.00  0.00     0.145 C 
HETATM   17  C   UNL     1     -45.961 -51.635  13.039  1.00  0.00     0.000 C 
HETATM   18  C   UNL     1     -46.817 -51.909  11.805  1.00  0.00     0.011 C 
HETATM   19  C   UNL     1     -46.860 -51.407  14.267  1.00  0.00     0.011 C 
HETATM   20  C   UNL     1     -46.018 -51.191  15.532  1.00  0.00     0.000 C 
HETATM   21  C   UNL     1     -46.913 -51.022  16.755  1.00  0.00     0.011 C 
HETATM   22  C   UNL     1     -45.030 -52.354  15.712  1.00  0.00     0.145 C 
ENDBRANCH   2  15
BRANCH   1  23
HETATM   23  C   UNL     1     -41.902 -51.477  12.930  1.00  0.00     0.174 C 
BRANCH  23  24
HETATM   24  C   UNL     1     -41.388 -50.117  13.363  1.00  0.00     0.188 C 
BRANCH  24  25
HETATM   25  O   UNL     1     -41.161 -49.219  12.268  1.00  0.00    -0.390 OA
BRANCH  25  26
HETATM   26  C   UNL     1     -40.229 -49.839  11.368  1.00  0.00     0.163 C 
HETATM   27  C   UNL     1     -38.814 -49.431  11.704  1.00  0.00     0.033 C 
ENDBRANCH  25  26
ENDBRANCH  24  25
ENDBRANCH  23  24
ENDBRANCH   1  23
TORSDOF 5
ENDMDL
MODEL 2
REMARK VINA RESULT:      -6.4      3.551      6.839
REMARK  5 active torsions:
REMARK  status: ('A' for Active; 'I' for Inactive)
REMARK    1  A    between atoms: C_2  and  O_3 
REMARK    2  A    between atoms: O_3  and  C_4 
REMARK    3  A    between atoms: C_4  and  C_5 
REMARK    4  A    between atoms: C_5  and  N_6 
REMARK    5  A    between atoms: C_7  and  N_19 
ROOT
HETATM    1  N   UNL     1     -41.428 -48.589  12.383  1.00  0.00    -0.172 N 
HETATM    2  C   UNL     1     -42.547 -49.425  12.478  1.00  0.00     0.685 A 
HETATM    3  N   UNL     1     -43.514 -48.995  11.687  1.00  0.00    -0.174 N 
ATOM      4  HN  UNL     1     -44.455 -49.379  11.599  1.00  0.00     0.186 HD
HETATM    5  C   UNL     1     -42.991 -47.934  11.015  1.00  0.00     0.160 A 
HETATM    6  N   UNL     1     -43.639 -47.193  10.043  1.00  0.00    -0.287 N 
HETATM    7  C   UNL     1     -44.983 -47.472   9.593  1.00  0.00     0.163 C 
HETATM    8  C   UNL     1     -42.974 -46.133   9.441  1.00  0.00     0.330 A 
HETATM    9  O   UNL     1     -43.457 -45.428   8.556  1.00  0.00    -0.246 OA
HETATM   10  N   UNL     1     -41.698 -45.875   9.870  1.00  0.00    -0.273 N 
HETATM   11  C   UNL     1     -40.976 -46.584  10.795  1.00  0.00     0.280 A 
HETATM   12  O   UNL     1     -39.817 -46.256  11.012  1.00  0.00    -0.265 OA
HETATM   13  C   UNL     1     -41.704 -47.653  11.399  1.00  0.00     0.164 A 
HETATM   14  H   UNL     1     -41.218 -45.115   9.416  1.00  0.00     0.173 HD
ENDROOT
BRANCH   2  15
HETATM   15  N   UNL     1     -42.597 -50.467  13.358  1.00  0.00    -0.217 N 
HETATM   16  C   UNL     1     -43.683 -50.454  14.358  1.00  0.00     0.145 C 
HETATM   17  C   UNL     1     -43.246 -51.314  15.563  1.00  0.00     0.000 C 
HETATM   18  C   UNL     1     -44.318 -51.368  16.649  1.00  0.00     0.011 C 
HETATM   19  C   UNL     1     -42.873 -52.738  15.115  1.00  0.00     0.011 C 
HETATM   20  C   UNL     1     -41.841 -52.704  13.979  1.00  0.00     0.000 C 
HETATM   21  C   UNL     1     -41.518 -54.115  13.501  1.00  0.00     0.011 C 
HETATM   22  C   UNL     1     -42.351 -51.821  12.830  1.00  0.00     0.145 C 
ENDBRANCH   2  15
BRANCH   1  23
HETATM   23  C   UNL     1     -40.245 -48.731  13.229  1.00  0.00     0.174 C 
BRANCH  23  24
HETATM   24  C   UNL     1     -38.978 -49.223  12.555  1.00  0.00     0.188 C 
BRANCH  24  25
HETATM   25  O   UNL     1     -38.647 -50.579  12.883  1.00  0.00    -0.390 OA
BRANCH  25  26
HETATM   26  C   UNL     1     -37.408 -50.906  12.233  1.00  0.00     0.163 C 
HETATM   27  C   UNL     1     -37.205 -50.041  11.011  1.00  0.00     0.033 C 
ENDBRANCH  25  26
ENDBRANCH  24  25
ENDBRANCH  23  24
ENDBRANCH   1  23
TORSDOF 5
ENDMDL
MODEL 3
REMARK VINA RESULT:      -6.4      2.807      5.483
REMARK  5 active torsions:
REMARK  status: ('A' for Active; 'I' for Inactive)
REMARK    1  A    between atoms: C_2  and  O_3 
REMARK    2  A    between atoms: O_3  and  C_4 
REMARK    3  A    between atoms: C_4  and  C_5 
REMARK    4  A    between atoms: C_5  and  N_6 
REMARK    5  A    between atoms: C_7  and  N_19 
ROOT
HETATM    1  N   UNL     1     -42.113 -51.426  12.597  1.00  0.00    -0.172 N 
HETATM    2  C   UNL     1     -42.773 -50.191  12.582  1.00  0.00     0.685 A 
HETATM    3  N   UNL     1     -44.034 -50.337  12.950  1.00  0.00    -0.174 N 
ATOM      4  HN  UNL     1     -44.755 -49.616  12.976  1.00  0.00     0.186 HD
HETATM    5  C   UNL     1     -44.167 -51.648  13.287  1.00  0.00     0.160 A 
HETATM    6  N   UNL     1     -45.316 -52.246  13.773  1.00  0.00    -0.287 N 
HETATM    7  C   UNL     1     -46.548 -51.529  14.007  1.00  0.00     0.163 C 
HETATM    8  C   UNL     1     -45.301 -53.601  14.075  1.00  0.00     0.330 A 
HETATM    9  O   UNL     1     -46.264 -54.219  14.527  1.00  0.00    -0.246 OA
HETATM   10  N   UNL     1     -44.129 -54.275  13.852  1.00  0.00    -0.273 N 
HETATM   11  C   UNL     1     -42.941 -53.749  13.413  1.00  0.00     0.280 A 
HETATM   12  O   UNL     1     -41.966 -54.484  13.334  1.00  0.00    -0.265 OA
HETATM   13  C   UNL     1     -43.008 -52.358  13.099  1.00  0.00     0.164 A 
HETATM   14  H   UNL     1     -44.122 -55.254  14.090  1.00  0.00     0.173 HD
ENDROOT
BRANCH   2  15
HETATM   15  N   UNL     1     -42.163 -49.051  12.146  1.00  0.00    -0.217 N 
HETATM   16  C   UNL     1     -42.966 -48.131  11.317  1.00  0.00     0.145 C 
HETATM   17  C   UNL     1     -42.003 -47.275  10.466  1.00  0.00     0.000 C 
HETATM   18  C   UNL     1     -42.749 -46.280   9.581  1.00  0.00     0.011 C 
HETATM   19  C   UNL     1     -40.992 -46.535  11.360  1.00  0.00     0.011 C 
HETATM   20  C   UNL     1     -40.275 -47.511  12.303  1.00  0.00     0.000 C 
HETATM   21  C   UNL     1     -39.316 -46.765  13.225  1.00  0.00     0.011 C 
HETATM   22  C   UNL     1     -41.305 -48.326  13.100  1.00  0.00     0.145 C 
ENDBRANCH   2  15
BRANCH   1  23
HETATM   23  C   UNL     1     -40.744 -51.611  12.120  1.00  0.00     0.174 C 
BRANCH  23  24
HETATM   24  C   UNL     1     -39.658 -51.690  13.175  1.00  0.00     0.188 C 
BRANCH  24  25
HETATM   25  O   UNL     1     -38.331 -51.682  12.629  1.00  0.00    -0.390 OA
BRANCH  25  26
HETATM   26  C   UNL     1     -37.851 -50.328  12.644  1.00  0.00     0.163 C 
HETATM   27  C   UNL     1     -37.425 -49.902  11.258  1.00  0.00     0.033 C 
ENDBRANCH  25  26
ENDBRANCH  24  25
ENDBRANCH  23  24
ENDBRANCH   1  23
TORSDOF 5
ENDMDL
MODEL 4
REMARK VINA RESULT:      -6.3      2.372      4.685
REMARK  5 active torsions:
REMARK  status: ('A' for Active; 'I' for Inactive)
REMARK    1  A    between atoms: C_2  and  O_3 
REMARK    2  A    between atoms: O_3  and  C_4 
REMARK    3  A    between atoms: C_4  and  C_5 
REMARK    4  A    between atoms: C_5  and  N_6 
REMARK    5  A    between atoms: C_7  and  N_19 
ROOT
HETATM    1  N   UNL     1     -41.671 -51.843  14.323  1.00  0.00    -0.172 N 
HETATM    2  C   UNL     1     -42.600 -50.806  14.468  1.00  0.00     0.685 A 
HETATM    3  N   UNL     1     -41.981 -49.651  14.634  1.00  0.00    -0.174 N 
ATOM      4  HN  UNL     1     -42.409 -48.743  14.818  1.00  0.00     0.186 HD
HETATM    5  C   UNL     1     -40.655 -49.925  14.510  1.00  0.00     0.160 A 
HETATM    6  N   UNL     1     -39.628 -49.000  14.570  1.00  0.00    -0.287 N 
HETATM    7  C   UNL     1     -39.842 -47.585  14.760  1.00  0.00     0.163 C 
HETATM    8  C   UNL     1     -38.316 -49.432  14.423  1.00  0.00     0.330 A 
HETATM    9  O   UNL     1     -37.337 -48.687  14.444  1.00  0.00    -0.246 OA
HETATM   10  N   UNL     1     -38.120 -50.776  14.241  1.00  0.00    -0.273 N 
HETATM   11  C   UNL     1     -39.082 -51.746  14.130  1.00  0.00     0.280 A 
HETATM   12  O   UNL     1     -38.733 -52.896  13.898  1.00  0.00    -0.265 OA
HETATM   13  C   UNL     1     -40.413 -51.260  14.303  1.00  0.00     0.164 A 
HETATM   14  H   UNL     1     -37.166 -51.077  14.119  1.00  0.00     0.173 HD
ENDROOT
BRANCH   2  15
HETATM   15  N   UNL     1     -43.944 -51.042  14.516  1.00  0.00    -0.217 N 
HETATM   16  C   UNL     1     -44.670 -50.561  15.708  1.00  0.00     0.145 C 
HETATM   17  C   UNL     1     -45.958 -51.399  15.864  1.00  0.00     0.000 C 
HETATM   18  C   UNL     1     -46.784 -50.962  17.071  1.00  0.00     0.011 C 
HETATM   19  C   UNL     1     -46.812 -51.335  14.586  1.00  0.00     0.011 C 
HETATM   20  C   UNL     1     -45.982 -51.711  13.351  1.00  0.00     0.000 C 
HETATM   21  C   UNL     1     -46.818 -51.591  12.081  1.00  0.00     0.011 C 
HETATM   22  C   UNL     1     -44.719 -50.838  13.280  1.00  0.00     0.145 C 
ENDBRANCH   2  15
BRANCH   1  23
HETATM   23  C   UNL     1     -42.046 -53.253  14.248  1.00  0.00     0.174 C 
BRANCH  23  24
HETATM   24  C   UNL     1     -42.373 -53.802  12.872  1.00  0.00     0.188 C 
BRANCH  24  25
HETATM   25  O   UNL     1     -43.708 -54.316  12.766  1.00  0.00    -0.390 OA
BRANCH  25  26
HETATM   26  C   UNL     1     -44.171 -54.631  14.089  1.00  0.00     0.163 C 
HETATM   27  C   UNL     1     -45.581 -55.174  14.042  1.00  0.00     0.033 C 
ENDBRANCH  25  26
ENDBRANCH  24  25
ENDBRANCH  23  24
ENDBRANCH   1  23
TORSDOF 5
ENDMDL
MODEL 5
REMARK VINA RESULT:      -6.2      2.423      6.049
REMARK  5 active torsions:
REMARK  status: ('A' for Active; 'I' for Inactive)
REMARK    1  A    between atoms: C_2  and  O_3 
REMARK    2  A    between atoms: O_3  and  C_4 
REMARK    3  A    between atoms: C_4  and  C_5 
REMARK    4  A    between atoms: C_5  and  N_6 
REMARK    5  A    between atoms: C_7  and  N_19 
ROOT
HETATM    1  N   UNL     1     -40.837 -54.098  14.391  1.00  0.00    -0.172 N 
HETATM    2  C   UNL     1     -41.324 -54.772  15.517  1.00  0.00     0.685 A 
HETATM    3  N   UNL     1     -42.645 -54.773  15.519  1.00  0.00    -0.174 N 
ATOM      4  HN  UNL     1     -43.260 -55.143  16.243  1.00  0.00     0.186 HD
HETATM    5  C   UNL     1     -43.013 -54.179  14.352  1.00  0.00     0.160 A 
HETATM    6  N   UNL     1     -44.311 -54.000  13.909  1.00  0.00    -0.287 N 
HETATM    7  C   UNL     1     -45.472 -54.450  14.641  1.00  0.00     0.163 C 
HETATM    8  C   UNL     1     -44.532 -53.373  12.689  1.00  0.00     0.330 A 
HETATM    9  O   UNL     1     -45.645 -53.183  12.202  1.00  0.00    -0.246 OA
HETATM   10  N   UNL     1     -43.427 -52.950  11.998  1.00  0.00    -0.273 N 
HETATM   11  C   UNL     1     -42.113 -53.124  12.349  1.00  0.00     0.280 A 
HETATM   12  O   UNL     1     -41.243 -52.743  11.577  1.00  0.00    -0.265 OA
HETATM   13  C   UNL     1     -41.934 -53.757  13.615  1.00  0.00     0.164 A 
HETATM   14  H   UNL     1     -43.597 -52.511  11.107  1.00  0.00     0.173 HD
ENDROOT
BRANCH   2  15
HETATM   15  N   UNL     1     -40.493 -55.253  16.487  1.00  0.00    -0.217 N 
HETATM   16  C   UNL     1     -40.238 -54.381  17.650  1.00  0.00     0.145 C 
HETATM   17  C   UNL     1     -38.895 -54.799  18.286  1.00  0.00     0.000 C 
HETATM   18  C   UNL     1     -38.553 -53.954  19.512  1.00  0.00     0.011 C 
HETATM   19  C   UNL     1     -38.905 -56.292  18.659  1.00  0.00     0.011 C 
HETATM   20  C   UNL     1     -39.308 -57.155  17.455  1.00  0.00     0.000 C 
HETATM   21  C   UNL     1     -39.372 -58.628  17.845  1.00  0.00     0.011 C 
HETATM   22  C   UNL     1     -40.646 -56.665  16.880  1.00  0.00     0.145 C 
ENDBRANCH   2  15
BRANCH   1  23
HETATM   23  C   UNL     1     -39.419 -53.821  14.172  1.00  0.00     0.174 C 
BRANCH  23  24
HETATM   24  C   UNL     1     -38.997 -52.363  14.188  1.00  0.00     0.188 C 
BRANCH  24  25
HETATM   25  O   UNL     1     -38.592 -51.873  12.902  1.00  0.00    -0.390 OA
BRANCH  25  26
HETATM   26  C   UNL     1     -37.655 -50.804  13.108  1.00  0.00     0.163 C 
HETATM   27  C   UNL     1     -37.474 -50.005  11.838  1.00  0.00     0.033 C 
ENDBRANCH  25  26
ENDBRANCH  24  25
ENDBRANCH  23  24
ENDBRANCH   1  23
TORSDOF 5
ENDMDL
MODEL 6
REMARK VINA RESULT:      -6.1      5.625      9.220
REMARK  5 active torsions:
REMARK  status: ('A' for Active; 'I' for Inactive)
REMARK    1  A    between atoms: C_2  and  O_3 
REMARK    2  A    between atoms: O_3  and  C_4 
REMARK    3  A    between atoms: C_4  and  C_5 
REMARK    4  A    between atoms: C_5  and  N_6 
REMARK    5  A    between atoms: C_7  and  N_19 
ROOT
HETATM    1  N   UNL     1     -41.969 -46.047  11.033  1.00  0.00    -0.172 N 
HETATM    2  C   UNL     1     -41.146 -46.601  12.021  1.00  0.00     0.685 A 
HETATM    3  N   UNL     1     -40.742 -45.667  12.863  1.00  0.00    -0.174 N 
ATOM      4  HN  UNL     1     -40.093 -45.778  13.642  1.00  0.00     0.186 HD
HETATM    5  C   UNL     1     -41.373 -44.526  12.474  1.00  0.00     0.160 A 
HETATM    6  N   UNL     1     -41.278 -43.295  13.099  1.00  0.00    -0.287 N 
HETATM    7  C   UNL     1     -40.491 -43.064  14.287  1.00  0.00     0.163 C 
HETATM    8  C   UNL     1     -41.985 -42.217  12.584  1.00  0.00     0.330 A 
HETATM    9  O   UNL     1     -41.980 -41.089  13.076  1.00  0.00    -0.246 OA
HETATM   10  N   UNL     1     -42.731 -42.442  11.457  1.00  0.00    -0.273 N 
HETATM   11  C   UNL     1     -42.907 -43.635  10.805  1.00  0.00     0.280 A 
HETATM   12  O   UNL     1     -43.669 -43.676   9.848  1.00  0.00    -0.265 OA
HETATM   13  C   UNL     1     -42.151 -44.712  11.358  1.00  0.00     0.164 A 
HETATM   14  H   UNL     1     -43.253 -41.658  11.100  1.00  0.00     0.173 HD
ENDROOT
BRANCH   2  15
HETATM   15  N   UNL     1     -40.777 -47.915  12.000  1.00  0.00    -0.217 N 
HETATM   16  C   UNL     1     -39.344 -48.216  12.191  1.00  0.00     0.145 C 
HETATM   17  C   UNL     1     -39.049 -49.595  11.565  1.00  0.00     0.000 C 
HETATM   18  C   UNL     1     -37.585 -49.998  11.726  1.00  0.00     0.011 C 
HETATM   19  C   UNL     1     -39.965 -50.677  12.164  1.00  0.00     0.011 C 
HETATM   20  C   UNL     1     -41.440 -50.263  12.067  1.00  0.00     0.000 C 
HETATM   21  C   UNL     1     -42.338 -51.313  12.713  1.00  0.00     0.011 C 
HETATM   22  C   UNL     1     -41.641 -48.879  12.704  1.00  0.00     0.145 C 
ENDBRANCH   2  15
BRANCH   1  23
HETATM   23  C   UNL     1     -42.471 -46.804   9.888  1.00  0.00     0.174 C 
BRANCH  23  24
HETATM   24  C   UNL     1     -43.884 -47.344   9.991  1.00  0.00     0.188 C 
BRANCH  24  25
HETATM   25  O   UNL     1     -44.640 -47.199   8.781  1.00  0.00    -0.390 OA
BRANCH  25  26
HETATM   26  C   UNL     1     -46.032 -47.139   9.129  1.00  0.00     0.163 C 
HETATM   27  C   UNL     1     -46.718 -48.445   8.804  1.00  0.00     0.033 C 
ENDBRANCH  25  26
ENDBRANCH  24  25
ENDBRANCH  23  24
ENDBRANCH   1  23
TORSDOF 5
ENDMDL
MODEL 7
REMARK VINA RESULT:      -5.9      3.023      5.793
REMARK  5 active torsions:
REMARK  status: ('A' for Active; 'I' for Inactive)
REMARK    1  A    between atoms: C_2  and  O_3 
REMARK    2  A    between atoms: O_3  and  C_4 
REMARK    3  A    between atoms: C_4  and  C_5 
REMARK    4  A    between atoms: C_5  and  N_6 
REMARK    5  A    between atoms: C_7  and  N_19 
ROOT
HETATM    1  N   UNL     1     -40.930 -51.160  12.716  1.00  0.00    -0.172 N 
HETATM    2  C   UNL     1     -41.606 -49.938  12.806  1.00  0.00     0.685 A 
HETATM    3  N   UNL     1     -42.913 -50.132  12.825  1.00  0.00    -0.174 N 
ATOM      4  HN  UNL     1     -43.642 -49.419  12.830  1.00  0.00     0.186 HD
HETATM    5  C   UNL     1     -43.081 -51.482  12.836  1.00  0.00     0.160 A 
HETATM    6  N   UNL     1     -44.294 -52.146  12.897  1.00  0.00    -0.287 N 
HETATM    7  C   UNL     1     -45.568 -51.471  12.978  1.00  0.00     0.163 C 
HETATM    8  C   UNL     1     -44.308 -53.534  12.901  1.00  0.00     0.330 A 
HETATM    9  O   UNL     1     -45.330 -54.215  12.971  1.00  0.00    -0.246 OA
HETATM   10  N   UNL     1     -43.096 -54.169  12.826  1.00  0.00    -0.273 N 
HETATM   11  C   UNL     1     -41.855 -53.586  12.803  1.00  0.00     0.280 A 
HETATM   12  O   UNL     1     -40.866 -54.307  12.804  1.00  0.00    -0.265 OA
HETATM   13  C   UNL     1     -41.889 -52.160  12.783  1.00  0.00     0.164 A 
HETATM   14  H   UNL     1     -43.115 -55.176  12.846  1.00  0.00     0.173 HD
ENDROOT
BRANCH   2  15
HETATM   15  N   UNL     1     -40.946 -48.743  12.779  1.00  0.00    -0.217 N 
HETATM   16  C   UNL     1     -41.416 -47.735  11.808  1.00  0.00     0.145 C 
HETATM   17  C   UNL     1     -40.251 -46.766  11.511  1.00  0.00     0.000 C 
HETATM   18  C   UNL     1     -40.651 -45.676  10.520  1.00  0.00     0.011 C 
HETATM   19  C   UNL     1     -39.720 -46.133  12.809  1.00  0.00     0.011 C 
HETATM   20  C   UNL     1     -39.371 -47.212  13.843  1.00  0.00     0.000 C 
HETATM   21  C   UNL     1     -38.898 -46.578  15.147  1.00  0.00     0.011 C 
HETATM   22  C   UNL     1     -40.578 -48.135  14.070  1.00  0.00     0.145 C 
ENDBRANCH   2  15
BRANCH   1  23
HETATM   23  C   UNL     1     -39.483 -51.268  12.550  1.00  0.00     0.174 C 
BRANCH  23  24
HETATM   24  C   UNL     1     -38.663 -51.474  13.810  1.00  0.00     0.188 C 
BRANCH  24  25
HETATM   25  O   UNL     1     -37.742 -50.406  14.072  1.00  0.00    -0.390 OA
BRANCH  25  26
HETATM   26  C   UNL     1     -37.692 -50.198  15.492  1.00  0.00     0.163 C 
HETATM   27  C   UNL     1     -36.461 -49.408  15.871  1.00  0.00     0.033 C 
ENDBRANCH  25  26
ENDBRANCH  24  25
ENDBRANCH  23  24
ENDBRANCH   1  23
TORSDOF 5
ENDMDL
MODEL 8
REMARK VINA RESULT:      -5.9      2.852      5.634
REMARK  5 active torsions:
REMARK  status: ('A' for Active; 'I' for Inactive)
REMARK    1  A    between atoms: C_2  and  O_3 
REMARK    2  A    between atoms: O_3  and  C_4 
REMARK    3  A    between atoms: C_4  and  C_5 
REMARK    4  A    between atoms: C_5  and  N_6 
REMARK    5  A    between atoms: C_7  and  N_19 
ROOT
HETATM    1  N   UNL     1     -42.125 -51.313  12.538  1.00  0.00    -0.172 N 
HETATM    2  C   UNL     1     -42.798 -50.086  12.563  1.00  0.00     0.685 A 
HETATM    3  N   UNL     1     -44.050 -50.253  12.949  1.00  0.00    -0.174 N 
ATOM      4  HN  UNL     1     -44.779 -49.541  13.004  1.00  0.00     0.186 HD
HETATM    5  C   UNL     1     -44.165 -51.573  13.257  1.00  0.00     0.160 A 
HETATM    6  N   UNL     1     -45.299 -52.194  13.749  1.00  0.00    -0.287 N 
HETATM    7  C   UNL     1     -46.534 -51.497  14.021  1.00  0.00     0.163 C 
HETATM    8  C   UNL     1     -45.264 -53.556  14.020  1.00  0.00     0.330 A 
HETATM    9  O   UNL     1     -46.212 -54.194  14.474  1.00  0.00    -0.246 OA
HETATM   10  N   UNL     1     -44.089 -54.212  13.761  1.00  0.00    -0.273 N 
HETATM   11  C   UNL     1     -42.915 -53.663  13.314  1.00  0.00     0.280 A 
HETATM   12  O   UNL     1     -41.934 -54.386  13.202  1.00  0.00    -0.265 OA
HETATM   13  C   UNL     1     -43.001 -52.267  13.034  1.00  0.00     0.164 A 
HETATM   14  H   UNL     1     -44.068 -55.196  13.976  1.00  0.00     0.173 HD
ENDROOT
BRANCH   2  15
HETATM   15  N   UNL     1     -42.207 -48.930  12.143  1.00  0.00    -0.217 N 
HETATM   16  C   UNL     1     -43.016 -48.026  11.301  1.00  0.00     0.145 C 
HETATM   17  C   UNL     1     -42.057 -47.144  10.473  1.00  0.00     0.000 C 
HETATM   18  C   UNL     1     -42.809 -46.163   9.576  1.00  0.00     0.011 C 
HETATM   19  C   UNL     1     -41.083 -46.383  11.389  1.00  0.00     0.011 C 
HETATM   20  C   UNL     1     -40.361 -47.345  12.343  1.00  0.00     0.000 C 
HETATM   21  C   UNL     1     -39.439 -46.580  13.286  1.00  0.00     0.011 C 
HETATM   22  C   UNL     1     -41.386 -48.188  13.116  1.00  0.00     0.145 C 
ENDBRANCH   2  15
BRANCH   1  23
HETATM   23  C   UNL     1     -40.763 -51.473  12.033  1.00  0.00     0.174 C 
BRANCH  23  24
HETATM   24  C   UNL     1     -39.651 -51.507  13.065  1.00  0.00     0.188 C 
BRANCH  24  25
HETATM   25  O   UNL     1     -39.117 -52.819  13.285  1.00  0.00    -0.390 OA
BRANCH  25  26
HETATM   26  C   UNL     1     -39.097 -53.062  14.700  1.00  0.00     0.163 C 
HETATM   27  C   UNL     1     -39.813 -51.955  15.439  1.00  0.00     0.033 C 
ENDBRANCH  25  26
ENDBRANCH  24  25
ENDBRANCH  23  24
ENDBRANCH   1  23
TORSDOF 5
ENDMDL
MODEL 9
REMARK VINA RESULT:      -5.9      3.390      5.218
REMARK  5 active torsions:
REMARK  status: ('A' for Active; 'I' for Inactive)
REMARK    1  A    between atoms: C_2  and  O_3 
REMARK    2  A    between atoms: O_3  and  C_4 
REMARK    3  A    between atoms: C_4  and  C_5 
REMARK    4  A    between atoms: C_5  and  N_6 
REMARK    5  A    between atoms: C_7  and  N_19 
ROOT
HETATM    1  N   UNL     1     -40.768 -49.830  12.192  1.00  0.00    -0.172 N 
HETATM    2  C   UNL     1     -42.044 -49.273  12.047  1.00  0.00     0.685 A 
HETATM    3  N   UNL     1     -42.974 -50.173  12.310  1.00  0.00    -0.174 N 
ATOM      4  HN  UNL     1     -43.984 -50.057  12.230  1.00  0.00     0.186 HD
HETATM    5  C   UNL     1     -42.303 -51.286  12.711  1.00  0.00     0.160 A 
HETATM    6  N   UNL     1     -42.879 -52.473  13.128  1.00  0.00    -0.287 N 
HETATM    7  C   UNL     1     -44.306 -52.679  13.211  1.00  0.00     0.163 C 
HETATM    8  C   UNL     1     -42.060 -53.527  13.510  1.00  0.00     0.330 A 
HETATM    9  O   UNL     1     -42.475 -54.614  13.911  1.00  0.00    -0.246 OA
HETATM   10  N   UNL     1     -40.707 -53.325  13.431  1.00  0.00    -0.273 N 
HETATM   11  C   UNL     1     -40.062 -52.172  13.068  1.00  0.00     0.280 A 
HETATM   12  O   UNL     1     -38.839 -52.141  13.119  1.00  0.00    -0.265 OA
HETATM   13  C   UNL     1     -40.941 -51.121  12.668  1.00  0.00     0.164 A 
HETATM   14  H   UNL     1     -40.122 -54.090  13.726  1.00  0.00     0.173 HD
ENDROOT
BRANCH   2  15
HETATM   15  N   UNL     1     -42.228 -47.997  11.600  1.00  0.00    -0.217 N 
HETATM   16  C   UNL     1     -43.061 -47.818  10.394  1.00  0.00     0.145 C 
HETATM   17  C   UNL     1     -42.674 -46.479   9.729  1.00  0.00     0.000 C 
HETATM   18  C   UNL     1     -43.497 -46.203   8.473  1.00  0.00     0.011 C 
HETATM   19  C   UNL     1     -42.815 -45.313  10.722  1.00  0.00     0.011 C 
HETATM   20  C   UNL     1     -42.045 -45.598  12.019  1.00  0.00     0.000 C 
HETATM   21  C   UNL     1     -42.235 -44.465  13.021  1.00  0.00     0.011 C 
HETATM   22  C   UNL     1     -42.483 -46.949  12.605  1.00  0.00     0.145 C 
ENDBRANCH   2  15
BRANCH   1  23
HETATM   23  C   UNL     1     -39.537 -49.120  11.849  1.00  0.00     0.174 C 
BRANCH  23  24
HETATM   24  C   UNL     1     -38.876 -48.323  12.958  1.00  0.00     0.188 C 
BRANCH  24  25
HETATM   25  O   UNL     1     -37.610 -48.857  13.367  1.00  0.00    -0.390 OA
BRANCH  25  26
HETATM   26  C   UNL     1     -37.679 -49.143  14.772  1.00  0.00     0.163 C 
HETATM   27  C   UNL     1     -36.764 -48.223  15.547  1.00  0.00     0.033 C 
ENDBRANCH  25  26
ENDBRANCH  24  25
ENDBRANCH  23  24
ENDBRANCH   1  23
TORSDOF 5
ENDMDL
