MODEL 1
REMARK VINA RESULT:      -5.6      0.000      0.000
REMARK  4 active torsions:
REMARK  status: ('A' for Active; 'I' for Inactive)
REMARK    1  A    between atoms: C_2  and  C_3 
REMARK    2  A    between atoms: C_2  and  N_11 
REMARK    3  A    between atoms: C_3  and  N_4 
REMARK       I    between atoms: N_11  and  C_12 
REMARK    4  A    between atoms: C_12  and  C_14 
ROOT
HETATM    1  N   UNL     1     -43.077 -53.575  13.521  1.00  0.00    -0.355 N 
HETATM    2  C   UNL     1     -43.938 -52.567  13.146  1.00  0.00     0.222 C 
HETATM    3  O   UNL     1     -43.554 -51.421  12.931  1.00  0.00    -0.273 OA
HETATM    4  H   UNL     1     -43.441 -54.501  13.717  1.00  0.00     0.162 HD
ENDROOT
BRANCH   1   5
HETATM    5  C   UNL     1     -41.660 -53.318  13.769  1.00  0.00     0.100 C 
HETATM    6  C   UNL     1     -41.085 -54.430  14.645  1.00  0.00     0.034 C 
BRANCH   5   7
HETATM    7  C   UNL     1     -40.858 -53.197  12.467  1.00  0.00     0.174 C 
BRANCH   7   8
HETATM    8  N   UNL     1     -40.403 -51.850  12.205  1.00  0.00    -0.285 N 
HETATM    9  C   UNL     1     -39.425 -51.149  12.840  1.00  0.00     0.201 A 
HETATM   10  N   UNL     1     -39.294 -49.970  12.277  1.00  0.00    -0.346 N 
HETATM   11  C   UNL     1     -40.232 -49.997  11.285  1.00  0.00     0.198 A 
ATOM     12  HN  UNL     1     -38.648 -49.219  12.520  1.00  0.00     0.167 HD
HETATM   13  N   UNL     1     -40.947 -51.124  11.207  1.00  0.00    -0.293 N 
ATOM     14  HN  UNL     1     -41.700 -51.368  10.565  1.00  0.00     0.188 HD
ENDBRANCH   7   8
ENDBRANCH   5   7
ENDBRANCH   1   5
BRANCH   2  15
HETATM   15  C   UNL     1     -45.386 -53.007  12.955  1.00  0.00     0.088 C 
HETATM   16  C   UNL     1     -46.359 -51.829  13.006  1.00  0.00     0.034 C 
HETATM   17  C   UNL     1     -46.537 -51.323  14.431  1.00  0.00     0.126 C 
HETATM   18  N   UNL     1     -46.907 -52.394  15.342  1.00  0.00    -0.356 N 
HETATM   19  C   UNL     1     -47.500 -52.015  16.612  1.00  0.00     0.152 C 
HETATM   20  C   UNL     1     -46.171 -53.573  15.324  1.00  0.00     0.220 C 
HETATM   21  O   UNL     1     -45.959 -54.257  16.324  1.00  0.00    -0.273 OA
HETATM   22  C   UNL     1     -45.796 -54.085  13.949  1.00  0.00     0.117 C 
ENDBRANCH   2  15
TORSDOF 4
ENDMDL
MODEL 2
REMARK VINA RESULT:      -5.5      6.289      8.977
REMARK  4 active torsions:
REMARK  status: ('A' for Active; 'I' for Inactive)
REMARK    1  A    between atoms: C_2  and  C_3 
REMARK    2  A    between atoms: C_2  and  N_11 
REMARK    3  A    between atoms: C_3  and  N_4 
REMARK       I    between atoms: N_11  and  C_12 
REMARK    4  A    between atoms: C_12  and  C_14 
ROOT
HETATM    1  N   UNL     1     -40.910 -46.629  11.810  1.00  0.00    -0.355 N 
HETATM    2  C   UNL     1     -40.809 -45.451  11.102  1.00  0.00     0.222 C 
HETATM    3  O   UNL     1     -41.151 -45.359   9.928  1.00  0.00    -0.273 OA
HETATM    4  H   UNL     1     -40.588 -46.668  12.770  1.00  0.00     0.162 HD
ENDROOT
BRANCH   1   5
HETATM    5  C   UNL     1     -41.354 -47.867  11.173  1.00  0.00     0.100 C 
HETATM    6  C   UNL     1     -40.700 -49.061  11.868  1.00  0.00     0.034 C 
BRANCH   5   7
HETATM    7  C   UNL     1     -42.881 -48.011  11.192  1.00  0.00     0.174 C 
BRANCH   7   8
HETATM    8  N   UNL     1     -43.483 -47.826   9.890  1.00  0.00    -0.285 N 
HETATM    9  C   UNL     1     -44.773 -47.511   9.593  1.00  0.00     0.201 A 
HETATM   10  N   UNL     1     -44.908 -47.399   8.291  1.00  0.00    -0.346 N 
HETATM   11  C   UNL     1     -43.650 -47.662   7.828  1.00  0.00     0.198 A 
ATOM     12  HN  UNL     1     -45.746 -47.170   7.758  1.00  0.00     0.167 HD
HETATM   13  N   UNL     1     -42.743 -47.941   8.769  1.00  0.00    -0.293 N 
ATOM     14  HN  UNL     1     -41.756 -48.177   8.666  1.00  0.00     0.188 HD
ENDBRANCH   7   8
ENDBRANCH   5   7
ENDBRANCH   1   5
BRANCH   2  15
HETATM   15  C   UNL     1     -40.304 -44.264  11.916  1.00  0.00     0.088 C 
HETATM   16  C   UNL     1     -40.988 -44.166  13.280  1.00  0.00     0.034 C 
HETATM   17  C   UNL     1     -42.419 -43.665  13.145  1.00  0.00     0.126 C 
HETATM   18  N   UNL     1     -42.487 -42.421  12.395  1.00  0.00    -0.356 N 
HETATM   19  C   UNL     1     -43.693 -41.625  12.533  1.00  0.00     0.152 C 
HETATM   20  C   UNL     1     -41.815 -42.332  11.182  1.00  0.00     0.220 C 
HETATM   21  O   UNL     1     -42.221 -41.672  10.227  1.00  0.00    -0.273 OA
HETATM   22  C   UNL     1     -40.432 -42.949  11.157  1.00  0.00     0.117 C 
ENDBRANCH   2  15
TORSDOF 4
ENDMDL
MODEL 3
REMARK VINA RESULT:      -5.5      3.319      5.703
REMARK  4 active torsions:
REMARK  status: ('A' for Active; 'I' for Inactive)
REMARK    1  A    between atoms: C_2  and  C_3 
REMARK    2  A    between atoms: C_2  and  N_11 
REMARK    3  A    between atoms: C_3  and  N_4 
REMARK       I    between atoms: N_11  and  C_12 
REMARK    4  A    between atoms: C_12  and  C_14 
ROOT
HETATM    1  N   UNL     1     -41.920 -49.965  11.672  1.00  0.00    -0.355 N 
HETATM    2  C   UNL     1     -42.706 -50.678  12.550  1.00  0.00     0.222 C 
HETATM    3  O   UNL     1     -43.547 -50.142  13.264  1.00  0.00    -0.273 OA
HETATM    4  H   UNL     1     -41.217 -50.444  11.122  1.00  0.00     0.162 HD
ENDROOT
BRANCH   1   5
HETATM    5  C   UNL     1     -41.983 -48.506  11.602  1.00  0.00     0.100 C 
HETATM    6  C   UNL     1     -40.839 -47.906  12.419  1.00  0.00     0.034 C 
BRANCH   5   7
HETATM    7  C   UNL     1     -41.931 -47.994  10.157  1.00  0.00     0.174 C 
BRANCH   7   8
HETATM    8  N   UNL     1     -43.242 -47.785   9.583  1.00  0.00    -0.285 N 
HETATM    9  C   UNL     1     -43.569 -47.571   8.280  1.00  0.00     0.201 A 
HETATM   10  N   UNL     1     -44.873 -47.464   8.168  1.00  0.00    -0.346 N 
HETATM   11  C   UNL     1     -45.307 -47.618   9.453  1.00  0.00     0.198 A 
ATOM     12  HN  UNL     1     -45.427 -47.304   7.326  1.00  0.00     0.167 HD
HETATM   13  N   UNL     1     -44.343 -47.807  10.361  1.00  0.00    -0.293 N 
ATOM     14  HN  UNL     1     -44.421 -47.934  11.370  1.00  0.00     0.188 HD
ENDBRANCH   7   8
ENDBRANCH   5   7
ENDBRANCH   1   5
BRANCH   2  15
HETATM   15  C   UNL     1     -42.493 -52.188  12.509  1.00  0.00     0.088 C 
HETATM   16  C   UNL     1     -42.898 -52.865  13.818  1.00  0.00     0.034 C 
HETATM   17  C   UNL     1     -41.880 -52.594  14.917  1.00  0.00     0.126 C 
HETATM   18  N   UNL     1     -40.531 -52.944  14.501  1.00  0.00    -0.356 N 
HETATM   19  C   UNL     1     -39.539 -53.129  15.544  1.00  0.00     0.152 C 
HETATM   20  C   UNL     1     -40.068 -52.485  13.273  1.00  0.00     0.220 C 
HETATM   21  O   UNL     1     -38.896 -52.182  13.060  1.00  0.00    -0.273 OA
HETATM   22  C   UNL     1     -41.064 -52.558  12.134  1.00  0.00     0.117 C 
ENDBRANCH   2  15
TORSDOF 4
ENDMDL
MODEL 4
REMARK VINA RESULT:      -5.4      3.143      5.185
REMARK  4 active torsions:
REMARK  status: ('A' for Active; 'I' for Inactive)
REMARK    1  A    between atoms: C_2  and  C_3 
REMARK    2  A    between atoms: C_2  and  N_11 
REMARK    3  A    between atoms: C_3  and  N_4 
REMARK       I    between atoms: N_11  and  C_12 
REMARK    4  A    between atoms: C_12  and  C_14 
ROOT
HETATM    1  N   UNL     1     -41.609 -50.705  11.953  1.00  0.00    -0.355 N 
HETATM    2  C   UNL     1     -42.490 -51.439  12.716  1.00  0.00     0.222 C 
HETATM    3  O   UNL     1     -43.300 -50.914  13.473  1.00  0.00    -0.273 OA
HETATM    4  H   UNL     1     -40.936 -51.180  11.363  1.00  0.00     0.162 HD
ENDROOT
BRANCH   1   5
HETATM    5  C   UNL     1     -41.530 -49.250  12.065  1.00  0.00     0.100 C 
HETATM    6  C   UNL     1     -40.389 -48.872  13.009  1.00  0.00     0.034 C 
BRANCH   5   7
HETATM    7  C   UNL     1     -41.339 -48.574  10.702  1.00  0.00     0.174 C 
BRANCH   7   8
HETATM    8  N   UNL     1     -42.566 -48.031  10.162  1.00  0.00    -0.285 N 
HETATM    9  C   UNL     1     -43.650 -47.561  10.835  1.00  0.00     0.201 A 
HETATM   10  N   UNL     1     -44.542 -47.121   9.978  1.00  0.00    -0.346 N 
HETATM   11  C   UNL     1     -43.948 -47.351   8.770  1.00  0.00     0.198 A 
ATOM     12  HN  UNL     1     -45.455 -46.709  10.167  1.00  0.00     0.167 HD
HETATM   13  N   UNL     1     -42.739 -47.918   8.829  1.00  0.00    -0.293 N 
ATOM     14  HN  UNL     1     -42.115 -48.191   8.070  1.00  0.00     0.188 HD
ENDBRANCH   7   8
ENDBRANCH   5   7
ENDBRANCH   1   5
BRANCH   2  15
HETATM   15  C   UNL     1     -42.421 -52.946  12.491  1.00  0.00     0.088 C 
HETATM   16  C   UNL     1     -43.112 -53.730  13.606  1.00  0.00     0.034 C 
HETATM   17  C   UNL     1     -42.280 -53.724  14.881  1.00  0.00     0.126 C 
HETATM   18  N   UNL     1     -40.920 -54.178  14.639  1.00  0.00    -0.356 N 
HETATM   19  C   UNL     1     -40.148 -54.613  15.789  1.00  0.00     0.152 C 
HETATM   20  C   UNL     1     -40.207 -53.627  13.580  1.00  0.00     0.220 C 
HETATM   21  O   UNL     1     -38.992 -53.443  13.603  1.00  0.00    -0.273 OA
HETATM   22  C   UNL     1     -40.991 -53.435  12.299  1.00  0.00     0.117 C 
ENDBRANCH   2  15
TORSDOF 4
ENDMDL
MODEL 5
REMARK VINA RESULT:      -5.4      4.884      7.334
REMARK  4 active torsions:
REMARK  status: ('A' for Active; 'I' for Inactive)
REMARK    1  A    between atoms: C_2  and  C_3 
REMARK    2  A    between atoms: C_2  and  N_11 
REMARK    3  A    between atoms: C_3  and  N_4 
REMARK       I    between atoms: N_11  and  C_12 
REMARK    4  A    between atoms: C_12  and  C_14 
ROOT
HETATM    1  N   UNL     1     -41.000 -48.395  11.961  1.00  0.00    -0.355 N 
HETATM    2  C   UNL     1     -40.054 -49.339  11.628  1.00  0.00     0.222 C 
HETATM    3  O   UNL     1     -40.342 -50.381  11.048  1.00  0.00    -0.273 OA
HETATM    4  H   UNL     1     -40.722 -47.561  12.466  1.00  0.00     0.162 HD
ENDROOT
BRANCH   1   5
HETATM    5  C   UNL     1     -42.423 -48.620  11.718  1.00  0.00     0.100 C 
HETATM    6  C   UNL     1     -43.107 -49.025  13.023  1.00  0.00     0.034 C 
BRANCH   5   7
HETATM    7  C   UNL     1     -43.109 -47.386  11.118  1.00  0.00     0.174 C 
BRANCH   7   8
HETATM    8  N   UNL     1     -43.593 -47.604   9.773  1.00  0.00    -0.285 N 
HETATM    9  C   UNL     1     -44.873 -47.551   9.316  1.00  0.00     0.201 A 
HETATM   10  N   UNL     1     -44.886 -47.775   8.022  1.00  0.00    -0.346 N 
HETATM   11  C   UNL     1     -43.566 -47.967   7.729  1.00  0.00     0.198 A 
ATOM     12  HN  UNL     1     -45.686 -47.799   7.391  1.00  0.00     0.167 HD
HETATM   13  N   UNL     1     -42.734 -47.884   8.772  1.00  0.00    -0.293 N 
ATOM     14  HN  UNL     1     -41.721 -48.000   8.801  1.00  0.00     0.188 HD
ENDBRANCH   7   8
ENDBRANCH   5   7
ENDBRANCH   1   5
BRANCH   2  15
HETATM   15  C   UNL     1     -38.620 -48.952  11.976  1.00  0.00     0.088 C 
HETATM   16  C   UNL     1     -37.702 -50.169  12.082  1.00  0.00     0.034 C 
HETATM   17  C   UNL     1     -37.967 -50.950  13.361  1.00  0.00     0.126 C 
HETATM   18  N   UNL     1     -37.902 -50.097  14.538  1.00  0.00    -0.356 N 
HETATM   19  C   UNL     1     -37.726 -50.746  15.823  1.00  0.00     0.152 C 
HETATM   20  C   UNL     1     -38.605 -48.897  14.534  1.00  0.00     0.220 C 
HETATM   21  O   UNL     1     -39.119 -48.409  15.539  1.00  0.00    -0.273 OA
HETATM   22  C   UNL     1     -38.542 -48.110  13.243  1.00  0.00     0.117 C 
ENDBRANCH   2  15
TORSDOF 4
ENDMDL
MODEL 6
REMARK VINA RESULT:      -5.3      4.955      7.370
REMARK  4 active torsions:
REMARK  status: ('A' for Active; 'I' for Inactive)
REMARK    1  A    between atoms: C_2  and  C_3 
REMARK    2  A    between atoms: C_2  and  N_11 
REMARK    3  A    between atoms: C_3  and  N_4 
REMARK       I    between atoms: N_11  and  C_12 
REMARK    4  A    between atoms: C_12  and  C_14 
ROOT
HETATM    1  N   UNL     1     -40.621 -47.631  11.149  1.00  0.00    -0.355 N 
HETATM    2  C   UNL     1     -41.115 -48.889  11.415  1.00  0.00     0.222 C 
HETATM    3  O   UNL     1     -42.295 -49.088  11.687  1.00  0.00    -0.273 OA
HETATM    4  H   UNL     1     -39.633 -47.508  10.958  1.00  0.00     0.162 HD
ENDROOT
BRANCH   1   5
HETATM    5  C   UNL     1     -41.462 -46.441  11.259  1.00  0.00     0.100 C 
HETATM    6  C   UNL     1     -40.677 -45.323  11.945  1.00  0.00     0.034 C 
BRANCH   5   7
HETATM    7  C   UNL     1     -41.976 -45.968   9.893  1.00  0.00     0.174 C 
BRANCH   7   8
HETATM    8  N   UNL     1     -43.202 -46.623   9.493  1.00  0.00    -0.285 N 
HETATM    9  C   UNL     1     -43.574 -47.031   8.249  1.00  0.00     0.201 A 
HETATM   10  N   UNL     1     -44.748 -47.616   8.313  1.00  0.00    -0.346 N 
HETATM   11  C   UNL     1     -45.060 -47.537   9.641  1.00  0.00     0.198 A 
ATOM     12  HN  UNL     1     -45.294 -48.029   7.557  1.00  0.00     0.167 HD
HETATM   13  N   UNL     1     -44.148 -46.927  10.404  1.00  0.00    -0.293 N 
ATOM     14  HN  UNL     1     -44.164 -46.741  11.407  1.00  0.00     0.188 HD
ENDBRANCH   7   8
ENDBRANCH   5   7
ENDBRANCH   1   5
BRANCH   2  15
HETATM   15  C   UNL     1     -40.094 -50.014  11.277  1.00  0.00     0.088 C 
HETATM   16  C   UNL     1     -40.481 -51.248  12.092  1.00  0.00     0.034 C 
HETATM   17  C   UNL     1     -40.258 -51.018  13.580  1.00  0.00     0.126 C 
HETATM   18  N   UNL     1     -38.905 -50.565  13.860  1.00  0.00    -0.356 N 
HETATM   19  C   UNL     1     -38.426 -50.697  15.224  1.00  0.00     0.152 C 
HETATM   20  C   UNL     1     -38.382 -49.516  13.113  1.00  0.00     0.220 C 
HETATM   21  O   UNL     1     -37.598 -48.684  13.566  1.00  0.00    -0.273 OA
HETATM   22  C   UNL     1     -38.684 -49.559  11.630  1.00  0.00     0.117 C 
ENDBRANCH   2  15
TORSDOF 4
ENDMDL
MODEL 7
REMARK VINA RESULT:      -5.2      7.762     10.285
REMARK  4 active torsions:
REMARK  status: ('A' for Active; 'I' for Inactive)
REMARK    1  A    between atoms: C_2  and  C_3 
REMARK    2  A    between atoms: C_2  and  N_11 
REMARK    3  A    between atoms: C_3  and  N_4 
REMARK       I    between atoms: N_11  and  C_12 
REMARK    4  A    between atoms: C_12  and  C_14 
ROOT
HETATM    1  N   UNL     1     -41.757 -44.388  11.469  1.00  0.00    -0.355 N 
HETATM    2  C   UNL     1     -42.655 -43.371  11.234  1.00  0.00     0.222 C 
HETATM    3  O   UNL     1     -43.194 -43.209  10.144  1.00  0.00    -0.273 OA
HETATM    4  H   UNL     1     -41.312 -44.468  12.377  1.00  0.00     0.162 HD
ENDROOT
BRANCH   1   5
HETATM    5  C   UNL     1     -41.327 -45.290  10.403  1.00  0.00     0.100 C 
HETATM    6  C   UNL     1     -39.800 -45.351  10.371  1.00  0.00     0.034 C 
BRANCH   5   7
HETATM    7  C   UNL     1     -41.913 -46.698  10.564  1.00  0.00     0.174 C 
BRANCH   7   8
HETATM    8  N   UNL     1     -42.889 -47.025   9.549  1.00  0.00    -0.285 N 
HETATM    9  C   UNL     1     -44.095 -46.439   9.316  1.00  0.00     0.201 A 
HETATM   10  N   UNL     1     -44.664 -47.006   8.277  1.00  0.00    -0.346 N 
HETATM   11  C   UNL     1     -43.753 -47.953   7.905  1.00  0.00     0.198 A 
ATOM     12  HN  UNL     1     -45.566 -46.792   7.853  1.00  0.00     0.167 HD
HETATM   13  N   UNL     1     -42.652 -48.012   8.661  1.00  0.00    -0.293 N 
ATOM     14  HN  UNL     1     -41.849 -48.636   8.586  1.00  0.00     0.188 HD
ENDBRANCH   7   8
ENDBRANCH   5   7
ENDBRANCH   1   5
BRANCH   2  15
HETATM   15  C   UNL     1     -42.972 -42.510  12.453  1.00  0.00     0.088 C 
HETATM   16  C   UNL     1     -43.303 -41.067  12.072  1.00  0.00     0.034 C 
HETATM   17  C   UNL     1     -42.050 -40.304  11.665  1.00  0.00     0.126 C 
HETATM   18  N   UNL     1     -41.011 -40.390  12.679  1.00  0.00    -0.356 N 
HETATM   19  C   UNL     1     -39.947 -39.405  12.629  1.00  0.00     0.152 C 
HETATM   20  C   UNL     1     -40.684 -41.637  13.199  1.00  0.00     0.220 C 
HETATM   21  O   UNL     1     -39.549 -41.949  13.552  1.00  0.00    -0.273 OA
HETATM   22  C   UNL     1     -41.858 -42.548  13.491  1.00  0.00     0.117 C 
ENDBRANCH   2  15
TORSDOF 4
ENDMDL
MODEL 8
REMARK VINA RESULT:      -5.2      2.368      3.225
REMARK  4 active torsions:
REMARK  status: ('A' for Active; 'I' for Inactive)
REMARK    1  A    between atoms: C_2  and  C_3 
REMARK    2  A    between atoms: C_2  and  N_11 
REMARK    3  A    between atoms: C_3  and  N_4 
REMARK       I    between atoms: N_11  and  C_12 
REMARK    4  A    between atoms: C_12  and  C_14 
ROOT
HETATM    1  N   UNL     1     -42.127 -51.305  11.981  1.00  0.00    -0.355 N 
HETATM    2  C   UNL     1     -43.038 -51.729  12.923  1.00  0.00     0.222 C 
HETATM    3  O   UNL     1     -43.156 -51.184  14.015  1.00  0.00    -0.273 OA
HETATM    4  H   UNL     1     -42.043 -51.803  11.102  1.00  0.00     0.162 HD
ENDROOT
BRANCH   1   5
HETATM    5  C   UNL     1     -41.182 -50.226  12.263  1.00  0.00     0.100 C 
HETATM    6  C   UNL     1     -39.863 -50.819  12.756  1.00  0.00     0.034 C 
BRANCH   5   7
HETATM    7  C   UNL     1     -40.940 -49.335  11.039  1.00  0.00     0.174 C 
BRANCH   7   8
HETATM    8  N   UNL     1     -42.060 -48.470  10.737  1.00  0.00    -0.285 N 
HETATM    9  C   UNL     1     -42.885 -47.823  11.604  1.00  0.00     0.201 A 
HETATM   10  N   UNL     1     -43.756 -47.109  10.929  1.00  0.00    -0.346 N 
HETATM   11  C   UNL     1     -43.419 -47.359   9.630  1.00  0.00     0.198 A 
ATOM     12  HN  UNL     1     -44.502 -46.513  11.288  1.00  0.00     0.167 HD
HETATM   13  N   UNL     1     -42.391 -48.197   9.459  1.00  0.00    -0.293 N 
ATOM     14  HN  UNL     1     -41.972 -48.537   8.594  1.00  0.00     0.188 HD
ENDBRANCH   7   8
ENDBRANCH   5   7
ENDBRANCH   1   5
BRANCH   2  15
HETATM   15  C   UNL     1     -43.929 -52.882  12.470  1.00  0.00     0.088 C 
HETATM   16  C   UNL     1     -45.415 -52.554  12.613  1.00  0.00     0.034 C 
HETATM   17  C   UNL     1     -45.849 -52.586  14.071  1.00  0.00     0.126 C 
HETATM   18  N   UNL     1     -45.489 -53.840  14.715  1.00  0.00    -0.356 N 
HETATM   19  C   UNL     1     -46.178 -54.181  15.945  1.00  0.00     0.152 C 
HETATM   20  C   UNL     1     -44.190 -54.317  14.573  1.00  0.00     0.220 C 
HETATM   21  O   UNL     1     -43.599 -54.946  15.449  1.00  0.00    -0.273 OA
HETATM   22  C   UNL     1     -43.596 -54.184  13.187  1.00  0.00     0.117 C 
ENDBRANCH   2  15
TORSDOF 4
ENDMDL
MODEL 9
REMARK VINA RESULT:      -5.0      2.119      2.877
REMARK  4 active torsions:
REMARK  status: ('A' for Active; 'I' for Inactive)
REMARK    1  A    between atoms: C_2  and  C_3 
REMARK    2  A    between atoms: C_2  and  N_11 
REMARK    3  A    between atoms: C_3  and  N_4 
REMARK       I    between atoms: N_11  and  C_12 
REMARK    4  A    between atoms: C_12  and  C_14 
ROOT
HETATM    1  N   UNL     1     -43.040 -53.257  13.065  1.00  0.00    -0.355 N 
HETATM    2  C   UNL     1     -44.337 -53.701  12.934  1.00  0.00     0.222 C 
HETATM    3  O   UNL     1     -45.122 -53.206  12.132  1.00  0.00    -0.273 OA
HETATM    4  H   UNL     1     -42.432 -53.676  13.761  1.00  0.00     0.162 HD
ENDROOT
BRANCH   1   5
HETATM    5  C   UNL     1     -42.546 -52.106  12.313  1.00  0.00     0.100 C 
HETATM    6  C   UNL     1     -42.760 -50.832  13.129  1.00  0.00     0.034 C 
BRANCH   5   7
HETATM    7  C   UNL     1     -41.066 -52.253  11.936  1.00  0.00     0.174 C 
BRANCH   7   8
HETATM    8  N   UNL     1     -40.290 -52.935  12.947  1.00  0.00    -0.285 N 
HETATM    9  C   UNL     1     -39.608 -52.398  13.995  1.00  0.00     0.201 A 
HETATM   10  N   UNL     1     -39.062 -53.360  14.702  1.00  0.00    -0.346 N 
HETATM   11  C   UNL     1     -39.442 -54.488  14.033  1.00  0.00     0.198 A 
ATOM     12  HN  UNL     1     -38.493 -53.283  15.545  1.00  0.00     0.167 HD
HETATM   13  N   UNL     1     -40.187 -54.280  12.943  1.00  0.00    -0.293 N 
ATOM     14  HN  UNL     1     -40.574 -54.957  12.286  1.00  0.00     0.188 HD
ENDBRANCH   7   8
ENDBRANCH   5   7
ENDBRANCH   1   5
BRANCH   2  15
HETATM   15  C   UNL     1     -44.690 -54.897  13.813  1.00  0.00     0.088 C 
HETATM   16  C   UNL     1     -46.094 -54.782  14.407  1.00  0.00     0.034 C 
HETATM   17  C   UNL     1     -46.137 -53.750  15.524  1.00  0.00     0.126 C 
HETATM   18  N   UNL     1     -45.122 -54.004  16.534  1.00  0.00    -0.356 N 
HETATM   19  C   UNL     1     -45.298 -53.375  17.830  1.00  0.00     0.152 C 
HETATM   20  C   UNL     1     -43.814 -54.238  16.125  1.00  0.00     0.220 C 
HETATM   21  O   UNL     1     -42.828 -53.888  16.771  1.00  0.00    -0.273 OA
HETATM   22  C   UNL     1     -43.661 -55.129  14.911  1.00  0.00     0.117 C 
ENDBRANCH   2  15
TORSDOF 4
ENDMDL
