MODEL 1
REMARK VINA RESULT:      -6.7      0.000      0.000
REMARK  4 active torsions:
REMARK  status: ('A' for Active; 'I' for Inactive)
REMARK       I    between atoms: N_2  and  C_4 
REMARK       I    between atoms: C_4  and  N_6 
REMARK    1  A    between atoms: C_10  and  C_12 
REMARK       I    between atoms: C_12  and  N_14 
REMARK    2  A    between atoms: N_14  and  C_15 
REMARK    3  A    between atoms: C_15  and  C_16 
REMARK    4  A    between atoms: C_16  and  C_17 
ROOT
HETATM    1  C   UNL     1     -40.899 -52.067  12.143  1.00  0.00     0.223 C 
HETATM    2  O   UNL     1     -40.315 -53.044  12.603  1.00  0.00    -0.273 OA
HETATM    3  N   UNL     1     -42.270 -52.003  12.044  1.00  0.00    -0.360 N 
HETATM    4  H   UNL     1     -42.692 -51.089  11.929  1.00  0.00     0.162 HD
ENDROOT
BRANCH   1   5
HETATM    5  C   UNL     1     -40.173 -50.822  11.651  1.00  0.00     0.096 C 
HETATM    6  C   UNL     1     -38.787 -50.675  12.273  1.00  0.00     0.017 C 
HETATM    7  C   UNL     1     -38.165 -49.340  11.864  1.00  0.00     0.021 C 
HETATM    8  C   UNL     1     -39.082 -48.169  12.211  1.00  0.00     0.127 C 
HETATM    9  N   UNL     1     -40.423 -48.331  11.634  1.00  0.00    -0.333 N 
HETATM   10  C   UNL     1     -40.975 -47.245  10.980  1.00  0.00     0.319 C 
HETATM   11  C   UNL     1     -41.052 -49.607  11.958  1.00  0.00     0.141 C 
HETATM   12  N   UNL     1     -42.315 -47.217  10.622  1.00  0.00    -0.343 N 
HETATM   13  O   UNL     1     -40.258 -46.280  10.686  1.00  0.00    -0.247 OA
HETATM   14  C   UNL     1     -42.726 -46.082   9.808  1.00  0.00     0.154 C 
HETATM   15  C   UNL     1     -43.414 -47.991  11.178  1.00  0.00     0.154 C 
ENDBRANCH   1   5
BRANCH   3  16
HETATM   16  C   UNL     1     -43.079 -53.077  12.603  1.00  0.00     0.128 C 
BRANCH  16  17
HETATM   17  C   UNL     1     -44.525 -52.997  12.124  1.00  0.00     0.076 C 
BRANCH  17  18
HETATM   18  C   UNL     1     -45.480 -52.748  13.257  1.00  0.00     0.010 A 
HETATM   19  C   UNL     1     -45.689 -51.457  13.737  1.00  0.00     0.025 A 
HETATM   20  C   UNL     1     -46.549 -51.272  14.814  1.00  0.00     0.003 A 
HETATM   21  C   UNL     1     -47.185 -52.373  15.374  1.00  0.00     0.017 A 
HETATM   22  C   UNL     1     -46.940 -53.616  14.822  1.00  0.00     0.088 A 
HETATM   23  N   UNL     1     -46.107 -53.829  13.781  1.00  0.00    -0.369 N 
ATOM     24  HN  UNL     1     -45.956 -54.765  13.405  1.00  0.00     0.165 HD
ENDBRANCH  17  18
ENDBRANCH  16  17
ENDBRANCH   3  16
TORSDOF 4
ENDMDL
MODEL 2
REMARK VINA RESULT:      -6.7      2.918      7.337
REMARK  4 active torsions:
REMARK  status: ('A' for Active; 'I' for Inactive)
REMARK       I    between atoms: N_2  and  C_4 
REMARK       I    between atoms: C_4  and  N_6 
REMARK    1  A    between atoms: C_10  and  C_12 
REMARK       I    between atoms: C_12  and  N_14 
REMARK    2  A    between atoms: N_14  and  C_15 
REMARK    3  A    between atoms: C_15  and  C_16 
REMARK    4  A    between atoms: C_16  and  C_17 
ROOT
HETATM    1  C   UNL     1     -40.825 -51.880  12.251  1.00  0.00     0.223 C 
HETATM    2  O   UNL     1     -39.619 -51.848  12.476  1.00  0.00    -0.273 OA
HETATM    3  N   UNL     1     -41.479 -50.874  11.578  1.00  0.00    -0.360 N 
HETATM    4  H   UNL     1     -42.387 -51.084  11.182  1.00  0.00     0.162 HD
ENDROOT
BRANCH   1   5
HETATM    5  C   UNL     1     -41.718 -53.039  12.674  1.00  0.00     0.096 C 
HETATM    6  C   UNL     1     -43.184 -52.800  12.322  1.00  0.00     0.017 C 
HETATM    7  C   UNL     1     -44.052 -53.917  12.899  1.00  0.00     0.021 C 
HETATM    8  C   UNL     1     -43.835 -54.073  14.403  1.00  0.00     0.127 C 
HETATM    9  N   UNL     1     -42.419 -54.273  14.735  1.00  0.00    -0.333 N 
HETATM   10  C   UNL     1     -42.106 -55.292  15.616  1.00  0.00     0.319 C 
HETATM   11  C   UNL     1     -41.534 -53.256  14.178  1.00  0.00     0.141 C 
HETATM   12  N   UNL     1     -40.843 -55.404  16.179  1.00  0.00    -0.343 N 
HETATM   13  O   UNL     1     -42.963 -56.140  15.899  1.00  0.00    -0.247 OA
HETATM   14  C   UNL     1     -40.608 -56.604  16.968  1.00  0.00     0.154 C 
HETATM   15  C   UNL     1     -39.830 -54.370  16.336  1.00  0.00     0.154 C 
ENDBRANCH   1   5
BRANCH   3  16
HETATM   16  C   UNL     1     -40.710 -49.776  11.008  1.00  0.00     0.128 C 
BRANCH  16  17
HETATM   17  C   UNL     1     -41.323 -48.423  11.355  1.00  0.00     0.076 C 
BRANCH  17  18
HETATM   18  C   UNL     1     -42.441 -48.056  10.420  1.00  0.00     0.010 A 
HETATM   19  C   UNL     1     -43.696 -47.712  10.918  1.00  0.00     0.025 A 
HETATM   20  C   UNL     1     -44.716 -47.419  10.021  1.00  0.00     0.003 A 
HETATM   21  C   UNL     1     -44.457 -47.464   8.656  1.00  0.00     0.017 A 
HETATM   22  C   UNL     1     -43.178 -47.792   8.247  1.00  0.00     0.088 A 
HETATM   23  N   UNL     1     -42.168 -48.087   9.093  1.00  0.00    -0.369 N 
ATOM     24  HN  UNL     1     -41.238 -48.323   8.747  1.00  0.00     0.165 HD
ENDBRANCH  17  18
ENDBRANCH  16  17
ENDBRANCH   3  16
TORSDOF 4
ENDMDL
MODEL 3
REMARK VINA RESULT:      -6.4      2.452      4.088
REMARK  4 active torsions:
REMARK  status: ('A' for Active; 'I' for Inactive)
REMARK       I    between atoms: N_2  and  C_4 
REMARK       I    between atoms: C_4  and  N_6 
REMARK    1  A    between atoms: C_10  and  C_12 
REMARK       I    between atoms: C_12  and  N_14 
REMARK    2  A    between atoms: N_14  and  C_15 
REMARK    3  A    between atoms: C_15  and  C_16 
REMARK    4  A    between atoms: C_16  and  C_17 
ROOT
HETATM    1  C   UNL     1     -44.208 -53.598  12.664  1.00  0.00     0.223 C 
HETATM    2  O   UNL     1     -44.952 -54.568  12.562  1.00  0.00    -0.273 OA
HETATM    3  N   UNL     1     -44.654 -52.304  12.518  1.00  0.00    -0.360 N 
HETATM    4  H   UNL     1     -44.073 -51.560  12.886  1.00  0.00     0.162 HD
ENDROOT
BRANCH   1   5
HETATM    5  C   UNL     1     -42.723 -53.720  12.979  1.00  0.00     0.096 C 
HETATM    6  C   UNL     1     -42.463 -54.535  14.243  1.00  0.00     0.017 C 
HETATM    7  C   UNL     1     -40.977 -54.500  14.595  1.00  0.00     0.021 C 
HETATM    8  C   UNL     1     -40.466 -53.066  14.717  1.00  0.00     0.127 C 
HETATM    9  N   UNL     1     -40.745 -52.279  13.509  1.00  0.00    -0.333 N 
HETATM   10  C   UNL     1     -39.714 -51.521  12.985  1.00  0.00     0.319 C 
HETATM   11  C   UNL     1     -42.146 -52.307  13.099  1.00  0.00     0.141 C 
HETATM   12  N   UNL     1     -39.941 -50.564  12.006  1.00  0.00    -0.343 N 
HETATM   13  O   UNL     1     -38.556 -51.707  13.381  1.00  0.00    -0.247 OA
HETATM   14  C   UNL     1     -38.750 -49.948  11.440  1.00  0.00     0.154 C 
HETATM   15  C   UNL     1     -41.186 -49.887  11.677  1.00  0.00     0.154 C 
ENDBRANCH   1   5
BRANCH   3  16
HETATM   16  C   UNL     1     -46.079 -52.053  12.346  1.00  0.00     0.128 C 
BRANCH  16  17
HETATM   17  C   UNL     1     -46.703 -51.476  13.613  1.00  0.00     0.076 C 
BRANCH  17  18
HETATM   18  C   UNL     1     -46.151 -52.118  14.854  1.00  0.00     0.010 A 
HETATM   19  C   UNL     1     -45.294 -51.411  15.695  1.00  0.00     0.025 A 
HETATM   20  C   UNL     1     -44.771 -52.053  16.813  1.00  0.00     0.003 A 
HETATM   21  C   UNL     1     -45.124 -53.373  17.068  1.00  0.00     0.017 A 
HETATM   22  C   UNL     1     -45.998 -53.993  16.195  1.00  0.00     0.088 A 
HETATM   23  N   UNL     1     -46.518 -53.399  15.099  1.00  0.00    -0.369 N 
ATOM     24  HN  UNL     1     -47.162 -53.895  14.482  1.00  0.00     0.165 HD
ENDBRANCH  17  18
ENDBRANCH  16  17
ENDBRANCH   3  16
TORSDOF 4
ENDMDL
MODEL 4
REMARK VINA RESULT:      -6.0      2.218      6.968
REMARK  4 active torsions:
REMARK  status: ('A' for Active; 'I' for Inactive)
REMARK       I    between atoms: N_2  and  C_4 
REMARK       I    between atoms: C_4  and  N_6 
REMARK    1  A    between atoms: C_10  and  C_12 
REMARK       I    between atoms: C_12  and  N_14 
REMARK    2  A    between atoms: N_14  and  C_15 
REMARK    3  A    between atoms: C_15  and  C_16 
REMARK    4  A    between atoms: C_16  and  C_17 
ROOT
HETATM    1  C   UNL     1     -40.727 -52.219  13.084  1.00  0.00     0.223 C 
HETATM    2  O   UNL     1     -39.700 -52.676  12.590  1.00  0.00    -0.273 OA
HETATM    3  N   UNL     1     -41.292 -51.040  12.654  1.00  0.00    -0.360 N 
HETATM    4  H   UNL     1     -42.261 -50.867  12.893  1.00  0.00     0.162 HD
ENDROOT
BRANCH   1   5
HETATM    5  C   UNL     1     -41.490 -52.912  14.204  1.00  0.00     0.096 C 
HETATM    6  C   UNL     1     -40.724 -54.100  14.779  1.00  0.00     0.017 C 
HETATM    7  C   UNL     1     -41.593 -54.847  15.790  1.00  0.00     0.021 C 
HETATM    8  C   UNL     1     -42.929 -55.263  15.178  1.00  0.00     0.127 C 
HETATM    9  N   UNL     1     -43.647 -54.119  14.600  1.00  0.00    -0.333 N 
HETATM   10  C   UNL     1     -44.989 -53.985  14.905  1.00  0.00     0.319 C 
HETATM   11  C   UNL     1     -42.853 -53.342  13.654  1.00  0.00     0.141 C 
HETATM   12  N   UNL     1     -45.804 -53.094  14.222  1.00  0.00    -0.343 N 
HETATM   13  O   UNL     1     -45.478 -54.659  15.821  1.00  0.00    -0.247 OA
HETATM   14  C   UNL     1     -47.155 -52.947  14.744  1.00  0.00     0.154 C 
HETATM   15  C   UNL     1     -45.600 -52.514  12.903  1.00  0.00     0.154 C 
ENDBRANCH   1   5
BRANCH   3  16
HETATM   16  C   UNL     1     -40.727 -50.353  11.500  1.00  0.00     0.128 C 
BRANCH  16  17
HETATM   17  C   UNL     1     -40.406 -48.896  11.817  1.00  0.00     0.076 C 
BRANCH  17  18
HETATM   18  C   UNL     1     -41.240 -47.947  11.004  1.00  0.00     0.010 A 
HETATM   19  C   UNL     1     -41.038 -46.571  11.095  1.00  0.00     0.025 A 
HETATM   20  C   UNL     1     -41.857 -45.723  10.358  1.00  0.00     0.003 A 
HETATM   21  C   UNL     1     -42.844 -46.267   9.544  1.00  0.00     0.017 A 
HETATM   22  C   UNL     1     -42.961 -47.643   9.494  1.00  0.00     0.088 A 
HETATM   23  N   UNL     1     -42.186 -48.492  10.201  1.00  0.00    -0.369 N 
ATOM     24  HN  UNL     1     -42.307 -49.503  10.133  1.00  0.00     0.165 HD
ENDBRANCH  17  18
ENDBRANCH  16  17
ENDBRANCH   3  16
TORSDOF 4
ENDMDL
MODEL 5
REMARK VINA RESULT:      -6.0      2.383      6.771
REMARK  4 active torsions:
REMARK  status: ('A' for Active; 'I' for Inactive)
REMARK       I    between atoms: N_2  and  C_4 
REMARK       I    between atoms: C_4  and  N_6 
REMARK    1  A    between atoms: C_10  and  C_12 
REMARK       I    between atoms: C_12  and  N_14 
REMARK    2  A    between atoms: N_14  and  C_15 
REMARK    3  A    between atoms: C_15  and  C_16 
REMARK    4  A    between atoms: C_16  and  C_17 
ROOT
HETATM    1  C   UNL     1     -42.373 -49.730  13.601  1.00  0.00     0.223 C 
HETATM    2  O   UNL     1     -43.159 -48.910  14.066  1.00  0.00    -0.273 OA
HETATM    3  N   UNL     1     -41.495 -49.421  12.587  1.00  0.00    -0.360 N 
HETATM    4  H   UNL     1     -40.700 -50.034  12.448  1.00  0.00     0.162 HD
ENDROOT
BRANCH   1   5
HETATM    5  C   UNL     1     -42.273 -51.163  14.106  1.00  0.00     0.096 C 
HETATM    6  C   UNL     1     -40.919 -51.795  13.793  1.00  0.00     0.017 C 
HETATM    7  C   UNL     1     -40.924 -53.272  14.185  1.00  0.00     0.021 C 
HETATM    8  C   UNL     1     -42.079 -54.021  13.522  1.00  0.00     0.127 C 
HETATM    9  N   UNL     1     -43.375 -53.390  13.803  1.00  0.00    -0.333 N 
HETATM   10  C   UNL     1     -44.414 -54.211  14.201  1.00  0.00     0.319 C 
HETATM   11  C   UNL     1     -43.419 -51.967  13.485  1.00  0.00     0.141 C 
HETATM   12  N   UNL     1     -45.723 -53.755  14.250  1.00  0.00    -0.343 N 
HETATM   13  O   UNL     1     -44.176 -55.378  14.541  1.00  0.00    -0.247 OA
HETATM   14  C   UNL     1     -46.691 -54.676  14.828  1.00  0.00     0.154 C 
HETATM   15  C   UNL     1     -46.311 -52.622  13.550  1.00  0.00     0.154 C 
ENDBRANCH   1   5
BRANCH   3  16
HETATM   16  C   UNL     1     -41.405 -48.047  12.112  1.00  0.00     0.128 C 
BRANCH  16  17
HETATM   17  C   UNL     1     -41.253 -47.988  10.595  1.00  0.00     0.076 C 
BRANCH  17  18
HETATM   18  C   UNL     1     -42.578 -47.827   9.904  1.00  0.00     0.010 A 
HETATM   19  C   UNL     1     -43.731 -47.556  10.637  1.00  0.00     0.025 A 
HETATM   20  C   UNL     1     -44.945 -47.455   9.966  1.00  0.00     0.003 A 
HETATM   21  C   UNL     1     -44.975 -47.615   8.585  1.00  0.00     0.017 A 
HETATM   22  C   UNL     1     -43.781 -47.859   7.932  1.00  0.00     0.088 A 
HETATM   23  N   UNL     1     -42.589 -47.968   8.556  1.00  0.00    -0.369 N 
ATOM     24  HN  UNL     1     -41.731 -48.148   8.033  1.00  0.00     0.165 HD
ENDBRANCH  17  18
ENDBRANCH  16  17
ENDBRANCH   3  16
TORSDOF 4
ENDMDL
MODEL 6
REMARK VINA RESULT:      -5.7      4.825      8.059
REMARK  4 active torsions:
REMARK  status: ('A' for Active; 'I' for Inactive)
REMARK       I    between atoms: N_2  and  C_4 
REMARK       I    between atoms: C_4  and  N_6 
REMARK    1  A    between atoms: C_10  and  C_12 
REMARK       I    between atoms: C_12  and  N_14 
REMARK    2  A    between atoms: N_14  and  C_15 
REMARK    3  A    between atoms: C_15  and  C_16 
REMARK    4  A    between atoms: C_16  and  C_17 
ROOT
HETATM    1  C   UNL     1     -46.142 -52.643  18.031  1.00  0.00     0.223 C 
HETATM    2  O   UNL     1     -46.441 -51.851  18.919  1.00  0.00    -0.273 OA
HETATM    3  N   UNL     1     -46.036 -53.997  18.254  1.00  0.00    -0.360 N 
HETATM    4  H   UNL     1     -46.069 -54.612  17.449  1.00  0.00     0.162 HD
ENDROOT
BRANCH   1   5
HETATM    5  C   UNL     1     -45.876 -52.218  16.594  1.00  0.00     0.096 C 
HETATM    6  C   UNL     1     -47.137 -51.722  15.892  1.00  0.00     0.017 C 
HETATM    7  C   UNL     1     -46.847 -51.452  14.416  1.00  0.00     0.021 C 
HETATM    8  C   UNL     1     -46.249 -52.680  13.732  1.00  0.00     0.127 C 
HETATM    9  N   UNL     1     -45.053 -53.169  14.429  1.00  0.00    -0.333 N 
HETATM   10  C   UNL     1     -43.940 -53.463  13.663  1.00  0.00     0.319 C 
HETATM   11  C   UNL     1     -45.258 -53.408  15.854  1.00  0.00     0.141 C 
HETATM   12  N   UNL     1     -42.859 -54.156  14.187  1.00  0.00    -0.343 N 
HETATM   13  O   UNL     1     -43.892 -53.086  12.484  1.00  0.00    -0.247 OA
HETATM   14  C   UNL     1     -41.697 -54.264  13.317  1.00  0.00     0.154 C 
HETATM   15  C   UNL     1     -42.825 -55.028  15.351  1.00  0.00     0.154 C 
ENDBRANCH   1   5
BRANCH   3  16
HETATM   16  C   UNL     1     -46.396 -54.540  19.557  1.00  0.00     0.128 C 
BRANCH  16  17
HETATM   17  C   UNL     1     -46.514 -56.060  19.517  1.00  0.00     0.076 C 
BRANCH  17  18
HETATM   18  C   UNL     1     -47.915 -56.523  19.805  1.00  0.00     0.010 A 
HETATM   19  C   UNL     1     -48.831 -55.669  20.415  1.00  0.00     0.025 A 
HETATM   20  C   UNL     1     -50.105 -56.147  20.702  1.00  0.00     0.003 A 
HETATM   21  C   UNL     1     -50.435 -57.455  20.364  1.00  0.00     0.017 A 
HETATM   22  C   UNL     1     -49.473 -58.227  19.740  1.00  0.00     0.088 A 
HETATM   23  N   UNL     1     -48.227 -57.794  19.453  1.00  0.00    -0.369 N 
ATOM     24  HN  UNL     1     -47.548 -58.399  18.990  1.00  0.00     0.165 HD
ENDBRANCH  17  18
ENDBRANCH  16  17
ENDBRANCH   3  16
TORSDOF 4
ENDMDL
MODEL 7
REMARK VINA RESULT:      -5.7      3.185      8.106
REMARK  4 active torsions:
REMARK  status: ('A' for Active; 'I' for Inactive)
REMARK       I    between atoms: N_2  and  C_4 
REMARK       I    between atoms: C_4  and  N_6 
REMARK    1  A    between atoms: C_10  and  C_12 
REMARK       I    between atoms: C_12  and  N_14 
REMARK    2  A    between atoms: N_14  and  C_15 
REMARK    3  A    between atoms: C_15  and  C_16 
REMARK    4  A    between atoms: C_16  and  C_17 
ROOT
HETATM    1  C   UNL     1     -42.095 -53.679  13.668  1.00  0.00     0.223 C 
HETATM    2  O   UNL     1     -40.981 -53.683  14.183  1.00  0.00    -0.273 OA
HETATM    3  N   UNL     1     -42.349 -53.072  12.459  1.00  0.00    -0.360 N 
HETATM    4  H   UNL     1     -43.190 -53.342  11.963  1.00  0.00     0.162 HD
ENDROOT
BRANCH   1   5
HETATM    5  C   UNL     1     -43.304 -54.356  14.298  1.00  0.00     0.096 C 
HETATM    6  C   UNL     1     -44.481 -54.460  13.331  1.00  0.00     0.017 C 
HETATM    7  C   UNL     1     -45.710 -55.008  14.056  1.00  0.00     0.021 C 
HETATM    8  C   UNL     1     -46.048 -54.174  15.290  1.00  0.00     0.127 C 
HETATM    9  N   UNL     1     -44.902 -54.054  16.201  1.00  0.00    -0.333 N 
HETATM   10  C   UNL     1     -45.128 -54.278  17.547  1.00  0.00     0.319 C 
HETATM   11  C   UNL     1     -43.685 -53.572  15.557  1.00  0.00     0.141 C 
HETATM   12  N   UNL     1     -44.181 -53.951  18.507  1.00  0.00    -0.343 N 
HETATM   13  O   UNL     1     -46.190 -54.799  17.910  1.00  0.00    -0.247 OA
HETATM   14  C   UNL     1     -44.487 -54.378  19.865  1.00  0.00     0.154 C 
HETATM   15  C   UNL     1     -43.083 -53.002  18.405  1.00  0.00     0.154 C 
ENDBRANCH   1   5
BRANCH   3  16
HETATM   16  C   UNL     1     -41.245 -52.506  11.696  1.00  0.00     0.128 C 
BRANCH  16  17
HETATM   17  C   UNL     1     -41.150 -50.995  11.884  1.00  0.00     0.076 C 
BRANCH  17  18
HETATM   18  C   UNL     1     -39.857 -50.590  12.534  1.00  0.00     0.010 A 
HETATM   19  C   UNL     1     -38.878 -49.919  11.804  1.00  0.00     0.025 A 
HETATM   20  C   UNL     1     -37.678 -49.597  12.429  1.00  0.00     0.003 A 
HETATM   21  C   UNL     1     -37.492 -49.940  13.764  1.00  0.00     0.017 A 
HETATM   22  C   UNL     1     -38.524 -50.584  14.420  1.00  0.00     0.088 A 
HETATM   23  N   UNL     1     -39.697 -50.914  13.840  1.00  0.00    -0.369 N 
ATOM     24  HN  UNL     1     -40.433 -51.389  14.363  1.00  0.00     0.165 HD
ENDBRANCH  17  18
ENDBRANCH  16  17
ENDBRANCH   3  16
TORSDOF 4
ENDMDL
MODEL 8
REMARK VINA RESULT:      -5.7      2.917      7.975
REMARK  4 active torsions:
REMARK  status: ('A' for Active; 'I' for Inactive)
REMARK       I    between atoms: N_2  and  C_4 
REMARK       I    between atoms: C_4  and  N_6 
REMARK    1  A    between atoms: C_10  and  C_12 
REMARK       I    between atoms: C_12  and  N_14 
REMARK    2  A    between atoms: N_14  and  C_15 
REMARK    3  A    between atoms: C_15  and  C_16 
REMARK    4  A    between atoms: C_16  and  C_17 
ROOT
HETATM    1  C   UNL     1     -42.941 -49.995  12.957  1.00  0.00     0.223 C 
HETATM    2  O   UNL     1     -42.910 -49.003  13.679  1.00  0.00    -0.273 OA
HETATM    3  N   UNL     1     -42.213 -50.086  11.793  1.00  0.00    -0.360 N 
HETATM    4  H   UNL     1     -42.060 -51.009  11.403  1.00  0.00     0.162 HD
ENDROOT
BRANCH   1   5
HETATM    5  C   UNL     1     -43.771 -51.231  13.278  1.00  0.00     0.096 C 
HETATM    6  C   UNL     1     -45.271 -50.954  13.219  1.00  0.00     0.017 C 
HETATM    7  C   UNL     1     -46.051 -52.180  13.694  1.00  0.00     0.021 C 
HETATM    8  C   UNL     1     -45.599 -52.625  15.084  1.00  0.00     0.127 C 
HETATM    9  N   UNL     1     -44.151 -52.861  15.140  1.00  0.00    -0.333 N 
HETATM   10  C   UNL     1     -43.715 -54.027  15.741  1.00  0.00     0.319 C 
HETATM   11  C   UNL     1     -43.352 -51.737  14.661  1.00  0.00     0.141 C 
HETATM   12  N   UNL     1     -42.380 -54.224  16.063  1.00  0.00    -0.343 N 
HETATM   13  O   UNL     1     -44.527 -54.930  15.984  1.00  0.00    -0.247 OA
HETATM   14  C   UNL     1     -42.038 -55.552  16.551  1.00  0.00     0.154 C 
HETATM   15  C   UNL     1     -41.341 -53.223  16.257  1.00  0.00     0.154 C 
ENDBRANCH   1   5
BRANCH   3  16
HETATM   16  C   UNL     1     -41.280 -49.022  11.447  1.00  0.00     0.128 C 
BRANCH  16  17
HETATM   17  C   UNL     1     -41.870 -48.076  10.406  1.00  0.00     0.076 C 
BRANCH  17  18
HETATM   18  C   UNL     1     -41.442 -46.653  10.633  1.00  0.00     0.010 A 
HETATM   19  C   UNL     1     -42.348 -45.711  11.117  1.00  0.00     0.025 A 
HETATM   20  C   UNL     1     -41.926 -44.395  11.275  1.00  0.00     0.003 A 
HETATM   21  C   UNL     1     -40.615 -44.058  10.959  1.00  0.00     0.017 A 
HETATM   22  C   UNL     1     -39.776 -45.059  10.508  1.00  0.00     0.088 A 
HETATM   23  N   UNL     1     -40.156 -46.343  10.339  1.00  0.00    -0.369 N 
ATOM     24  HN  UNL     1     -39.502 -47.051  10.003  1.00  0.00     0.165 HD
ENDBRANCH  17  18
ENDBRANCH  16  17
ENDBRANCH   3  16
TORSDOF 4
ENDMDL
MODEL 9
REMARK VINA RESULT:      -5.5      2.875      4.443
REMARK  4 active torsions:
REMARK  status: ('A' for Active; 'I' for Inactive)
REMARK       I    between atoms: N_2  and  C_4 
REMARK       I    between atoms: C_4  and  N_6 
REMARK    1  A    between atoms: C_10  and  C_12 
REMARK       I    between atoms: C_12  and  N_14 
REMARK    2  A    between atoms: N_14  and  C_15 
REMARK    3  A    between atoms: C_15  and  C_16 
REMARK    4  A    between atoms: C_16  and  C_17 
ROOT
HETATM    1  C   UNL     1     -42.750 -54.768  15.468  1.00  0.00     0.223 C 
HETATM    2  O   UNL     1     -43.543 -55.645  15.140  1.00  0.00    -0.273 OA
HETATM    3  N   UNL     1     -42.922 -53.999  16.596  1.00  0.00    -0.360 N 
HETATM    4  H   UNL     1     -42.114 -53.506  16.959  1.00  0.00     0.162 HD
ENDROOT
BRANCH   1   5
HETATM    5  C   UNL     1     -41.488 -54.450  14.676  1.00  0.00     0.096 C 
HETATM    6  C   UNL     1     -40.236 -55.040  15.319  1.00  0.00     0.017 C 
HETATM    7  C   UNL     1     -38.989 -54.568  14.572  1.00  0.00     0.021 C 
HETATM    8  C   UNL     1     -38.933 -53.044  14.487  1.00  0.00     0.127 C 
HETATM    9  N   UNL     1     -40.153 -52.482  13.893  1.00  0.00    -0.333 N 
HETATM   10  C   UNL     1     -40.005 -51.526  12.906  1.00  0.00     0.319 C 
HETATM   11  C   UNL     1     -41.382 -52.929  14.542  1.00  0.00     0.141 C 
HETATM   12  N   UNL     1     -41.077 -50.765  12.464  1.00  0.00    -0.343 N 
HETATM   13  O   UNL     1     -38.894 -51.352  12.386  1.00  0.00    -0.247 OA
HETATM   14  C   UNL     1     -40.810 -49.905  11.320  1.00  0.00     0.154 C 
HETATM   15  C   UNL     1     -42.330 -50.487  13.149  1.00  0.00     0.154 C 
ENDBRANCH   1   5
BRANCH   3  16
HETATM   16  C   UNL     1     -44.020 -54.297  17.506  1.00  0.00     0.128 C 
BRANCH  16  17
HETATM   17  C   UNL     1     -44.938 -53.093  17.690  1.00  0.00     0.076 C 
BRANCH  17  18
HETATM   18  C   UNL     1     -45.513 -52.620  16.385  1.00  0.00     0.010 A 
HETATM   19  C   UNL     1     -46.371 -53.436  15.652  1.00  0.00     0.025 A 
HETATM   20  C   UNL     1     -46.850 -52.979  14.429  1.00  0.00     0.003 A 
HETATM   21  C   UNL     1     -46.472 -51.721  13.976  1.00  0.00     0.017 A 
HETATM   22  C   UNL     1     -45.635 -50.966  14.776  1.00  0.00     0.088 A 
HETATM   23  N   UNL     1     -45.149 -51.383  15.965  1.00  0.00    -0.369 N 
ATOM     24  HN  UNL     1     -44.534 -50.792  16.524  1.00  0.00     0.165 HD
ENDBRANCH  17  18
ENDBRANCH  16  17
ENDBRANCH   3  16
TORSDOF 4
ENDMDL
