MODEL 1
REMARK VINA RESULT:      -6.1      0.000      0.000
REMARK  3 active torsions:
REMARK  status: ('A' for Active; 'I' for Inactive)
REMARK    1  A    between atoms: C_2  and  C_4 
REMARK       I    between atoms: N_10  and  C_11 
REMARK       I    between atoms: C_11  and  N_13 
REMARK    2  A    between atoms: N_13  and  C_14 
REMARK    3  A    between atoms: C_14  and  C_16 
ROOT
HETATM    1  C   UNL     1     -44.688 -47.438   9.630  1.00  0.00     0.073 A 
HETATM    2  N   UNL     1     -44.037 -48.198  10.488  1.00  0.00    -0.296 N 
ATOM      3  HN  UNL     1     -44.450 -48.997  10.970  1.00  0.00     0.187 HD
HETATM    4  N   UNL     1     -42.740 -47.788  10.655  1.00  0.00    -0.279 N 
ATOM      5  HN  UNL     1     -42.076 -48.239  11.285  1.00  0.00     0.189 HD
HETATM    6  C   UNL     1     -42.452 -46.747   9.911  1.00  0.00     0.169 A 
HETATM    7  N   UNL     1     -41.292 -46.028   9.887  1.00  0.00    -0.288 N 
HETATM    8  C   UNL     1     -40.302 -46.137  10.820  1.00  0.00     0.322 C 
HETATM    9  O   UNL     1     -39.320 -45.404  10.750  1.00  0.00    -0.247 OA
HETATM   10  N   UNL     1     -40.497 -47.029  11.832  1.00  0.00    -0.336 N 
HETATM   11  S   UNL     1     -43.712 -46.221   8.892  1.00  0.00    -0.037 SA
HETATM   12  H   UNL     1     -41.187 -45.287   9.212  1.00  0.00     0.172 HD
HETATM   13  H   UNL     1     -41.184 -47.763  11.680  1.00  0.00     0.164 HD
ENDROOT
BRANCH  10  14
HETATM   14  C   UNL     1     -39.599 -47.222  12.962  1.00  0.00     0.111 C 
HETATM   15  C   UNL     1     -40.321 -46.739  14.224  1.00  0.00     0.035 C 
BRANCH  14  16
HETATM   16  C   UNL     1     -39.155 -48.690  13.119  1.00  0.00     0.143 C 
HETATM   17  C   UNL     1     -37.907 -49.093  12.353  1.00  0.00     0.036 C 
HETATM   18  C   UNL     1     -38.075 -50.585  12.149  1.00  0.00     0.029 C 
HETATM   19  C   UNL     1     -39.520 -50.871  12.508  1.00  0.00     0.168 C 
HETATM   20  O   UNL     1     -40.169 -49.604  12.663  1.00  0.00    -0.384 OA
ENDBRANCH  14  16
ENDBRANCH  10  14
BRANCH   1  21
HETATM   21  C   UNL     1     -46.153 -47.577   9.338  1.00  0.00     0.036 C 
HETATM   22  C   UNL     1     -46.727 -46.250   8.843  1.00  0.00     0.016 C 
HETATM   23  C   UNL     1     -46.368 -48.670   8.287  1.00  0.00     0.016 C 
ENDBRANCH   1  21
TORSDOF 3
ENDMDL
MODEL 2
REMARK VINA RESULT:      -6.0      4.873      6.670
REMARK  3 active torsions:
REMARK  status: ('A' for Active; 'I' for Inactive)
REMARK    1  A    between atoms: C_2  and  C_4 
REMARK       I    between atoms: N_10  and  C_11 
REMARK       I    between atoms: C_11  and  N_13 
REMARK    2  A    between atoms: N_13  and  C_14 
REMARK    3  A    between atoms: C_14  and  C_16 
ROOT
HETATM    1  C   UNL     1     -41.665 -48.796  11.471  1.00  0.00     0.073 A 
HETATM    2  N   UNL     1     -42.705 -49.557  11.747  1.00  0.00    -0.296 N 
ATOM      3  HN  UNL     1     -43.668 -49.219  11.779  1.00  0.00     0.187 HD
HETATM    4  N   UNL     1     -42.340 -50.856  11.988  1.00  0.00    -0.279 N 
ATOM      5  HN  UNL     1     -42.998 -51.598  12.230  1.00  0.00     0.189 HD
HETATM    6  C   UNL     1     -41.046 -51.035  11.871  1.00  0.00     0.169 A 
HETATM    7  N   UNL     1     -40.330 -52.170  12.120  1.00  0.00    -0.288 N 
HETATM    8  C   UNL     1     -40.825 -53.263  12.769  1.00  0.00     0.322 C 
HETATM    9  O   UNL     1     -40.087 -54.215  13.004  1.00  0.00    -0.247 OA
HETATM   10  N   UNL     1     -42.122 -53.205  13.183  1.00  0.00    -0.336 N 
HETATM   11  S   UNL     1     -40.171 -49.655  11.389  1.00  0.00    -0.037 SA
HETATM   12  H   UNL     1     -39.341 -52.180  11.922  1.00  0.00     0.172 HD
HETATM   13  H   UNL     1     -42.725 -52.520  12.734  1.00  0.00     0.164 HD
ENDROOT
BRANCH  10  14
HETATM   14  C   UNL     1     -42.798 -54.232  13.964  1.00  0.00     0.111 C 
HETATM   15  C   UNL     1     -42.463 -53.996  15.441  1.00  0.00     0.035 C 
BRANCH  14  16
HETATM   16  C   UNL     1     -44.324 -54.229  13.747  1.00  0.00     0.143 C 
HETATM   17  C   UNL     1     -44.998 -52.868  13.770  1.00  0.00     0.036 C 
HETATM   18  C   UNL     1     -46.422 -53.176  14.185  1.00  0.00     0.029 C 
HETATM   19  C   UNL     1     -46.386 -54.610  14.680  1.00  0.00     0.168 C 
HETATM   20  O   UNL     1     -45.007 -54.986  14.764  1.00  0.00    -0.384 OA
ENDBRANCH  14  16
ENDBRANCH  10  14
BRANCH   1  21
HETATM   21  C   UNL     1     -41.748 -47.310  11.280  1.00  0.00     0.036 C 
HETATM   22  C   UNL     1     -40.357 -46.725  11.039  1.00  0.00     0.016 C 
HETATM   23  C   UNL     1     -42.667 -46.992  10.096  1.00  0.00     0.016 C 
ENDBRANCH   1  21
TORSDOF 3
ENDMDL
MODEL 3
REMARK VINA RESULT:      -6.0      4.101      5.745
REMARK  3 active torsions:
REMARK  status: ('A' for Active; 'I' for Inactive)
REMARK    1  A    between atoms: C_2  and  C_4 
REMARK       I    between atoms: N_10  and  C_11 
REMARK       I    between atoms: C_11  and  N_13 
REMARK    2  A    between atoms: N_13  and  C_14 
REMARK    3  A    between atoms: C_14  and  C_16 
ROOT
HETATM    1  C   UNL     1     -44.642 -52.507  13.182  1.00  0.00     0.073 A 
HETATM    2  N   UNL     1     -44.853 -51.240  12.884  1.00  0.00    -0.296 N 
ATOM      3  HN  UNL     1     -45.770 -50.793  12.909  1.00  0.00     0.187 HD
HETATM    4  N   UNL     1     -43.694 -50.596  12.537  1.00  0.00    -0.279 N 
ATOM      5  HN  UNL     1     -43.648 -49.614  12.264  1.00  0.00     0.189 HD
HETATM    6  C   UNL     1     -42.651 -51.389  12.598  1.00  0.00     0.169 A 
HETATM    7  N   UNL     1     -41.363 -51.109  12.243  1.00  0.00    -0.288 N 
HETATM    8  C   UNL     1     -40.984 -50.007  11.532  1.00  0.00     0.322 C 
HETATM    9  O   UNL     1     -39.810 -49.872  11.204  1.00  0.00    -0.247 OA
HETATM   10  N   UNL     1     -41.967 -49.137  11.166  1.00  0.00    -0.336 N 
HETATM   11  S   UNL     1     -42.978 -52.966  13.151  1.00  0.00    -0.037 SA
HETATM   12  H   UNL     1     -40.647 -51.800  12.407  1.00  0.00     0.172 HD
HETATM   13  H   UNL     1     -42.841 -49.176  11.684  1.00  0.00     0.164 HD
ENDROOT
BRANCH  10  14
HETATM   14  C   UNL     1     -41.772 -47.957  10.335  1.00  0.00     0.111 C 
HETATM   15  C   UNL     1     -43.106 -47.637   9.652  1.00  0.00     0.035 C 
BRANCH  14  16
HETATM   16  C   UNL     1     -41.271 -46.742  11.141  1.00  0.00     0.143 C 
HETATM   17  C   UNL     1     -42.007 -45.435  10.902  1.00  0.00     0.036 C 
HETATM   18  C   UNL     1     -40.984 -44.375  11.252  1.00  0.00     0.029 C 
HETATM   19  C   UNL     1     -39.664 -45.117  11.346  1.00  0.00     0.168 C 
HETATM   20  O   UNL     1     -39.895 -46.439  10.848  1.00  0.00    -0.384 OA
ENDBRANCH  14  16
ENDBRANCH  10  14
BRANCH   1  21
HETATM   21  C   UNL     1     -45.739 -53.485  13.484  1.00  0.00     0.036 C 
HETATM   22  C   UNL     1     -45.153 -54.803  13.993  1.00  0.00     0.016 C 
HETATM   23  C   UNL     1     -46.688 -52.890  14.529  1.00  0.00     0.016 C 
ENDBRANCH   1  21
TORSDOF 3
ENDMDL
MODEL 4
REMARK VINA RESULT:      -5.4      4.789      5.905
REMARK  3 active torsions:
REMARK  status: ('A' for Active; 'I' for Inactive)
REMARK    1  A    between atoms: C_2  and  C_4 
REMARK       I    between atoms: N_10  and  C_11 
REMARK       I    between atoms: C_11  and  N_13 
REMARK    2  A    between atoms: N_13  and  C_14 
REMARK    3  A    between atoms: C_14  and  C_16 
ROOT
HETATM    1  C   UNL     1     -44.736 -52.282  13.935  1.00  0.00     0.073 A 
HETATM    2  N   UNL     1     -43.975 -51.210  14.022  1.00  0.00    -0.296 N 
ATOM      3  HN  UNL     1     -44.335 -50.256  14.067  1.00  0.00     0.187 HD
HETATM    4  N   UNL     1     -42.642 -51.528  14.044  1.00  0.00    -0.279 N 
ATOM      5  HN  UNL     1     -41.892 -50.839  14.097  1.00  0.00     0.189 HD
HETATM    6  C   UNL     1     -42.443 -52.824  13.988  1.00  0.00     0.169 A 
HETATM    7  N   UNL     1     -41.253 -53.487  13.905  1.00  0.00    -0.288 N 
HETATM    8  C   UNL     1     -40.058 -52.889  13.627  1.00  0.00     0.322 C 
HETATM    9  O   UNL     1     -39.049 -53.576  13.511  1.00  0.00    -0.247 OA
HETATM   10  N   UNL     1     -40.070 -51.541  13.428  1.00  0.00    -0.336 N 
HETATM   11  S   UNL     1     -43.860 -53.769  13.976  1.00  0.00    -0.037 SA
HETATM   12  H   UNL     1     -41.249 -54.495  13.936  1.00  0.00     0.172 HD
HETATM   13  H   UNL     1     -40.866 -51.023  13.792  1.00  0.00     0.164 HD
ENDROOT
BRANCH  10  14
HETATM   14  C   UNL     1     -38.917 -50.742  13.037  1.00  0.00     0.111 C 
HETATM   15  C   UNL     1     -39.289 -49.968  11.768  1.00  0.00     0.035 C 
BRANCH  14  16
HETATM   16  C   UNL     1     -38.464 -49.775  14.149  1.00  0.00     0.143 C 
HETATM   17  C   UNL     1     -38.066 -48.381  13.697  1.00  0.00     0.036 C 
HETATM   18  C   UNL     1     -37.108 -47.912  14.772  1.00  0.00     0.029 C 
HETATM   19  C   UNL     1     -36.772 -49.158  15.570  1.00  0.00     0.168 C 
HETATM   20  O   UNL     1     -37.307 -50.271  14.847  1.00  0.00    -0.384 OA
ENDBRANCH  14  16
ENDBRANCH  10  14
BRANCH   1  21
HETATM   21  C   UNL     1     -46.228 -52.234  13.775  1.00  0.00     0.036 C 
HETATM   22  C   UNL     1     -46.859 -51.414  14.900  1.00  0.00     0.016 C 
HETATM   23  C   UNL     1     -46.581 -51.626  12.414  1.00  0.00     0.016 C 
ENDBRANCH   1  21
TORSDOF 3
ENDMDL
MODEL 5
REMARK VINA RESULT:      -5.2      5.388      8.145
REMARK  3 active torsions:
REMARK  status: ('A' for Active; 'I' for Inactive)
REMARK    1  A    between atoms: C_2  and  C_4 
REMARK       I    between atoms: N_10  and  C_11 
REMARK       I    between atoms: C_11  and  N_13 
REMARK    2  A    between atoms: N_13  and  C_14 
REMARK    3  A    between atoms: C_14  and  C_16 
ROOT
HETATM    1  C   UNL     1     -39.903 -50.760  13.007  1.00  0.00     0.073 A 
HETATM    2  N   UNL     1     -40.992 -50.018  12.963  1.00  0.00    -0.296 N 
ATOM      3  HN  UNL     1     -41.002 -49.009  13.119  1.00  0.00     0.187 HD
HETATM    4  N   UNL     1     -42.109 -50.762  12.683  1.00  0.00    -0.279 N 
ATOM      5  HN  UNL     1     -43.050 -50.375  12.616  1.00  0.00     0.189 HD
HETATM    6  C   UNL     1     -41.825 -52.031  12.511  1.00  0.00     0.169 A 
HETATM    7  N   UNL     1     -42.693 -53.064  12.304  1.00  0.00    -0.288 N 
HETATM    8  C   UNL     1     -44.044 -52.977  12.477  1.00  0.00     0.322 C 
HETATM    9  O   UNL     1     -44.740 -53.978  12.327  1.00  0.00    -0.247 OA
HETATM   10  N   UNL     1     -44.544 -51.774  12.876  1.00  0.00    -0.336 N 
HETATM   11  S   UNL     1     -40.169 -52.417  12.605  1.00  0.00    -0.037 SA
HETATM   12  H   UNL     1     -42.326 -53.985  12.121  1.00  0.00     0.172 HD
HETATM   13  H   UNL     1     -43.961 -50.954  12.724  1.00  0.00     0.164 HD
ENDROOT
BRANCH  10  14
HETATM   14  C   UNL     1     -45.940 -51.512  13.195  1.00  0.00     0.111 C 
HETATM   15  C   UNL     1     -46.791 -51.990  12.013  1.00  0.00     0.035 C 
BRANCH  14  16
HETATM   16  C   UNL     1     -46.388 -52.203  14.498  1.00  0.00     0.143 C 
HETATM   17  C   UNL     1     -47.280 -51.383  15.414  1.00  0.00     0.036 C 
HETATM   18  C   UNL     1     -47.027 -51.971  16.787  1.00  0.00     0.029 C 
HETATM   19  C   UNL     1     -45.795 -52.842  16.621  1.00  0.00     0.168 C 
HETATM   20  O   UNL     1     -45.263 -52.566  15.321  1.00  0.00    -0.384 OA
ENDBRANCH  14  16
ENDBRANCH  10  14
BRANCH   1  21
HETATM   21  C   UNL     1     -38.555 -50.237  13.406  1.00  0.00     0.036 C 
HETATM   22  C   UNL     1     -38.237 -50.627  14.849  1.00  0.00     0.016 C 
HETATM   23  C   UNL     1     -37.485 -50.793  12.461  1.00  0.00     0.016 C 
ENDBRANCH   1  21
TORSDOF 3
ENDMDL
MODEL 6
REMARK VINA RESULT:      -5.1      7.112     10.038
REMARK  3 active torsions:
REMARK  status: ('A' for Active; 'I' for Inactive)
REMARK    1  A    between atoms: C_2  and  C_4 
REMARK       I    between atoms: N_10  and  C_11 
REMARK       I    between atoms: C_11  and  N_13 
REMARK    2  A    between atoms: N_13  and  C_14 
REMARK    3  A    between atoms: C_14  and  C_16 
ROOT
HETATM    1  C   UNL     1     -39.533 -55.302  15.982  1.00  0.00     0.073 A 
HETATM    2  N   UNL     1     -40.758 -55.164  16.449  1.00  0.00    -0.296 N 
ATOM      3  HN  UNL     1     -41.070 -55.532  17.349  1.00  0.00     0.187 HD
HETATM    4  N   UNL     1     -41.562 -54.469  15.584  1.00  0.00    -0.279 N 
ATOM      5  HN  UNL     1     -42.546 -54.267  15.758  1.00  0.00     0.189 HD
HETATM    6  C   UNL     1     -40.917 -54.095  14.505  1.00  0.00     0.169 A 
HETATM    7  N   UNL     1     -41.421 -53.465  13.404  1.00  0.00    -0.288 N 
HETATM    8  C   UNL     1     -42.752 -53.325  13.140  1.00  0.00     0.322 C 
HETATM    9  O   UNL     1     -43.111 -52.797  12.092  1.00  0.00    -0.247 OA
HETATM   10  N   UNL     1     -43.623 -53.848  14.048  1.00  0.00    -0.336 N 
HETATM   11  S   UNL     1     -39.261 -54.493  14.482  1.00  0.00    -0.037 SA
HETATM   12  H   UNL     1     -40.790 -53.176  12.671  1.00  0.00     0.172 HD
HETATM   13  H   UNL     1     -43.269 -54.025  14.985  1.00  0.00     0.164 HD
ENDROOT
BRANCH  10  14
HETATM   14  C   UNL     1     -45.072 -53.875  13.899  1.00  0.00     0.111 C 
HETATM   15  C   UNL     1     -45.507 -55.341  13.793  1.00  0.00     0.035 C 
BRANCH  14  16
HETATM   16  C   UNL     1     -45.798 -53.177  15.066  1.00  0.00     0.143 C 
HETATM   17  C   UNL     1     -46.751 -52.058  14.683  1.00  0.00     0.036 C 
HETATM   18  C   UNL     1     -46.793 -51.180  15.916  1.00  0.00     0.029 C 
HETATM   19  C   UNL     1     -45.640 -51.659  16.779  1.00  0.00     0.168 C 
HETATM   20  O   UNL     1     -44.870 -52.563  15.979  1.00  0.00    -0.384 OA
ENDBRANCH  14  16
ENDBRANCH  10  14
BRANCH   1  21
HETATM   21  C   UNL     1     -38.470 -56.116  16.659  1.00  0.00     0.036 C 
HETATM   22  C   UNL     1     -37.571 -55.219  17.509  1.00  0.00     0.016 C 
HETATM   23  C   UNL     1     -39.122 -57.192  17.533  1.00  0.00     0.016 C 
ENDBRANCH   1  21
TORSDOF 3
ENDMDL
MODEL 7
REMARK VINA RESULT:      -5.1     11.851     14.603
REMARK  3 active torsions:
REMARK  status: ('A' for Active; 'I' for Inactive)
REMARK    1  A    between atoms: C_2  and  C_4 
REMARK       I    between atoms: N_10  and  C_11 
REMARK       I    between atoms: C_11  and  N_13 
REMARK    2  A    between atoms: N_13  and  C_14 
REMARK    3  A    between atoms: C_14  and  C_16 
ROOT
HETATM    1  C   UNL     1     -30.238 -52.747  19.161  1.00  0.00     0.073 A 
HETATM    2  N   UNL     1     -31.516 -52.654  19.473  1.00  0.00    -0.296 N 
ATOM      3  HN  UNL     1     -31.890 -51.999  20.160  1.00  0.00     0.187 HD
HETATM    4  N   UNL     1     -32.282 -53.543  18.764  1.00  0.00    -0.279 N 
ATOM      5  HN  UNL     1     -33.292 -53.634  18.868  1.00  0.00     0.189 HD
HETATM    6  C   UNL     1     -31.563 -54.262  17.936  1.00  0.00     0.169 A 
HETATM    7  N   UNL     1     -31.978 -55.293  17.142  1.00  0.00    -0.288 N 
HETATM    8  C   UNL     1     -33.191 -55.909  17.256  1.00  0.00     0.322 C 
HETATM    9  O   UNL     1     -33.452 -56.869  16.538  1.00  0.00    -0.247 OA
HETATM   10  N   UNL     1     -34.032 -55.450  18.224  1.00  0.00    -0.336 N 
HETATM   11  S   UNL     1     -29.906 -53.872  17.895  1.00  0.00    -0.037 SA
HETATM   12  H   UNL     1     -31.323 -55.715  16.502  1.00  0.00     0.172 HD
HETATM   13  H   UNL     1     -33.861 -54.515  18.585  1.00  0.00     0.164 HD
ENDROOT
BRANCH  10  14
HETATM   14  C   UNL     1     -35.326 -56.033  18.554  1.00  0.00     0.111 C 
HETATM   15  C   UNL     1     -35.525 -55.910  20.069  1.00  0.00     0.035 C 
BRANCH  14  16
HETATM   16  C   UNL     1     -36.487 -55.358  17.798  1.00  0.00     0.143 C 
HETATM   17  C   UNL     1     -37.788 -55.212  18.570  1.00  0.00     0.036 C 
HETATM   18  C   UNL     1     -38.846 -55.160  17.487  1.00  0.00     0.029 C 
HETATM   19  C   UNL     1     -38.136 -55.600  16.221  1.00  0.00     0.168 C 
HETATM   20  O   UNL     1     -36.851 -56.093  16.615  1.00  0.00    -0.384 OA
ENDBRANCH  14  16
ENDBRANCH  10  14
BRANCH   1  21
HETATM   21  C   UNL     1     -29.153 -51.982  19.860  1.00  0.00     0.036 C 
HETATM   22  C   UNL     1     -29.585 -50.533  20.089  1.00  0.00     0.016 C 
HETATM   23  C   UNL     1     -28.826 -52.653  21.197  1.00  0.00     0.016 C 
ENDBRANCH   1  21
TORSDOF 3
ENDMDL
MODEL 8
REMARK VINA RESULT:      -5.1      3.882      5.826
REMARK  3 active torsions:
REMARK  status: ('A' for Active; 'I' for Inactive)
REMARK    1  A    between atoms: C_2  and  C_4 
REMARK       I    between atoms: N_10  and  C_11 
REMARK       I    between atoms: C_11  and  N_13 
REMARK    2  A    between atoms: N_13  and  C_14 
REMARK    3  A    between atoms: C_14  and  C_16 
ROOT
HETATM    1  C   UNL     1     -41.144 -47.337  10.819  1.00  0.00     0.073 A 
HETATM    2  N   UNL     1     -41.275 -48.502  10.217  1.00  0.00    -0.296 N 
ATOM      3  HN  UNL     1     -41.500 -48.611   9.228  1.00  0.00     0.187 HD
HETATM    4  N   UNL     1     -41.072 -49.550  11.078  1.00  0.00    -0.279 N 
ATOM      5  HN  UNL     1     -41.139 -50.531  10.807  1.00  0.00     0.189 HD
HETATM    6  C   UNL     1     -40.783 -49.142  12.290  1.00  0.00     0.169 A 
HETATM    7  N   UNL     1     -40.605 -49.902  13.410  1.00  0.00    -0.288 N 
HETATM    8  C   UNL     1     -40.935 -51.224  13.502  1.00  0.00     0.322 C 
HETATM    9  O   UNL     1     -40.797 -51.810  14.571  1.00  0.00    -0.247 OA
HETATM   10  N   UNL     1     -41.470 -51.808  12.393  1.00  0.00    -0.336 N 
HETATM   11  S   UNL     1     -40.661 -47.453  12.472  1.00  0.00    -0.037 SA
HETATM   12  H   UNL     1     -40.319 -49.455  14.267  1.00  0.00     0.172 HD
HETATM   13  H   UNL     1     -41.310 -51.348  11.501  1.00  0.00     0.164 HD
ENDROOT
BRANCH  10  14
HETATM   14  C   UNL     1     -41.963 -53.177  12.325  1.00  0.00     0.111 C 
HETATM   15  C   UNL     1     -40.843 -54.105  12.808  1.00  0.00     0.035 C 
BRANCH  14  16
HETATM   16  C   UNL     1     -43.240 -53.388  13.162  1.00  0.00     0.143 C 
HETATM   17  C   UNL     1     -43.104 -54.307  14.364  1.00  0.00     0.036 C 
HETATM   18  C   UNL     1     -44.508 -54.833  14.577  1.00  0.00     0.029 C 
HETATM   19  C   UNL     1     -45.266 -54.452  13.319  1.00  0.00     0.168 C 
HETATM   20  O   UNL     1     -44.299 -53.971  12.380  1.00  0.00    -0.384 OA
ENDBRANCH  14  16
ENDBRANCH  10  14
BRANCH   1  21
HETATM   21  C   UNL     1     -41.423 -46.020  10.156  1.00  0.00     0.036 C 
HETATM   22  C   UNL     1     -42.920 -45.861   9.894  1.00  0.00     0.016 C 
HETATM   23  C   UNL     1     -40.917 -44.878  11.042  1.00  0.00     0.016 C 
ENDBRANCH   1  21
TORSDOF 3
ENDMDL
MODEL 9
REMARK VINA RESULT:      -5.1      7.598     10.500
REMARK  3 active torsions:
REMARK  status: ('A' for Active; 'I' for Inactive)
REMARK    1  A    between atoms: C_2  and  C_4 
REMARK       I    between atoms: N_10  and  C_11 
REMARK       I    between atoms: C_11  and  N_13 
REMARK    2  A    between atoms: N_13  and  C_14 
REMARK    3  A    between atoms: C_14  and  C_16 
ROOT
HETATM    1  C   UNL     1     -40.469 -55.888  17.701  1.00  0.00     0.073 A 
HETATM    2  N   UNL     1     -41.756 -55.649  17.545  1.00  0.00    -0.296 N 
ATOM      3  HN  UNL     1     -42.474 -55.928  18.215  1.00  0.00     0.187 HD
HETATM    4  N   UNL     1     -42.015 -54.980  16.377  1.00  0.00    -0.279 N 
ATOM      5  HN  UNL     1     -42.950 -54.712  16.069  1.00  0.00     0.189 HD
HETATM    6  C   UNL     1     -40.921 -54.725  15.702  1.00  0.00     0.169 A 
HETATM    7  N   UNL     1     -40.811 -54.156  14.466  1.00  0.00    -0.288 N 
HETATM    8  C   UNL     1     -41.859 -53.965  13.612  1.00  0.00     0.322 C 
HETATM    9  O   UNL     1     -41.654 -53.502  12.495  1.00  0.00    -0.247 OA
HETATM   10  N   UNL     1     -43.089 -54.369  14.039  1.00  0.00    -0.336 N 
HETATM   11  S   UNL     1     -39.476 -55.213  16.461  1.00  0.00    -0.037 SA
HETATM   12  H   UNL     1     -39.894 -53.959  14.095  1.00  0.00     0.172 HD
HETATM   13  H   UNL     1     -43.218 -54.492  15.040  1.00  0.00     0.164 HD
ENDROOT
BRANCH  10  14
HETATM   14  C   UNL     1     -44.306 -54.330  13.241  1.00  0.00     0.111 C 
HETATM   15  C   UNL     1     -45.301 -55.323  13.850  1.00  0.00     0.035 C 
BRANCH  14  16
HETATM   16  C   UNL     1     -44.922 -52.918  13.174  1.00  0.00     0.143 C 
HETATM   17  C   UNL     1     -45.640 -52.445  14.426  1.00  0.00     0.036 C 
HETATM   18  C   UNL     1     -46.638 -51.430  13.909  1.00  0.00     0.029 C 
HETATM   19  C   UNL     1     -46.655 -51.626  12.405  1.00  0.00     0.168 C 
HETATM   20  O   UNL     1     -45.911 -52.818  12.133  1.00  0.00    -0.384 OA
ENDBRANCH  14  16
ENDBRANCH  10  14
BRANCH   1  21
HETATM   21  C   UNL     1     -39.904 -56.703  18.827  1.00  0.00     0.036 C 
HETATM   22  C   UNL     1     -41.027 -57.240  19.713  1.00  0.00     0.016 C 
HETATM   23  C   UNL     1     -39.078 -57.863  18.260  1.00  0.00     0.016 C 
ENDBRANCH   1  21
TORSDOF 3
ENDMDL
