MODEL 1
REMARK VINA RESULT:      -5.2      0.000      0.000
REMARK  4 active torsions:
REMARK  status: ('A' for Active; 'I' for Inactive)
REMARK    1  A    between atoms: O_2  and  C_3 
REMARK    2  A    between atoms: C_3  and  C_4 
REMARK       I    between atoms: C_4  and  N_6 
REMARK    3  A    between atoms: N_6  and  C_7 
REMARK    4  A    between atoms: C_13  and  N_14 
ROOT
HETATM    1  C   UNL     1     -42.059 -52.134  12.737  1.00  0.00     0.079 A 
HETATM    2  C   UNL     1     -40.783 -52.654  12.499  1.00  0.00     0.035 A 
HETATM    3  C   UNL     1     -40.408 -53.854  13.081  1.00  0.00     0.019 A 
HETATM    4  C   UNL     1     -41.325 -54.485  13.897  1.00  0.00     0.090 A 
HETATM    5  N   UNL     1     -42.567 -54.011  14.146  1.00  0.00    -0.351 N 
ATOM      6  HN  UNL     1     -43.204 -54.525  14.755  1.00  0.00     0.166 HD
HETATM    7  C   UNL     1     -42.955 -52.842  13.574  1.00  0.00     0.130 A 
ENDROOT
BRANCH   1   8
HETATM    8  N   UNL     1     -42.464 -50.958  12.047  1.00  0.00    -0.322 N 
HETATM    9  C   UNL     1     -42.172 -49.697  12.536  1.00  0.00     0.245 C 
HETATM   10  O   UNL     1     -41.542 -49.453  13.562  1.00  0.00    -0.271 OA
HETATM   11  H   UNL     1     -43.276 -51.057  11.453  1.00  0.00     0.169 HD
BRANCH   9  12
HETATM   12  C   UNL     1     -42.799 -48.566  11.719  1.00  0.00     0.270 C 
BRANCH  12  13
HETATM   13  O   UNL     1     -42.096 -48.245  10.526  1.00  0.00    -0.387 OA
HETATM   14  C   UNL     1     -42.948 -47.666   9.537  1.00  0.00     0.202 C 
ENDBRANCH  12  13
ENDBRANCH   9  12
ENDBRANCH   1   8
BRANCH   7  15
HETATM   15  N   UNL     1     -44.264 -52.413  13.787  1.00  0.00    -0.365 N 
HETATM   16  C   UNL     1     -45.270 -52.854  12.811  1.00  0.00     0.124 C 
HETATM   17  C   UNL     1     -46.335 -51.757  12.731  1.00  0.00     0.020 C 
HETATM   18  C   UNL     1     -46.887 -51.365  14.107  1.00  0.00     0.003 C 
HETATM   19  C   UNL     1     -45.777 -51.165  15.148  1.00  0.00     0.020 C 
HETATM   20  C   UNL     1     -44.815 -52.352  15.143  1.00  0.00     0.124 C 
ENDBRANCH   7  15
TORSDOF 4
ENDMDL
MODEL 2
REMARK VINA RESULT:      -5.2      4.579      7.296
REMARK  4 active torsions:
REMARK  status: ('A' for Active; 'I' for Inactive)
REMARK    1  A    between atoms: O_2  and  C_3 
REMARK    2  A    between atoms: C_3  and  C_4 
REMARK       I    between atoms: C_4  and  N_6 
REMARK    3  A    between atoms: N_6  and  C_7 
REMARK    4  A    between atoms: C_13  and  N_14 
ROOT
HETATM    1  C   UNL     1     -42.328 -47.394   9.899  1.00  0.00     0.079 A 
HETATM    2  C   UNL     1     -43.238 -47.742   8.896  1.00  0.00     0.035 A 
HETATM    3  C   UNL     1     -44.204 -46.834   8.495  1.00  0.00     0.019 A 
HETATM    4  C   UNL     1     -44.233 -45.608   9.127  1.00  0.00     0.090 A 
HETATM    5  N   UNL     1     -43.367 -45.238  10.098  1.00  0.00    -0.351 N 
ATOM      6  HN  UNL     1     -43.434 -44.314  10.526  1.00  0.00     0.166 HD
HETATM    7  C   UNL     1     -42.406 -46.112  10.495  1.00  0.00     0.130 A 
ENDROOT
BRANCH   1   8
HETATM    8  N   UNL     1     -41.278 -48.297  10.221  1.00  0.00    -0.322 N 
HETATM    9  C   UNL     1     -41.392 -49.191  11.272  1.00  0.00     0.245 C 
HETATM   10  O   UNL     1     -42.372 -49.321  12.000  1.00  0.00    -0.271 OA
HETATM   11  H   UNL     1     -40.350 -48.003   9.952  1.00  0.00     0.169 HD
BRANCH   9  12
HETATM   12  C   UNL     1     -40.113 -49.987  11.536  1.00  0.00     0.270 C 
BRANCH  12  13
HETATM   13  O   UNL     1     -38.950 -49.188  11.710  1.00  0.00    -0.387 OA
HETATM   14  C   UNL     1     -37.752 -49.908  11.419  1.00  0.00     0.202 C 
ENDBRANCH  12  13
ENDBRANCH   9  12
ENDBRANCH   1   8
BRANCH   7  15
HETATM   15  N   UNL     1     -41.481 -45.680  11.443  1.00  0.00    -0.365 N 
HETATM   16  C   UNL     1     -40.819 -44.394  11.182  1.00  0.00     0.124 C 
HETATM   17  C   UNL     1     -39.421 -44.470  11.800  1.00  0.00     0.020 C 
HETATM   18  C   UNL     1     -39.445 -44.906  13.271  1.00  0.00     0.003 C 
HETATM   19  C   UNL     1     -40.364 -46.112  13.509  1.00  0.00     0.020 C 
HETATM   20  C   UNL     1     -41.734 -45.878  12.873  1.00  0.00     0.124 C 
ENDBRANCH   7  15
TORSDOF 4
ENDMDL
MODEL 3
REMARK VINA RESULT:      -5.2      2.319      3.264
REMARK  4 active torsions:
REMARK  status: ('A' for Active; 'I' for Inactive)
REMARK    1  A    between atoms: O_2  and  C_3 
REMARK    2  A    between atoms: C_3  and  C_4 
REMARK       I    between atoms: C_4  and  N_6 
REMARK    3  A    between atoms: N_6  and  C_7 
REMARK    4  A    between atoms: C_13  and  N_14 
ROOT
HETATM    1  C   UNL     1     -39.772 -49.994  11.618  1.00  0.00     0.079 A 
HETATM    2  C   UNL     1     -38.413 -49.781  11.367  1.00  0.00     0.035 A 
HETATM    3  C   UNL     1     -37.459 -50.404  12.155  1.00  0.00     0.019 A 
HETATM    4  C   UNL     1     -37.905 -51.210  13.183  1.00  0.00     0.090 A 
HETATM    5  N   UNL     1     -39.210 -51.440  13.451  1.00  0.00    -0.351 N 
ATOM      6  HN  UNL     1     -39.480 -52.051  14.222  1.00  0.00     0.166 HD
HETATM    7  C   UNL     1     -40.158 -50.847  12.680  1.00  0.00     0.130 A 
ENDROOT
BRANCH   1   8
HETATM    8  N   UNL     1     -40.733 -49.434  10.732  1.00  0.00    -0.322 N 
HETATM    9  C   UNL     1     -41.275 -48.180  10.956  1.00  0.00     0.245 C 
HETATM   10  O   UNL     1     -40.991 -47.430  11.886  1.00  0.00    -0.271 OA
HETATM   11  H   UNL     1     -41.283 -50.098  10.206  1.00  0.00     0.169 HD
BRANCH   9  12
HETATM   12  C   UNL     1     -42.380 -47.809   9.964  1.00  0.00     0.270 C 
BRANCH  12  13
HETATM   13  O   UNL     1     -43.684 -47.764  10.528  1.00  0.00    -0.387 OA
HETATM   14  C   UNL     1     -44.671 -47.374   9.573  1.00  0.00     0.202 C 
ENDBRANCH  12  13
ENDBRANCH   9  12
ENDBRANCH   1   8
BRANCH   7  15
HETATM   15  N   UNL     1     -41.493 -51.159  12.930  1.00  0.00    -0.365 N 
HETATM   16  C   UNL     1     -41.830 -52.585  13.033  1.00  0.00     0.124 C 
HETATM   17  C   UNL     1     -43.269 -52.748  12.536  1.00  0.00     0.020 C 
HETATM   18  C   UNL     1     -44.248 -51.793  13.230  1.00  0.00     0.003 C 
HETATM   19  C   UNL     1     -43.710 -50.357  13.308  1.00  0.00     0.020 C 
HETATM   20  C   UNL     1     -42.284 -50.347  13.858  1.00  0.00     0.124 C 
ENDBRANCH   7  15
TORSDOF 4
ENDMDL
MODEL 4
REMARK VINA RESULT:      -5.1      3.105      6.556
REMARK  4 active torsions:
REMARK  status: ('A' for Active; 'I' for Inactive)
REMARK    1  A    between atoms: O_2  and  C_3 
REMARK    2  A    between atoms: C_3  and  C_4 
REMARK       I    between atoms: C_4  and  N_6 
REMARK    3  A    between atoms: N_6  and  C_7 
REMARK    4  A    between atoms: C_13  and  N_14 
ROOT
HETATM    1  C   UNL     1     -41.187 -48.886  11.135  1.00  0.00     0.079 A 
HETATM    2  C   UNL     1     -42.096 -48.120  10.398  1.00  0.00     0.035 A 
HETATM    3  C   UNL     1     -41.882 -46.761  10.237  1.00  0.00     0.019 A 
HETATM    4  C   UNL     1     -40.766 -46.213  10.835  1.00  0.00     0.090 A 
HETATM    5  N   UNL     1     -39.866 -46.925  11.551  1.00  0.00    -0.351 N 
ATOM      6  HN  UNL     1     -39.056 -46.465  11.966  1.00  0.00     0.166 HD
HETATM    7  C   UNL     1     -40.054 -48.260  11.709  1.00  0.00     0.130 A 
ENDROOT
BRANCH   1   8
HETATM    8  N   UNL     1     -41.365 -50.296  11.199  1.00  0.00    -0.322 N 
HETATM    9  C   UNL     1     -41.936 -50.901  12.306  1.00  0.00     0.245 C 
HETATM   10  O   UNL     1     -42.354 -50.322  13.305  1.00  0.00    -0.271 OA
HETATM   11  H   UNL     1     -40.728 -50.843  10.638  1.00  0.00     0.169 HD
BRANCH   9  12
HETATM   12  C   UNL     1     -41.926 -52.429  12.236  1.00  0.00     0.270 C 
BRANCH  12  13
HETATM   13  O   UNL     1     -40.627 -53.007  12.208  1.00  0.00    -0.387 OA
HETATM   14  C   UNL     1     -40.087 -53.182  13.518  1.00  0.00     0.202 C 
ENDBRANCH  12  13
ENDBRANCH   9  12
ENDBRANCH   1   8
BRANCH   7  15
HETATM   15  N   UNL     1     -39.075 -48.983  12.388  1.00  0.00    -0.365 N 
HETATM   16  C   UNL     1     -37.938 -49.464  11.591  1.00  0.00     0.124 C 
HETATM   17  C   UNL     1     -37.458 -50.770  12.228  1.00  0.00     0.020 C 
HETATM   18  C   UNL     1     -37.190 -50.633  13.732  1.00  0.00     0.003 C 
HETATM   19  C   UNL     1     -38.318 -49.891  14.462  1.00  0.00     0.020 C 
HETATM   20  C   UNL     1     -38.662 -48.590  13.738  1.00  0.00     0.124 C 
ENDBRANCH   7  15
TORSDOF 4
ENDMDL
MODEL 5
REMARK VINA RESULT:      -5.0      3.381      4.997
REMARK  4 active torsions:
REMARK  status: ('A' for Active; 'I' for Inactive)
REMARK    1  A    between atoms: O_2  and  C_3 
REMARK    2  A    between atoms: C_3  and  C_4 
REMARK       I    between atoms: C_4  and  N_6 
REMARK    3  A    between atoms: N_6  and  C_7 
REMARK    4  A    between atoms: C_13  and  N_14 
ROOT
HETATM    1  C   UNL     1     -42.200 -53.320  14.355  1.00  0.00     0.079 A 
HETATM    2  C   UNL     1     -40.871 -53.330  13.922  1.00  0.00     0.035 A 
HETATM    3  C   UNL     1     -40.567 -52.970  12.620  1.00  0.00     0.019 A 
HETATM    4  C   UNL     1     -41.614 -52.628  11.788  1.00  0.00     0.090 A 
HETATM    5  N   UNL     1     -42.910 -52.605  12.176  1.00  0.00    -0.351 N 
ATOM      6  HN  UNL     1     -43.641 -52.337  11.517  1.00  0.00     0.166 HD
HETATM    7  C   UNL     1     -43.224 -52.942  13.453  1.00  0.00     0.130 A 
ENDROOT
BRANCH   1   8
HETATM    8  N   UNL     1     -42.482 -53.586  15.724  1.00  0.00    -0.322 N 
HETATM    9  C   UNL     1     -42.906 -54.836  16.143  1.00  0.00     0.245 C 
HETATM   10  O   UNL     1     -43.062 -55.820  15.424  1.00  0.00    -0.271 OA
HETATM   11  H   UNL     1     -42.751 -52.787  16.279  1.00  0.00     0.169 HD
BRANCH   9  12
HETATM   12  C   UNL     1     -43.276 -54.887  17.627  1.00  0.00     0.270 C 
BRANCH  12  13
HETATM   13  O   UNL     1     -44.672 -54.956  17.881  1.00  0.00    -0.387 OA
HETATM   14  C   UNL     1     -45.218 -53.688  18.243  1.00  0.00     0.202 C 
ENDBRANCH  12  13
ENDBRANCH   9  12
ENDBRANCH   1   8
BRANCH   7  15
HETATM   15  N   UNL     1     -44.557 -52.840  13.847  1.00  0.00    -0.365 N 
HETATM   16  C   UNL     1     -45.193 -51.525  13.688  1.00  0.00     0.124 C 
HETATM   17  C   UNL     1     -46.240 -51.391  14.797  1.00  0.00     0.020 C 
HETATM   18  C   UNL     1     -47.206 -52.582  14.847  1.00  0.00     0.003 C 
HETATM   19  C   UNL     1     -46.477 -53.930  14.754  1.00  0.00     0.020 C 
HETATM   20  C   UNL     1     -45.497 -53.931  13.581  1.00  0.00     0.124 C 
ENDBRANCH   7  15
TORSDOF 4
ENDMDL
MODEL 6
REMARK VINA RESULT:      -4.7      1.498      4.125
REMARK  4 active torsions:
REMARK  status: ('A' for Active; 'I' for Inactive)
REMARK    1  A    between atoms: O_2  and  C_3 
REMARK    2  A    between atoms: C_3  and  C_4 
REMARK       I    between atoms: C_4  and  N_6 
REMARK    3  A    between atoms: N_6  and  C_7 
REMARK    4  A    between atoms: C_13  and  N_14 
ROOT
HETATM    1  C   UNL     1     -44.639 -51.625  13.568  1.00  0.00     0.079 A 
HETATM    2  C   UNL     1     -45.986 -51.312  13.774  1.00  0.00     0.035 A 
HETATM    3  C   UNL     1     -46.722 -52.016  14.713  1.00  0.00     0.019 A 
HETATM    4  C   UNL     1     -46.082 -53.025  15.404  1.00  0.00     0.090 A 
HETATM    5  N   UNL     1     -44.781 -53.351  15.232  1.00  0.00    -0.351 N 
ATOM      6  HN  UNL     1     -44.360 -54.104  15.777  1.00  0.00     0.166 HD
HETATM    7  C   UNL     1     -44.042 -52.663  14.324  1.00  0.00     0.130 A 
ENDROOT
BRANCH   1   8
HETATM    8  N   UNL     1     -43.872 -50.822  12.680  1.00  0.00    -0.322 N 
HETATM    9  C   UNL     1     -43.252 -49.661  13.109  1.00  0.00     0.245 C 
HETATM   10  O   UNL     1     -43.271 -49.218  14.255  1.00  0.00    -0.271 OA
HETATM   11  H   UNL     1     -44.121 -50.890  11.703  1.00  0.00     0.169 HD
BRANCH   9  12
HETATM   12  C   UNL     1     -42.583 -48.875  11.980  1.00  0.00     0.270 C 
BRANCH  12  13
HETATM   13  O   UNL     1     -41.165 -48.815  12.068  1.00  0.00    -0.387 OA
HETATM   14  C   UNL     1     -40.539 -49.941  11.454  1.00  0.00     0.202 C 
ENDBRANCH  12  13
ENDBRANCH   9  12
ENDBRANCH   1   8
BRANCH   7  15
HETATM   15  N   UNL     1     -42.686 -52.969  14.218  1.00  0.00    -0.365 N 
HETATM   16  C   UNL     1     -41.797 -52.388  15.232  1.00  0.00     0.124 C 
HETATM   17  C   UNL     1     -40.435 -52.165  14.568  1.00  0.00     0.020 C 
HETATM   18  C   UNL     1     -39.901 -53.424  13.875  1.00  0.00     0.003 C 
HETATM   19  C   UNL     1     -40.971 -54.123  13.024  1.00  0.00     0.020 C 
HETATM   20  C   UNL     1     -42.256 -54.315  13.828  1.00  0.00     0.124 C 
ENDBRANCH   7  15
TORSDOF 4
ENDMDL
MODEL 7
REMARK VINA RESULT:      -4.6      2.815      5.505
REMARK  4 active torsions:
REMARK  status: ('A' for Active; 'I' for Inactive)
REMARK    1  A    between atoms: O_2  and  C_3 
REMARK    2  A    between atoms: C_3  and  C_4 
REMARK       I    between atoms: C_4  and  N_6 
REMARK    3  A    between atoms: N_6  and  C_7 
REMARK    4  A    between atoms: C_13  and  N_14 
ROOT
HETATM    1  C   UNL     1     -39.937 -50.217  12.644  1.00  0.00     0.079 A 
HETATM    2  C   UNL     1     -38.892 -51.086  12.973  1.00  0.00     0.035 A 
HETATM    3  C   UNL     1     -37.637 -50.896  12.419  1.00  0.00     0.019 A 
HETATM    4  C   UNL     1     -37.477 -49.846  11.539  1.00  0.00     0.090 A 
HETATM    5  N   UNL     1     -38.465 -48.986  11.202  1.00  0.00    -0.351 N 
ATOM      6  HN  UNL     1     -38.286 -48.223  10.549  1.00  0.00     0.166 HD
HETATM    7  C   UNL     1     -39.699 -49.150  11.745  1.00  0.00     0.130 A 
ENDROOT
BRANCH   1   8
HETATM    8  N   UNL     1     -41.189 -50.362  13.305  1.00  0.00    -0.322 N 
HETATM    9  C   UNL     1     -42.135 -51.273  12.866  1.00  0.00     0.245 C 
HETATM   10  O   UNL     1     -42.006 -52.040  11.916  1.00  0.00    -0.271 OA
HETATM   11  H   UNL     1     -41.515 -49.549  13.808  1.00  0.00     0.169 HD
BRANCH   9  12
HETATM   12  C   UNL     1     -43.459 -51.190  13.629  1.00  0.00     0.270 C 
BRANCH  12  13
HETATM   13  O   UNL     1     -44.162 -52.422  13.718  1.00  0.00    -0.387 OA
HETATM   14  C   UNL     1     -45.364 -52.414  12.948  1.00  0.00     0.202 C 
ENDBRANCH  12  13
ENDBRANCH   9  12
ENDBRANCH   1   8
BRANCH   7  15
HETATM   15  N   UNL     1     -40.679 -48.208  11.439  1.00  0.00    -0.365 N 
HETATM   16  C   UNL     1     -40.258 -46.801  11.417  1.00  0.00     0.124 C 
HETATM   17  C   UNL     1     -41.465 -45.959  11.839  1.00  0.00     0.020 C 
HETATM   18  C   UNL     1     -42.724 -46.277  11.023  1.00  0.00     0.003 C 
HETATM   19  C   UNL     1     -42.961 -47.786  10.875  1.00  0.00     0.020 C 
HETATM   20  C   UNL     1     -41.684 -48.488  10.411  1.00  0.00     0.124 C 
ENDBRANCH   7  15
TORSDOF 4
ENDMDL
MODEL 8
REMARK VINA RESULT:      -4.6      2.408      4.589
REMARK  4 active torsions:
REMARK  status: ('A' for Active; 'I' for Inactive)
REMARK    1  A    between atoms: O_2  and  C_3 
REMARK    2  A    between atoms: C_3  and  C_4 
REMARK       I    between atoms: C_4  and  N_6 
REMARK    3  A    between atoms: N_6  and  C_7 
REMARK    4  A    between atoms: C_13  and  N_14 
ROOT
HETATM    1  C   UNL     1     -41.725 -51.661  12.475  1.00  0.00     0.079 A 
HETATM    2  C   UNL     1     -42.704 -52.659  12.456  1.00  0.00     0.035 A 
HETATM    3  C   UNL     1     -42.540 -53.800  13.226  1.00  0.00     0.019 A 
HETATM    4  C   UNL     1     -41.388 -53.906  13.977  1.00  0.00     0.090 A 
HETATM    5  N   UNL     1     -40.424 -52.959  14.020  1.00  0.00    -0.351 N 
ATOM      6  HN  UNL     1     -39.595 -53.091  14.600  1.00  0.00     0.166 HD
HETATM    7  C   UNL     1     -40.574 -51.829  13.282  1.00  0.00     0.130 A 
ENDROOT
BRANCH   1   8
HETATM    8  N   UNL     1     -41.960 -50.451  11.765  1.00  0.00    -0.322 N 
HETATM    9  C   UNL     1     -42.598 -49.377  12.361  1.00  0.00     0.245 C 
HETATM   10  O   UNL     1     -42.999 -49.333  13.521  1.00  0.00    -0.271 OA
HETATM   11  H   UNL     1     -42.023 -50.539  10.760  1.00  0.00     0.169 HD
BRANCH   9  12
HETATM   12  C   UNL     1     -42.868 -48.219  11.398  1.00  0.00     0.270 C 
BRANCH  12  13
HETATM   13  O   UNL     1     -41.822 -47.974  10.467  1.00  0.00    -0.387 OA
HETATM   14  C   UNL     1     -41.240 -46.681  10.638  1.00  0.00     0.202 C 
ENDBRANCH  12  13
ENDBRANCH   9  12
ENDBRANCH   1   8
BRANCH   7  15
HETATM   15  N   UNL     1     -39.602 -50.837  13.401  1.00  0.00    -0.365 N 
HETATM   16  C   UNL     1     -39.261 -50.407  14.763  1.00  0.00     0.124 C 
HETATM   17  C   UNL     1     -38.856 -48.932  14.686  1.00  0.00     0.020 C 
HETATM   18  C   UNL     1     -37.777 -48.669  13.628  1.00  0.00     0.003 C 
HETATM   19  C   UNL     1     -38.083 -49.365  12.294  1.00  0.00     0.020 C 
HETATM   20  C   UNL     1     -38.430 -50.836  12.523  1.00  0.00     0.124 C 
ENDBRANCH   7  15
TORSDOF 4
ENDMDL
MODEL 9
REMARK VINA RESULT:      -4.6      3.623      5.794
REMARK  4 active torsions:
REMARK  status: ('A' for Active; 'I' for Inactive)
REMARK    1  A    between atoms: O_2  and  C_3 
REMARK    2  A    between atoms: C_3  and  C_4 
REMARK       I    between atoms: C_4  and  N_6 
REMARK    3  A    between atoms: N_6  and  C_7 
REMARK    4  A    between atoms: C_13  and  N_14 
ROOT
HETATM    1  C   UNL     1     -40.805 -54.717  16.069  1.00  0.00     0.079 A 
HETATM    2  C   UNL     1     -40.325 -55.574  17.065  1.00  0.00     0.035 A 
HETATM    3  C   UNL     1     -39.032 -56.065  16.987  1.00  0.00     0.019 A 
HETATM    4  C   UNL     1     -38.268 -55.691  15.900  1.00  0.00     0.090 A 
HETATM    5  N   UNL     1     -38.701 -54.863  14.922  1.00  0.00    -0.351 N 
ATOM      6  HN  UNL     1     -38.088 -54.617  14.144  1.00  0.00     0.166 HD
HETATM    7  C   UNL     1     -39.961 -54.362  14.989  1.00  0.00     0.130 A 
ENDROOT
BRANCH   1   8
HETATM    8  N   UNL     1     -42.095 -54.137  16.222  1.00  0.00    -0.322 N 
HETATM    9  C   UNL     1     -43.234 -54.782  15.771  1.00  0.00     0.245 C 
HETATM   10  O   UNL     1     -43.268 -55.885  15.232  1.00  0.00    -0.271 OA
HETATM   11  H   UNL     1     -42.117 -53.129  16.282  1.00  0.00     0.169 HD
BRANCH   9  12
HETATM   12  C   UNL     1     -44.505 -53.944  15.914  1.00  0.00     0.270 C 
BRANCH  12  13
HETATM   13  O   UNL     1     -45.696 -54.613  15.523  1.00  0.00    -0.387 OA
HETATM   14  C   UNL     1     -46.581 -53.760  14.797  1.00  0.00     0.202 C 
ENDBRANCH  12  13
ENDBRANCH   9  12
ENDBRANCH   1   8
BRANCH   7  15
HETATM   15  N   UNL     1     -40.357 -53.454  14.009  1.00  0.00    -0.365 N 
HETATM   16  C   UNL     1     -39.432 -52.350  13.720  1.00  0.00     0.124 C 
HETATM   17  C   UNL     1     -40.278 -51.149  13.290  1.00  0.00     0.020 C 
HETATM   18  C   UNL     1     -41.261 -51.489  12.163  1.00  0.00     0.003 C 
HETATM   19  C   UNL     1     -42.017 -52.801  12.421  1.00  0.00     0.020 C 
HETATM   20  C   UNL     1     -41.042 -53.917  12.800  1.00  0.00     0.124 C 
ENDBRANCH   7  15
TORSDOF 4
ENDMDL
