MODEL 1
REMARK VINA RESULT:      -5.7      0.000      0.000
REMARK  4 active torsions:
REMARK  status: ('A' for Active; 'I' for Inactive)
REMARK    1  A    between atoms: C_2  and  C_3 
REMARK       I    between atoms: C_3  and  N_5 
REMARK    2  A    between atoms: N_5  and  C_6 
REMARK    3  A    between atoms: C_6  and  C_7 
REMARK    4  A    between atoms: C_10  and  N_14 
ROOT
HETATM    1  C   UNL     1     -44.866 -54.514  14.024  1.00  0.00    -0.025 A 
HETATM    2  C   UNL     1     -43.827 -54.959  14.833  1.00  0.00     0.014 A 
HETATM    3  C   UNL     1     -42.501 -54.696  14.467  1.00  0.00     0.049 A 
HETATM    4  C   UNL     1     -42.210 -53.999  13.293  1.00  0.00     0.103 A 
HETATM    5  N   UNL     1     -43.221 -53.603  12.488  1.00  0.00    -0.352 N 
ATOM      6  HN  UNL     1     -43.024 -53.118  11.613  1.00  0.00     0.166 HD
HETATM    7  C   UNL     1     -44.501 -53.859  12.858  1.00  0.00     0.098 A 
ENDROOT
BRANCH   1   8
HETATM    8  C   UNL     1     -46.303 -54.701  14.400  1.00  0.00     0.162 C 
BRANCH   8   9
HETATM    9  N   UNL     1     -47.020 -53.459  14.585  1.00  0.00    -0.357 N 
HETATM   10  C   UNL     1     -46.865 -52.761  15.766  1.00  0.00     0.217 C 
HETATM   11  O   UNL     1     -46.160 -53.166  16.684  1.00  0.00    -0.274 OA
HETATM   12  H   UNL     1     -47.551 -53.063  13.820  1.00  0.00     0.162 HD
BRANCH  10  13
HETATM   13  C   UNL     1     -47.650 -51.467  15.823  1.00  0.00     0.098 C 
HETATM   14  C   UNL     1     -48.009 -51.083  17.251  1.00  0.00     0.014 C 
ENDBRANCH  10  13
ENDBRANCH   8   9
ENDBRANCH   1   8
BRANCH   4  15
HETATM   15  N   UNL     1     -40.908 -53.754  12.903  1.00  0.00    -0.363 N 
HETATM   16  C   UNL     1     -39.749 -54.279  13.637  1.00  0.00     0.150 C 
HETATM   17  C   UNL     1     -38.961 -53.141  14.313  1.00  0.00     0.187 C 
HETATM   18  O   UNL     1     -38.609 -52.107  13.383  1.00  0.00    -0.388 OA
HETATM   19  C   UNL     1     -39.800 -51.536  12.815  1.00  0.00     0.187 C 
HETATM   20  C   UNL     1     -40.615 -52.590  12.051  1.00  0.00     0.150 C 
ENDBRANCH   4  15
TORSDOF 4
ENDMDL
MODEL 2
REMARK VINA RESULT:      -5.7      4.782      6.287
REMARK  4 active torsions:
REMARK  status: ('A' for Active; 'I' for Inactive)
REMARK    1  A    between atoms: C_2  and  C_3 
REMARK       I    between atoms: C_3  and  N_5 
REMARK    2  A    between atoms: N_5  and  C_6 
REMARK    3  A    between atoms: C_6  and  C_7 
REMARK    4  A    between atoms: C_10  and  N_14 
ROOT
HETATM    1  C   UNL     1     -42.255 -48.328  11.221  1.00  0.00    -0.025 A 
HETATM    2  C   UNL     1     -42.791 -49.034  12.293  1.00  0.00     0.014 A 
HETATM    3  C   UNL     1     -42.186 -50.225  12.711  1.00  0.00     0.049 A 
HETATM    4  C   UNL     1     -41.055 -50.719  12.058  1.00  0.00     0.103 A 
HETATM    5  N   UNL     1     -40.562 -50.052  10.991  1.00  0.00    -0.352 N 
ATOM      6  HN  UNL     1     -39.753 -50.415  10.485  1.00  0.00     0.166 HD
HETATM    7  C   UNL     1     -41.154 -48.896  10.600  1.00  0.00     0.098 A 
ENDROOT
BRANCH   1   8
HETATM    8  C   UNL     1     -42.814 -47.012  10.776  1.00  0.00     0.162 C 
BRANCH   8   9
HETATM    9  N   UNL     1     -44.237 -47.043  10.521  1.00  0.00    -0.357 N 
HETATM   10  C   UNL     1     -44.685 -47.254   9.232  1.00  0.00     0.217 C 
HETATM   11  O   UNL     1     -43.923 -47.391   8.282  1.00  0.00    -0.274 OA
HETATM   12  H   UNL     1     -44.889 -47.006  11.293  1.00  0.00     0.162 HD
BRANCH  10  13
HETATM   13  C   UNL     1     -46.194 -47.288   9.104  1.00  0.00     0.098 C 
HETATM   14  C   UNL     1     -46.696 -48.655   8.663  1.00  0.00     0.014 C 
ENDBRANCH  10  13
ENDBRANCH   8   9
ENDBRANCH   1   8
BRANCH   4  15
HETATM   15  N   UNL     1     -40.463 -51.906  12.438  1.00  0.00    -0.363 N 
HETATM   16  C   UNL     1     -41.076 -53.217  12.181  1.00  0.00     0.150 C 
HETATM   17  C   UNL     1     -41.514 -53.890  13.494  1.00  0.00     0.187 C 
HETATM   18  O   UNL     1     -40.444 -53.955  14.447  1.00  0.00    -0.388 OA
HETATM   19  C   UNL     1     -39.996 -52.626  14.766  1.00  0.00     0.187 C 
HETATM   20  C   UNL     1     -39.465 -51.902  13.521  1.00  0.00     0.150 C 
ENDBRANCH   4  15
TORSDOF 4
ENDMDL
MODEL 3
REMARK VINA RESULT:      -5.5      1.935      7.054
REMARK  4 active torsions:
REMARK  status: ('A' for Active; 'I' for Inactive)
REMARK    1  A    between atoms: C_2  and  C_3 
REMARK       I    between atoms: C_3  and  N_5 
REMARK    2  A    between atoms: N_5  and  C_6 
REMARK    3  A    between atoms: C_6  and  C_7 
REMARK    4  A    between atoms: C_10  and  N_14 
ROOT
HETATM    1  C   UNL     1     -40.726 -52.940  13.342  1.00  0.00    -0.025 A 
HETATM    2  C   UNL     1     -41.287 -53.940  14.129  1.00  0.00     0.014 A 
HETATM    3  C   UNL     1     -42.655 -54.219  14.025  1.00  0.00     0.049 A 
HETATM    4  C   UNL     1     -43.466 -53.499  13.146  1.00  0.00     0.103 A 
HETATM    5  N   UNL     1     -42.925 -52.501  12.412  1.00  0.00    -0.352 N 
ATOM      6  HN  UNL     1     -43.509 -51.946  11.786  1.00  0.00     0.166 HD
HETATM    7  C   UNL     1     -41.597 -52.245  12.518  1.00  0.00     0.098 A 
ENDROOT
BRANCH   1   8
HETATM    8  C   UNL     1     -39.258 -52.647  13.356  1.00  0.00     0.162 C 
BRANCH   8   9
HETATM    9  N   UNL     1     -38.944 -51.254  13.126  1.00  0.00    -0.357 N 
HETATM   10  C   UNL     1     -37.736 -50.923  12.545  1.00  0.00     0.217 C 
HETATM   11  O   UNL     1     -36.900 -51.765  12.235  1.00  0.00    -0.274 OA
HETATM   12  H   UNL     1     -39.640 -50.543  13.304  1.00  0.00     0.162 HD
BRANCH  10  13
HETATM   13  C   UNL     1     -37.540 -49.435  12.338  1.00  0.00     0.098 C 
HETATM   14  C   UNL     1     -37.925 -48.635  13.573  1.00  0.00     0.014 C 
ENDBRANCH  10  13
ENDBRANCH   8   9
ENDBRANCH   1   8
BRANCH   4  15
HETATM   15  N   UNL     1     -44.821 -53.741  13.051  1.00  0.00    -0.363 N 
HETATM   16  C   UNL     1     -45.791 -52.694  12.705  1.00  0.00     0.150 C 
HETATM   17  C   UNL     1     -46.702 -52.365  13.902  1.00  0.00     0.187 C 
HETATM   18  O   UNL     1     -47.322 -53.540  14.443  1.00  0.00    -0.388 OA
HETATM   19  C   UNL     1     -46.312 -54.456  14.901  1.00  0.00     0.187 C 
HETATM   20  C   UNL     1     -45.399 -54.901  13.749  1.00  0.00     0.150 C 
ENDBRANCH   4  15
TORSDOF 4
ENDMDL
MODEL 4
REMARK VINA RESULT:      -5.5      4.512      5.431
REMARK  4 active torsions:
REMARK  status: ('A' for Active; 'I' for Inactive)
REMARK    1  A    between atoms: C_2  and  C_3 
REMARK       I    between atoms: C_3  and  N_5 
REMARK    2  A    between atoms: N_5  and  C_6 
REMARK    3  A    between atoms: C_6  and  C_7 
REMARK    4  A    between atoms: C_10  and  N_14 
ROOT
HETATM    1  C   UNL     1     -42.744 -51.122  13.150  1.00  0.00    -0.025 A 
HETATM    2  C   UNL     1     -43.358 -49.884  13.305  1.00  0.00     0.014 A 
HETATM    3  C   UNL     1     -43.022 -48.830  12.447  1.00  0.00     0.049 A 
HETATM    4  C   UNL     1     -42.069 -49.005  11.442  1.00  0.00     0.103 A 
HETATM    5  N   UNL     1     -41.444 -50.197  11.320  1.00  0.00    -0.352 N 
ATOM      6  HN  UNL     1     -40.725 -50.332  10.609  1.00  0.00     0.166 HD
HETATM    7  C   UNL     1     -41.784 -51.212  12.154  1.00  0.00     0.098 A 
ENDROOT
BRANCH   1   8
HETATM    8  C   UNL     1     -43.115 -52.305  13.989  1.00  0.00     0.162 C 
BRANCH   8   9
HETATM    9  N   UNL     1     -44.474 -52.264  14.479  1.00  0.00    -0.357 N 
HETATM   10  C   UNL     1     -45.463 -52.924  13.778  1.00  0.00     0.217 C 
HETATM   11  O   UNL     1     -45.242 -53.529  12.734  1.00  0.00    -0.274 OA
HETATM   12  H   UNL     1     -44.677 -51.836  15.373  1.00  0.00     0.162 HD
BRANCH  10  13
HETATM   13  C   UNL     1     -46.837 -52.824  14.409  1.00  0.00     0.098 C 
HETATM   14  C   UNL     1     -47.009 -51.530  15.191  1.00  0.00     0.014 C 
ENDBRANCH  10  13
ENDBRANCH   8   9
ENDBRANCH   1   8
BRANCH   4  15
HETATM   15  N   UNL     1     -41.704 -47.969  10.604  1.00  0.00    -0.363 N 
HETATM   16  C   UNL     1     -40.720 -46.948  10.989  1.00  0.00     0.150 C 
HETATM   17  C   UNL     1     -41.388 -45.571  11.159  1.00  0.00     0.187 C 
HETATM   18  O   UNL     1     -42.153 -45.200  10.003  1.00  0.00    -0.388 OA
HETATM   19  C   UNL     1     -43.194 -46.166   9.777  1.00  0.00     0.187 C 
HETATM   20  C   UNL     1     -42.612 -47.563   9.519  1.00  0.00     0.150 C 
ENDBRANCH   4  15
TORSDOF 4
ENDMDL
MODEL 5
REMARK VINA RESULT:      -5.5      5.717      7.171
REMARK  4 active torsions:
REMARK  status: ('A' for Active; 'I' for Inactive)
REMARK    1  A    between atoms: C_2  and  C_3 
REMARK       I    between atoms: C_3  and  N_5 
REMARK    2  A    between atoms: N_5  and  C_6 
REMARK    3  A    between atoms: C_6  and  C_7 
REMARK    4  A    between atoms: C_10  and  N_14 
ROOT
HETATM    1  C   UNL     1     -41.999 -46.986  10.624  1.00  0.00    -0.025 A 
HETATM    2  C   UNL     1     -42.550 -48.015  11.380  1.00  0.00     0.014 A 
HETATM    3  C   UNL     1     -41.725 -48.791  12.202  1.00  0.00     0.049 A 
HETATM    4  C   UNL     1     -40.351 -48.551  12.265  1.00  0.00     0.103 A 
HETATM    5  N   UNL     1     -39.812 -47.577  11.497  1.00  0.00    -0.352 N 
ATOM      6  HN  UNL     1     -38.806 -47.408  11.510  1.00  0.00     0.166 HD
HETATM    7  C   UNL     1     -40.624 -46.828  10.710  1.00  0.00     0.098 A 
ENDROOT
BRANCH   1   8
HETATM    8  C   UNL     1     -42.840 -46.077   9.784  1.00  0.00     0.162 C 
BRANCH   8   9
HETATM    9  N   UNL     1     -44.254 -46.373   9.847  1.00  0.00    -0.357 N 
HETATM   10  C   UNL     1     -44.811 -47.202   8.894  1.00  0.00     0.217 C 
HETATM   11  O   UNL     1     -44.159 -47.681   7.973  1.00  0.00    -0.274 OA
HETATM   12  H   UNL     1     -44.803 -46.053  10.633  1.00  0.00     0.162 HD
BRANCH  10  13
HETATM   13  C   UNL     1     -46.293 -47.452   9.086  1.00  0.00     0.098 C 
HETATM   14  C   UNL     1     -46.705 -48.831   8.594  1.00  0.00     0.014 C 
ENDBRANCH  10  13
ENDBRANCH   8   9
ENDBRANCH   1   8
BRANCH   4  15
HETATM   15  N   UNL     1     -39.518 -49.324  13.048  1.00  0.00    -0.363 N 
HETATM   16  C   UNL     1     -38.060 -49.349  12.869  1.00  0.00     0.150 C 
HETATM   17  C   UNL     1     -37.590 -50.719  12.345  1.00  0.00     0.187 C 
HETATM   18  O   UNL     1     -38.069 -51.798  13.161  1.00  0.00    -0.388 OA
HETATM   19  C   UNL     1     -39.507 -51.802  13.167  1.00  0.00     0.187 C 
HETATM   20  C   UNL     1     -40.066 -50.496  13.750  1.00  0.00     0.150 C 
ENDBRANCH   4  15
TORSDOF 4
ENDMDL
MODEL 6
REMARK VINA RESULT:      -5.5      5.211      6.726
REMARK  4 active torsions:
REMARK  status: ('A' for Active; 'I' for Inactive)
REMARK    1  A    between atoms: C_2  and  C_3 
REMARK       I    between atoms: C_3  and  N_5 
REMARK    2  A    between atoms: N_5  and  C_6 
REMARK    3  A    between atoms: C_6  and  C_7 
REMARK    4  A    between atoms: C_10  and  N_14 
ROOT
HETATM    1  C   UNL     1     -41.995 -50.255  12.554  1.00  0.00    -0.025 A 
HETATM    2  C   UNL     1     -43.001 -49.310  12.717  1.00  0.00     0.014 A 
HETATM    3  C   UNL     1     -43.107 -48.245  11.815  1.00  0.00     0.049 A 
HETATM    4  C   UNL     1     -42.205 -48.114  10.757  1.00  0.00     0.103 A 
HETATM    5  N   UNL     1     -41.203 -49.011  10.625  1.00  0.00    -0.352 N 
ATOM      6  HN  UNL     1     -40.519 -48.914   9.874  1.00  0.00     0.166 HD
HETATM    7  C   UNL     1     -41.116 -50.043  11.503  1.00  0.00     0.098 A 
ENDROOT
BRANCH   1   8
HETATM    8  C   UNL     1     -41.877 -51.455  13.442  1.00  0.00     0.162 C 
BRANCH   8   9
HETATM    9  N   UNL     1     -42.554 -52.624  12.928  1.00  0.00    -0.357 N 
HETATM   10  C   UNL     1     -43.811 -52.939  13.405  1.00  0.00     0.217 C 
HETATM   11  O   UNL     1     -44.373 -52.278  14.272  1.00  0.00    -0.274 OA
HETATM   12  H   UNL     1     -42.149 -53.147  12.163  1.00  0.00     0.162 HD
BRANCH  10  13
HETATM   13  C   UNL     1     -44.419 -54.171  12.769  1.00  0.00     0.098 C 
HETATM   14  C   UNL     1     -45.231 -54.984  13.767  1.00  0.00     0.014 C 
ENDBRANCH  10  13
ENDBRANCH   8   9
ENDBRANCH   1   8
BRANCH   4  15
HETATM   15  N   UNL     1     -42.277 -47.055   9.874  1.00  0.00    -0.363 N 
HETATM   16  C   UNL     1     -41.779 -45.713  10.205  1.00  0.00     0.150 C 
HETATM   17  C   UNL     1     -42.939 -44.707  10.327  1.00  0.00     0.187 C 
HETATM   18  O   UNL     1     -43.782 -44.717   9.166  1.00  0.00    -0.388 OA
HETATM   19  C   UNL     1     -44.355 -46.025   8.992  1.00  0.00     0.187 C 
HETATM   20  C   UNL     1     -43.266 -47.088   8.784  1.00  0.00     0.150 C 
ENDBRANCH   4  15
TORSDOF 4
ENDMDL
MODEL 7
REMARK VINA RESULT:      -5.4      4.283      6.748
REMARK  4 active torsions:
REMARK  status: ('A' for Active; 'I' for Inactive)
REMARK    1  A    between atoms: C_2  and  C_3 
REMARK       I    between atoms: C_3  and  N_5 
REMARK    2  A    between atoms: N_5  and  C_6 
REMARK    3  A    between atoms: C_6  and  C_7 
REMARK    4  A    between atoms: C_10  and  N_14 
ROOT
HETATM    1  C   UNL     1     -42.020 -49.597  11.894  1.00  0.00    -0.025 A 
HETATM    2  C   UNL     1     -43.149 -49.280  12.640  1.00  0.00     0.014 A 
HETATM    3  C   UNL     1     -43.719 -50.244  13.481  1.00  0.00     0.049 A 
HETATM    4  C   UNL     1     -43.171 -51.525  13.571  1.00  0.00     0.103 A 
HETATM    5  N   UNL     1     -42.097 -51.842  12.814  1.00  0.00    -0.352 N 
ATOM      6  HN  UNL     1     -41.702 -52.782  12.847  1.00  0.00     0.166 HD
HETATM    7  C   UNL     1     -41.551 -50.896  12.008  1.00  0.00     0.098 A 
ENDROOT
BRANCH   1   8
HETATM    8  C   UNL     1     -41.324 -48.586  11.035  1.00  0.00     0.162 C 
BRANCH   8   9
HETATM    9  N   UNL     1     -42.069 -48.221   9.852  1.00  0.00    -0.357 N 
HETATM   10  C   UNL     1     -42.730 -47.009   9.820  1.00  0.00     0.217 C 
HETATM   11  O   UNL     1     -42.732 -46.233  10.769  1.00  0.00    -0.274 OA
HETATM   12  H   UNL     1     -42.027 -48.805   9.027  1.00  0.00     0.162 HD
BRANCH  10  13
HETATM   13  C   UNL     1     -43.451 -46.736   8.516  1.00  0.00     0.098 C 
HETATM   14  C   UNL     1     -43.459 -47.954   7.605  1.00  0.00     0.014 C 
ENDBRANCH  10  13
ENDBRANCH   8   9
ENDBRANCH   1   8
BRANCH   4  15
HETATM   15  N   UNL     1     -43.735 -52.496  14.373  1.00  0.00    -0.363 N 
HETATM   16  C   UNL     1     -42.937 -53.355  15.259  1.00  0.00     0.150 C 
HETATM   17  C   UNL     1     -42.951 -54.816  14.775  1.00  0.00     0.187 C 
HETATM   18  O   UNL     1     -44.287 -55.304  14.583  1.00  0.00    -0.388 OA
HETATM   19  C   UNL     1     -44.958 -54.509  13.591  1.00  0.00     0.187 C 
HETATM   20  C   UNL     1     -45.059 -53.040  14.028  1.00  0.00     0.150 C 
ENDBRANCH   4  15
TORSDOF 4
ENDMDL
MODEL 8
REMARK VINA RESULT:      -5.4      2.624      7.118
REMARK  4 active torsions:
REMARK  status: ('A' for Active; 'I' for Inactive)
REMARK    1  A    between atoms: C_2  and  C_3 
REMARK       I    between atoms: C_3  and  N_5 
REMARK    2  A    between atoms: N_5  and  C_6 
REMARK    3  A    between atoms: C_6  and  C_7 
REMARK    4  A    between atoms: C_10  and  N_14 
ROOT
HETATM    1  C   UNL     1     -42.080 -50.377  12.238  1.00  0.00    -0.025 A 
HETATM    2  C   UNL     1     -43.070 -49.949  13.115  1.00  0.00     0.014 A 
HETATM    3  C   UNL     1     -43.732 -50.881  13.922  1.00  0.00     0.049 A 
HETATM    4  C   UNL     1     -43.416 -52.239  13.851  1.00  0.00     0.103 A 
HETATM    5  N   UNL     1     -42.482 -52.657  12.968  1.00  0.00    -0.352 N 
ATOM      6  HN  UNL     1     -42.259 -53.649  12.884  1.00  0.00     0.166 HD
HETATM    7  C   UNL     1     -41.843 -51.742  12.196  1.00  0.00     0.098 A 
ENDROOT
BRANCH   1   8
HETATM    8  C   UNL     1     -41.287 -49.419  11.404  1.00  0.00     0.162 C 
BRANCH   8   9
HETATM    9  N   UNL     1     -39.947 -49.875  11.114  1.00  0.00    -0.357 N 
HETATM   10  C   UNL     1     -38.879 -49.280  11.756  1.00  0.00     0.217 C 
HETATM   11  O   UNL     1     -39.018 -48.356  12.550  1.00  0.00    -0.274 OA
HETATM   12  H   UNL     1     -39.804 -50.682  10.521  1.00  0.00     0.162 HD
BRANCH  10  13
HETATM   13  C   UNL     1     -37.533 -49.866  11.383  1.00  0.00     0.098 C 
HETATM   14  C   UNL     1     -37.155 -51.036  12.278  1.00  0.00     0.014 C 
ENDBRANCH  10  13
ENDBRANCH   8   9
ENDBRANCH   1   8
BRANCH   4  15
HETATM   15  N   UNL     1     -44.078 -53.176  14.620  1.00  0.00    -0.363 N 
HETATM   16  C   UNL     1     -43.994 -54.619  14.356  1.00  0.00     0.150 C 
HETATM   17  C   UNL     1     -45.346 -55.172  13.870  1.00  0.00     0.187 C 
HETATM   18  O   UNL     1     -46.417 -54.831  14.763  1.00  0.00    -0.388 OA
HETATM   19  C   UNL     1     -46.537 -53.401  14.854  1.00  0.00     0.187 C 
HETATM   20  C   UNL     1     -45.253 -52.767  15.407  1.00  0.00     0.150 C 
ENDBRANCH   4  15
TORSDOF 4
ENDMDL
MODEL 9
REMARK VINA RESULT:      -5.3      1.944      2.676
REMARK  4 active torsions:
REMARK  status: ('A' for Active; 'I' for Inactive)
REMARK    1  A    between atoms: C_2  and  C_3 
REMARK       I    between atoms: C_3  and  N_5 
REMARK    2  A    between atoms: N_5  and  C_6 
REMARK    3  A    between atoms: C_6  and  C_7 
REMARK    4  A    between atoms: C_10  and  N_14 
ROOT
HETATM    1  C   UNL     1     -42.775 -53.583  13.044  1.00  0.00    -0.025 A 
HETATM    2  C   UNL     1     -41.554 -54.060  13.508  1.00  0.00     0.014 A 
HETATM    3  C   UNL     1     -40.400 -53.283  13.349  1.00  0.00     0.049 A 
HETATM    4  C   UNL     1     -40.459 -52.037  12.722  1.00  0.00     0.103 A 
HETATM    5  N   UNL     1     -41.640 -51.595  12.236  1.00  0.00    -0.352 N 
ATOM      6  HN  UNL     1     -41.695 -50.699  11.751  1.00  0.00     0.166 HD
HETATM    7  C   UNL     1     -42.752 -52.355  12.403  1.00  0.00     0.098 A 
ENDROOT
BRANCH   1   8
HETATM    8  C   UNL     1     -44.053 -54.335  13.251  1.00  0.00     0.162 C 
BRANCH   8   9
HETATM    9  N   UNL     1     -45.176 -53.487  13.582  1.00  0.00    -0.357 N 
HETATM   10  C   UNL     1     -45.889 -53.736  14.738  1.00  0.00     0.217 C 
HETATM   11  O   UNL     1     -45.625 -54.668  15.490  1.00  0.00    -0.274 OA
HETATM   12  H   UNL     1     -45.375 -52.669  13.022  1.00  0.00     0.162 HD
BRANCH  10  13
HETATM   13  C   UNL     1     -47.024 -52.762  14.982  1.00  0.00     0.098 C 
HETATM   14  C   UNL     1     -46.719 -51.382  14.421  1.00  0.00     0.014 C 
ENDBRANCH  10  13
ENDBRANCH   8   9
ENDBRANCH   1   8
BRANCH   4  15
HETATM   15  N   UNL     1     -39.327 -51.270  12.532  1.00  0.00    -0.363 N 
HETATM   16  C   UNL     1     -38.167 -51.334  13.431  1.00  0.00     0.150 C 
HETATM   17  C   UNL     1     -38.005 -50.022  14.221  1.00  0.00     0.187 C 
HETATM   18  O   UNL     1     -37.977 -48.876  13.357  1.00  0.00    -0.388 OA
HETATM   19  C   UNL     1     -39.209 -48.793  12.619  1.00  0.00     0.187 C 
HETATM   20  C   UNL     1     -39.416 -50.033  11.738  1.00  0.00     0.150 C 
ENDBRANCH   4  15
TORSDOF 4
ENDMDL
