MODEL 1
REMARK VINA RESULT:      -6.0      0.000      0.000
REMARK  3 active torsions:
REMARK  status: ('A' for Active; 'I' for Inactive)
REMARK    1  A    between atoms: N_6  and  C_7 
REMARK    2  A    between atoms: C_7  and  C_8 
REMARK    3  A    between atoms: C_8  and  O_9 
ROOT
HETATM    1  C   UNL     1     -40.438 -52.027  12.222  1.00  0.00     0.069 C 
HETATM    2  C   UNL     1     -41.583 -52.926  12.597  1.00  0.00     0.017 A 
HETATM    3  N   UNL     1     -42.728 -52.731  11.854  1.00  0.00    -0.355 N 
ATOM      4  HN  UNL     1     -42.737 -52.103  11.050  1.00  0.00     0.166 HD
HETATM    5  C   UNL     1     -43.786 -53.373  12.217  1.00  0.00     0.186 A 
HETATM    6  N   UNL     1     -43.861 -54.193  13.305  1.00  0.00    -0.307 N 
HETATM    7  C   UNL     1     -42.732 -54.496  14.033  1.00  0.00     0.256 A 
HETATM    8  O   UNL     1     -42.738 -55.237  15.013  1.00  0.00    -0.267 OA
HETATM    9  C   UNL     1     -41.487 -53.816  13.599  1.00  0.00     0.028 A 
HETATM   10  C   UNL     1     -40.229 -54.159  14.329  1.00  0.00     0.056 C 
ENDROOT
BRANCH   6  11
HETATM   11  C   UNL     1     -45.145 -54.699  13.764  1.00  0.00     0.170 C 
BRANCH  11  12
HETATM   12  C   UNL     1     -46.027 -53.626  14.456  1.00  0.00     0.074 C 
HETATM   13  C   UNL     1     -45.632 -53.578  15.942  1.00  0.00     0.039 C 
HETATM   14  C   UNL     1     -46.556 -52.687  16.764  1.00  0.00     0.003 C 
HETATM   15  C   UNL     1     -46.706 -51.285  16.177  1.00  0.00     0.000 C 
HETATM   16  C   UNL     1     -46.929 -51.273  14.664  1.00  0.00     0.003 C 
HETATM   17  C   UNL     1     -45.942 -52.184  13.912  1.00  0.00     0.039 C 
BRANCH  12  18
HETATM   18  O   UNL     1     -47.391 -54.071  14.351  1.00  0.00    -0.388 OA
HETATM   19  H   UNL     1     -47.395 -55.042  14.443  1.00  0.00     0.210 HD
ENDBRANCH  12  18
ENDBRANCH  11  12
ENDBRANCH   6  11
TORSDOF 3
ENDMDL
MODEL 2
REMARK VINA RESULT:      -5.9      1.972      5.573
REMARK  3 active torsions:
REMARK  status: ('A' for Active; 'I' for Inactive)
REMARK    1  A    between atoms: N_6  and  C_7 
REMARK    2  A    between atoms: C_7  and  C_8 
REMARK    3  A    between atoms: C_8  and  O_9 
ROOT
HETATM    1  C   UNL     1     -46.889 -51.323  15.689  1.00  0.00     0.069 C 
HETATM    2  C   UNL     1     -45.723 -51.801  14.868  1.00  0.00     0.017 A 
HETATM    3  N   UNL     1     -44.714 -50.875  14.717  1.00  0.00    -0.355 N 
ATOM      4  HN  UNL     1     -44.728 -49.988  15.221  1.00  0.00     0.166 HD
HETATM    5  C   UNL     1     -43.751 -51.173  13.912  1.00  0.00     0.186 A 
HETATM    6  N   UNL     1     -43.687 -52.318  13.171  1.00  0.00    -0.307 N 
HETATM    7  C   UNL     1     -44.617 -53.318  13.343  1.00  0.00     0.256 A 
HETATM    8  O   UNL     1     -44.600 -54.373  12.715  1.00  0.00    -0.267 OA
HETATM    9  C   UNL     1     -45.704 -53.024  14.310  1.00  0.00     0.028 A 
HETATM   10  C   UNL     1     -46.703 -54.105  14.568  1.00  0.00     0.056 C 
ENDROOT
BRANCH   6  11
HETATM   11  C   UNL     1     -42.682 -52.470  12.130  1.00  0.00     0.170 C 
BRANCH  11  12
HETATM   12  C   UNL     1     -41.298 -52.927  12.662  1.00  0.00     0.074 C 
HETATM   13  C   UNL     1     -40.585 -51.693  13.243  1.00  0.00     0.039 C 
HETATM   14  C   UNL     1     -39.140 -51.983  13.633  1.00  0.00     0.003 C 
HETATM   15  C   UNL     1     -39.004 -53.195  14.552  1.00  0.00     0.000 C 
HETATM   16  C   UNL     1     -39.835 -54.399  14.109  1.00  0.00     0.003 C 
HETATM   17  C   UNL     1     -41.284 -54.020  13.752  1.00  0.00     0.039 C 
BRANCH  12  18
HETATM   18  O   UNL     1     -40.549 -53.406  11.531  1.00  0.00    -0.388 OA
HETATM   19  H   UNL     1     -39.734 -53.824  11.869  1.00  0.00     0.210 HD
ENDBRANCH  12  18
ENDBRANCH  11  12
ENDBRANCH   6  11
TORSDOF 3
ENDMDL
MODEL 3
REMARK VINA RESULT:      -5.8      1.765      2.502
REMARK  3 active torsions:
REMARK  status: ('A' for Active; 'I' for Inactive)
REMARK    1  A    between atoms: N_6  and  C_7 
REMARK    2  A    between atoms: C_7  and  C_8 
REMARK    3  A    between atoms: C_8  and  O_9 
ROOT
HETATM    1  C   UNL     1     -39.047 -53.927  15.308  1.00  0.00     0.069 C 
HETATM    2  C   UNL     1     -40.367 -53.704  14.625  1.00  0.00     0.017 A 
HETATM    3  N   UNL     1     -41.367 -54.566  15.022  1.00  0.00    -0.355 N 
ATOM      4  HN  UNL     1     -41.230 -55.217  15.796  1.00  0.00     0.166 HD
HETATM    5  C   UNL     1     -42.483 -54.517  14.376  1.00  0.00     0.186 A 
HETATM    6  N   UNL     1     -42.724 -53.706  13.305  1.00  0.00    -0.307 N 
HETATM    7  C   UNL     1     -41.798 -52.764  12.916  1.00  0.00     0.256 A 
HETATM    8  O   UNL     1     -41.966 -52.000  11.970  1.00  0.00    -0.267 OA
HETATM    9  C   UNL     1     -40.527 -52.759  13.684  1.00  0.00     0.028 A 
HETATM   10  C   UNL     1     -39.518 -51.715  13.330  1.00  0.00     0.056 C 
ENDROOT
BRANCH   6  11
HETATM   11  C   UNL     1     -43.927 -53.875  12.504  1.00  0.00     0.170 C 
BRANCH  11  12
HETATM   12  C   UNL     1     -45.186 -53.213  13.124  1.00  0.00     0.074 C 
HETATM   13  C   UNL     1     -45.714 -54.146  14.229  1.00  0.00     0.039 C 
HETATM   14  C   UNL     1     -47.056 -53.687  14.788  1.00  0.00     0.003 C 
HETATM   15  C   UNL     1     -47.043 -52.230  15.244  1.00  0.00     0.000 C 
HETATM   16  C   UNL     1     -46.369 -51.282  14.250  1.00  0.00     0.003 C 
HETATM   17  C   UNL     1     -45.013 -51.813  13.751  1.00  0.00     0.039 C 
BRANCH  12  18
HETATM   18  O   UNL     1     -46.172 -53.124  12.081  1.00  0.00    -0.388 OA
HETATM   19  H   UNL     1     -46.158 -52.212  11.735  1.00  0.00     0.210 HD
ENDBRANCH  12  18
ENDBRANCH  11  12
ENDBRANCH   6  11
TORSDOF 3
ENDMDL
MODEL 4
REMARK VINA RESULT:      -5.8      1.680      5.161
REMARK  3 active torsions:
REMARK  status: ('A' for Active; 'I' for Inactive)
REMARK    1  A    between atoms: N_6  and  C_7 
REMARK    2  A    between atoms: C_7  and  C_8 
REMARK    3  A    between atoms: C_8  and  O_9 
ROOT
HETATM    1  C   UNL     1     -46.904 -51.551  11.961  1.00  0.00     0.069 C 
HETATM    2  C   UNL     1     -45.872 -52.252  12.799  1.00  0.00     0.017 A 
HETATM    3  N   UNL     1     -44.906 -52.919  12.076  1.00  0.00    -0.355 N 
ATOM      4  HN  UNL     1     -44.852 -52.835  11.061  1.00  0.00     0.166 HD
HETATM    5  C   UNL     1     -44.073 -53.653  12.734  1.00  0.00     0.186 A 
HETATM    6  N   UNL     1     -44.111 -53.848  14.084  1.00  0.00    -0.307 N 
HETATM    7  C   UNL     1     -44.995 -53.143  14.870  1.00  0.00     0.256 A 
HETATM    8  O   UNL     1     -45.064 -53.268  16.090  1.00  0.00    -0.267 OA
HETATM    9  C   UNL     1     -45.926 -52.245  14.142  1.00  0.00     0.028 A 
HETATM   10  C   UNL     1     -46.864 -51.421  14.963  1.00  0.00     0.056 C 
ENDROOT
BRANCH   6  11
HETATM   11  C   UNL     1     -43.274 -54.860  14.709  1.00  0.00     0.170 C 
BRANCH  11  12
HETATM   12  C   UNL     1     -41.823 -54.386  14.985  1.00  0.00     0.074 C 
HETATM   13  C   UNL     1     -41.201 -55.345  16.017  1.00  0.00     0.039 C 
HETATM   14  C   UNL     1     -39.835 -54.873  16.503  1.00  0.00     0.003 C 
HETATM   15  C   UNL     1     -38.868 -54.574  15.360  1.00  0.00     0.000 C 
HETATM   16  C   UNL     1     -39.493 -53.766  14.222  1.00  0.00     0.003 C 
HETATM   17  C   UNL     1     -40.859 -54.321  13.781  1.00  0.00     0.039 C 
BRANCH  12  18
HETATM   18  O   UNL     1     -41.912 -53.073  15.566  1.00  0.00    -0.388 OA
HETATM   19  H   UNL     1     -42.192 -53.177  16.495  1.00  0.00     0.210 HD
ENDBRANCH  12  18
ENDBRANCH  11  12
ENDBRANCH   6  11
TORSDOF 3
ENDMDL
MODEL 5
REMARK VINA RESULT:      -5.7      1.364      1.644
REMARK  3 active torsions:
REMARK  status: ('A' for Active; 'I' for Inactive)
REMARK    1  A    between atoms: N_6  and  C_7 
REMARK    2  A    between atoms: C_7  and  C_8 
REMARK    3  A    between atoms: C_8  and  O_9 
ROOT
HETATM    1  C   UNL     1     -39.388 -51.224  14.058  1.00  0.00     0.069 C 
HETATM    2  C   UNL     1     -40.500 -52.137  13.622  1.00  0.00     0.017 A 
HETATM    3  N   UNL     1     -41.162 -51.726  12.485  1.00  0.00    -0.355 N 
ATOM      4  HN  UNL     1     -40.835 -50.929  11.939  1.00  0.00     0.166 HD
HETATM    5  C   UNL     1     -42.212 -52.391  12.138  1.00  0.00     0.186 A 
HETATM    6  N   UNL     1     -42.734 -53.438  12.841  1.00  0.00    -0.307 N 
HETATM    7  C   UNL     1     -42.072 -53.949  13.934  1.00  0.00     0.256 A 
HETATM    8  O   UNL     1     -42.487 -54.897  14.595  1.00  0.00    -0.267 OA
HETATM    9  C   UNL     1     -40.826 -53.239  14.319  1.00  0.00     0.028 A 
HETATM   10  C   UNL     1     -40.048 -53.795  15.467  1.00  0.00     0.056 C 
ENDROOT
BRANCH   6  11
HETATM   11  C   UNL     1     -44.039 -53.983  12.497  1.00  0.00     0.170 C 
BRANCH  11  12
HETATM   12  C   UNL     1     -45.224 -53.220  13.146  1.00  0.00     0.074 C 
HETATM   13  C   UNL     1     -45.827 -54.126  14.235  1.00  0.00     0.039 C 
HETATM   14  C   UNL     1     -47.114 -53.555  14.821  1.00  0.00     0.003 C 
HETATM   15  C   UNL     1     -46.959 -52.117  15.309  1.00  0.00     0.000 C 
HETATM   16  C   UNL     1     -46.208 -51.214  14.330  1.00  0.00     0.003 C 
HETATM   17  C   UNL     1     -44.913 -51.858  13.802  1.00  0.00     0.039 C 
BRANCH  12  18
HETATM   18  O   UNL     1     -46.207 -53.014  12.116  1.00  0.00    -0.388 OA
HETATM   19  H   UNL     1     -45.829 -52.394  11.464  1.00  0.00     0.210 HD
ENDBRANCH  12  18
ENDBRANCH  11  12
ENDBRANCH   6  11
TORSDOF 3
ENDMDL
MODEL 6
REMARK VINA RESULT:      -5.5      2.080      2.922
REMARK  3 active torsions:
REMARK  status: ('A' for Active; 'I' for Inactive)
REMARK    1  A    between atoms: N_6  and  C_7 
REMARK    2  A    between atoms: C_7  and  C_8 
REMARK    3  A    between atoms: C_8  and  O_9 
ROOT
HETATM    1  C   UNL     1     -39.113 -53.898  16.535  1.00  0.00     0.069 C 
HETATM    2  C   UNL     1     -40.223 -54.095  15.541  1.00  0.00     0.017 A 
HETATM    3  N   UNL     1     -40.130 -53.302  14.417  1.00  0.00    -0.355 N 
ATOM      4  HN  UNL     1     -39.310 -52.721  14.245  1.00  0.00     0.166 HD
HETATM    5  C   UNL     1     -41.122 -53.324  13.593  1.00  0.00     0.186 A 
HETATM    6  N   UNL     1     -42.269 -54.041  13.778  1.00  0.00    -0.307 N 
HETATM    7  C   UNL     1     -42.385 -54.917  14.833  1.00  0.00     0.256 A 
HETATM    8  O   UNL     1     -43.387 -55.597  15.041  1.00  0.00    -0.267 OA
HETATM    9  C   UNL     1     -41.231 -54.956  15.766  1.00  0.00     0.028 A 
HETATM   10  C   UNL     1     -41.294 -55.933  16.894  1.00  0.00     0.056 C 
ENDROOT
BRANCH   6  11
HETATM   11  C   UNL     1     -43.418 -53.835  12.910  1.00  0.00     0.170 C 
BRANCH  11  12
HETATM   12  C   UNL     1     -44.322 -52.651  13.345  1.00  0.00     0.074 C 
HETATM   13  C   UNL     1     -45.746 -52.932  12.831  1.00  0.00     0.039 C 
HETATM   14  C   UNL     1     -46.685 -51.749  13.042  1.00  0.00     0.003 C 
HETATM   15  C   UNL     1     -46.698 -51.248  14.484  1.00  0.00     0.000 C 
HETATM   16  C   UNL     1     -45.304 -51.118  15.100  1.00  0.00     0.003 C 
HETATM   17  C   UNL     1     -44.429 -52.361  14.858  1.00  0.00     0.039 C 
BRANCH  12  18
HETATM   18  O   UNL     1     -43.816 -51.473  12.692  1.00  0.00    -0.388 OA
HETATM   19  H   UNL     1     -43.682 -50.789  13.375  1.00  0.00     0.210 HD
ENDBRANCH  12  18
ENDBRANCH  11  12
ENDBRANCH   6  11
TORSDOF 3
ENDMDL
MODEL 7
REMARK VINA RESULT:      -5.5      3.938      5.877
REMARK  3 active torsions:
REMARK  status: ('A' for Active; 'I' for Inactive)
REMARK    1  A    between atoms: N_6  and  C_7 
REMARK    2  A    between atoms: C_7  and  C_8 
REMARK    3  A    between atoms: C_8  and  O_9 
ROOT
HETATM    1  C   UNL     1     -43.005 -46.579   9.902  1.00  0.00     0.069 C 
HETATM    2  C   UNL     1     -42.203 -47.541  10.733  1.00  0.00     0.017 A 
HETATM    3  N   UNL     1     -41.474 -48.455  10.002  1.00  0.00    -0.355 N 
ATOM      4  HN  UNL     1     -41.411 -48.392   8.986  1.00  0.00     0.166 HD
HETATM    5  C   UNL     1     -40.874 -49.393  10.655  1.00  0.00     0.186 A 
HETATM    6  N   UNL     1     -40.949 -49.566  12.007  1.00  0.00    -0.307 N 
HETATM    7  C   UNL     1     -41.588 -48.638  12.799  1.00  0.00     0.256 A 
HETATM    8  O   UNL     1     -41.674 -48.735  14.020  1.00  0.00    -0.267 OA
HETATM    9  C   UNL     1     -42.236 -47.515  12.076  1.00  0.00     0.028 A 
HETATM   10  C   UNL     1     -42.893 -46.458  12.902  1.00  0.00     0.056 C 
ENDROOT
BRANCH   6  11
HETATM   11  C   UNL     1     -40.424 -50.772  12.629  1.00  0.00     0.170 C 
BRANCH  11  12
HETATM   12  C   UNL     1     -41.381 -51.990  12.531  1.00  0.00     0.074 C 
HETATM   13  C   UNL     1     -40.967 -53.002  13.614  1.00  0.00     0.039 C 
HETATM   14  C   UNL     1     -41.722 -54.322  13.498  1.00  0.00     0.003 C 
HETATM   15  C   UNL     1     -43.238 -54.138  13.451  1.00  0.00     0.000 C 
HETATM   16  C   UNL     1     -43.691 -53.019  12.513  1.00  0.00     0.003 C 
HETATM   17  C   UNL     1     -42.890 -51.719  12.709  1.00  0.00     0.039 C 
BRANCH  12  18
HETATM   18  O   UNL     1     -41.176 -52.584  11.237  1.00  0.00    -0.388 OA
HETATM   19  H   UNL     1     -40.262 -52.384  10.960  1.00  0.00     0.210 HD
ENDBRANCH  12  18
ENDBRANCH  11  12
ENDBRANCH   6  11
TORSDOF 3
ENDMDL
MODEL 8
REMARK VINA RESULT:      -5.3      1.979      5.700
REMARK  3 active torsions:
REMARK  status: ('A' for Active; 'I' for Inactive)
REMARK    1  A    between atoms: N_6  and  C_7 
REMARK    2  A    between atoms: C_7  and  C_8 
REMARK    3  A    between atoms: C_8  and  O_9 
ROOT
HETATM    1  C   UNL     1     -45.672 -53.904  16.739  1.00  0.00     0.069 C 
HETATM    2  C   UNL     1     -45.077 -53.509  15.417  1.00  0.00     0.017 A 
HETATM    3  N   UNL     1     -44.385 -54.516  14.779  1.00  0.00    -0.355 N 
ATOM      4  HN  UNL     1     -44.386 -55.470  15.139  1.00  0.00     0.166 HD
HETATM    5  C   UNL     1     -43.736 -54.203  13.708  1.00  0.00     0.186 A 
HETATM    6  N   UNL     1     -43.653 -52.942  13.192  1.00  0.00    -0.307 N 
HETATM    7  C   UNL     1     -44.391 -51.914  13.734  1.00  0.00     0.256 A 
HETATM    8  O   UNL     1     -44.366 -50.763  13.303  1.00  0.00    -0.267 OA
HETATM    9  C   UNL     1     -45.195 -52.261  14.932  1.00  0.00     0.028 A 
HETATM   10  C   UNL     1     -46.053 -51.187  15.516  1.00  0.00     0.056 C 
ENDROOT
BRANCH   6  11
HETATM   11  C   UNL     1     -42.724 -52.644  12.113  1.00  0.00     0.170 C 
BRANCH  11  12
HETATM   12  C   UNL     1     -41.239 -52.608  12.562  1.00  0.00     0.074 C 
HETATM   13  C   UNL     1     -40.735 -51.162  12.408  1.00  0.00     0.039 C 
HETATM   14  C   UNL     1     -39.234 -51.038  12.648  1.00  0.00     0.003 C 
HETATM   15  C   UNL     1     -38.791 -51.649  13.976  1.00  0.00     0.000 C 
HETATM   16  C   UNL     1     -39.407 -53.021  14.256  1.00  0.00     0.003 C 
HETATM   17  C   UNL     1     -40.925 -53.052  14.007  1.00  0.00     0.039 C 
BRANCH  12  18
HETATM   18  O   UNL     1     -40.506 -53.454  11.659  1.00  0.00    -0.388 OA
HETATM   19  H   UNL     1     -40.765 -53.213  10.749  1.00  0.00     0.210 HD
ENDBRANCH  12  18
ENDBRANCH  11  12
ENDBRANCH   6  11
TORSDOF 3
ENDMDL
MODEL 9
REMARK VINA RESULT:      -5.2      1.762      5.442
REMARK  3 active torsions:
REMARK  status: ('A' for Active; 'I' for Inactive)
REMARK    1  A    between atoms: N_6  and  C_7 
REMARK    2  A    between atoms: C_7  and  C_8 
REMARK    3  A    between atoms: C_8  and  O_9 
ROOT
HETATM    1  C   UNL     1     -47.424 -51.275  16.023  1.00  0.00     0.069 C 
HETATM    2  C   UNL     1     -46.535 -52.355  15.473  1.00  0.00     0.017 A 
HETATM    3  N   UNL     1     -46.033 -53.220  16.422  1.00  0.00    -0.355 N 
ATOM      4  HN  UNL     1     -46.344 -53.180  17.392  1.00  0.00     0.166 HD
HETATM    5  C   UNL     1     -45.156 -54.082  16.033  1.00  0.00     0.186 A 
HETATM    6  N   UNL     1     -44.661 -54.167  14.764  1.00  0.00    -0.307 N 
HETATM    7  C   UNL     1     -45.184 -53.391  13.754  1.00  0.00     0.256 A 
HETATM    8  O   UNL     1     -44.788 -53.434  12.593  1.00  0.00    -0.267 OA
HETATM    9  C   UNL     1     -46.239 -52.430  14.164  1.00  0.00     0.028 A 
HETATM   10  C   UNL     1     -46.871 -51.608  13.088  1.00  0.00     0.056 C 
ENDROOT
BRANCH   6  11
HETATM   11  C   UNL     1     -43.520 -55.020  14.470  1.00  0.00     0.170 C 
BRANCH  11  12
HETATM   12  C   UNL     1     -42.163 -54.268  14.476  1.00  0.00     0.074 C 
HETATM   13  C   UNL     1     -41.277 -54.904  15.563  1.00  0.00     0.039 C 
HETATM   14  C   UNL     1     -39.982 -54.130  15.786  1.00  0.00     0.003 C 
HETATM   15  C   UNL     1     -39.202 -53.890  14.495  1.00  0.00     0.000 C 
HETATM   16  C   UNL     1     -40.074 -53.420  13.330  1.00  0.00     0.003 C 
HETATM   17  C   UNL     1     -41.349 -54.266  13.164  1.00  0.00     0.039 C 
BRANCH  12  18
HETATM   18  O   UNL     1     -42.438 -52.904  14.841  1.00  0.00    -0.388 OA
HETATM   19  H   UNL     1     -42.718 -52.897  15.776  1.00  0.00     0.210 HD
ENDBRANCH  12  18
ENDBRANCH  11  12
ENDBRANCH   6  11
TORSDOF 3
ENDMDL
