MODEL 1
REMARK VINA RESULT:      -6.1      0.000      0.000
REMARK  6 active torsions:
REMARK  status: ('A' for Active; 'I' for Inactive)
REMARK    1  A    between atoms: N_6  and  C_7 
REMARK    2  A    between atoms: C_7  and  C_8 
REMARK    3  A    between atoms: C_8  and  O_9 
REMARK    4  A    between atoms: C_8  and  C_10 
REMARK    5  A    between atoms: C_10  and  O_11 
REMARK    6  A    between atoms: O_11  and  C_12 
ROOT
HETATM    1  C   UNL     1     -45.665 -53.697  13.290  1.00  0.00     0.166 C 
ENDROOT
BRANCH   1   2
HETATM    2  N   UNL     1     -44.233 -53.878  13.504  1.00  0.00    -0.307 N 
HETATM    3  C   UNL     1     -43.333 -53.428  12.577  1.00  0.00     0.186 A 
HETATM    4  N   UNL     1     -42.055 -53.571  12.656  1.00  0.00    -0.355 N 
HETATM    5  C   UNL     1     -41.559 -54.208  13.766  1.00  0.00     0.017 A 
ATOM      6  HN  UNL     1     -41.436 -53.224  11.923  1.00  0.00     0.166 HD
HETATM    7  C   UNL     1     -40.060 -54.378  13.769  1.00  0.00     0.069 C 
HETATM    8  C   UNL     1     -42.322 -54.653  14.782  1.00  0.00     0.028 A 
HETATM    9  C   UNL     1     -43.792 -54.459  14.672  1.00  0.00     0.256 A 
HETATM   10  C   UNL     1     -41.790 -55.336  16.004  1.00  0.00     0.056 C 
HETATM   11  O   UNL     1     -44.552 -54.814  15.571  1.00  0.00    -0.267 OA
ENDBRANCH   1   2
BRANCH   1  12
HETATM   12  C   UNL     1     -46.010 -52.361  12.609  1.00  0.00     0.161 C 
BRANCH  12  13
HETATM   13  O   UNL     1     -46.812 -52.633  11.448  1.00  0.00    -0.392 OA
HETATM   14  H   UNL     1     -47.747 -52.678  11.714  1.00  0.00     0.210 HD
ENDBRANCH  12  13
BRANCH  12  15
HETATM   15  C   UNL     1     -46.761 -51.451  13.603  1.00  0.00     0.209 C 
BRANCH  15  16
HETATM   16  O   UNL     1     -46.971 -52.146  14.834  1.00  0.00    -0.349 OA
BRANCH  16  17
HETATM   17  C   UNL     1     -46.949 -51.397  15.982  1.00  0.00     0.068 A 
HETATM   18  C   UNL     1     -48.026 -51.165  16.836  1.00  0.00     0.037 A 
HETATM   19  C   UNL     1     -47.869 -50.373  17.980  1.00  0.00     0.003 A 
HETATM   20  C   UNL     1     -46.629 -49.811  18.277  1.00  0.00     0.000 A 
HETATM   21  C   UNL     1     -45.547 -50.040  17.432  1.00  0.00     0.003 A 
HETATM   22  C   UNL     1     -45.709 -50.830  16.290  1.00  0.00     0.037 A 
ENDBRANCH  16  17
ENDBRANCH  15  16
ENDBRANCH  12  15
ENDBRANCH   1  12
TORSDOF 6
ENDMDL
MODEL 2
REMARK VINA RESULT:      -6.0      4.762      5.968
REMARK  6 active torsions:
REMARK  status: ('A' for Active; 'I' for Inactive)
REMARK    1  A    between atoms: N_6  and  C_7 
REMARK    2  A    between atoms: C_7  and  C_8 
REMARK    3  A    between atoms: C_8  and  O_9 
REMARK    4  A    between atoms: C_8  and  C_10 
REMARK    5  A    between atoms: C_10  and  O_11 
REMARK    6  A    between atoms: O_11  and  C_12 
ROOT
HETATM    1  C   UNL     1     -40.014 -51.539  12.777  1.00  0.00     0.166 C 
ENDROOT
BRANCH   1   2
HETATM    2  N   UNL     1     -40.001 -50.123  12.419  1.00  0.00    -0.307 N 
HETATM    3  C   UNL     1     -40.509 -49.709  11.219  1.00  0.00     0.186 A 
HETATM    4  N   UNL     1     -40.511 -48.491  10.797  1.00  0.00    -0.355 N 
HETATM    5  C   UNL     1     -39.978 -47.535  11.626  1.00  0.00     0.017 A 
ATOM      6  HN  UNL     1     -40.894 -48.247   9.883  1.00  0.00     0.166 HD
HETATM    7  C   UNL     1     -39.974 -46.142  11.048  1.00  0.00     0.069 C 
HETATM    8  C   UNL     1     -39.493 -47.791  12.855  1.00  0.00     0.028 A 
HETATM    9  C   UNL     1     -39.520 -49.203  13.323  1.00  0.00     0.256 A 
HETATM   10  C   UNL     1     -38.924 -46.755  13.773  1.00  0.00     0.056 C 
HETATM   11  O   UNL     1     -39.121 -49.511  14.444  1.00  0.00    -0.267 OA
ENDBRANCH   1   2
BRANCH   1  12
HETATM   12  C   UNL     1     -41.113 -52.334  12.050  1.00  0.00     0.161 C 
BRANCH  12  13
HETATM   13  O   UNL     1     -40.495 -53.416  11.332  1.00  0.00    -0.392 OA
HETATM   14  H   UNL     1     -40.332 -53.134  10.416  1.00  0.00     0.210 HD
ENDBRANCH  12  13
BRANCH  12  15
HETATM   15  C   UNL     1     -42.137 -52.862  13.077  1.00  0.00     0.209 C 
BRANCH  15  16
HETATM   16  O   UNL     1     -43.394 -53.090  12.435  1.00  0.00    -0.349 OA
BRANCH  16  17
HETATM   17  C   UNL     1     -44.501 -52.538  13.026  1.00  0.00     0.068 A 
HETATM   18  C   UNL     1     -45.794 -52.526  12.505  1.00  0.00     0.037 A 
HETATM   19  C   UNL     1     -46.841 -51.923  13.211  1.00  0.00     0.003 A 
HETATM   20  C   UNL     1     -46.598 -51.328  14.448  1.00  0.00     0.000 A 
HETATM   21  C   UNL     1     -45.311 -51.338  14.978  1.00  0.00     0.003 A 
HETATM   22  C   UNL     1     -44.269 -51.941  14.268  1.00  0.00     0.037 A 
ENDBRANCH  16  17
ENDBRANCH  15  16
ENDBRANCH  12  15
ENDBRANCH   1  12
TORSDOF 6
ENDMDL
MODEL 3
REMARK VINA RESULT:      -5.9      4.195      5.553
REMARK  6 active torsions:
REMARK  status: ('A' for Active; 'I' for Inactive)
REMARK    1  A    between atoms: N_6  and  C_7 
REMARK    2  A    between atoms: C_7  and  C_8 
REMARK    3  A    between atoms: C_8  and  O_9 
REMARK    4  A    between atoms: C_8  and  C_10 
REMARK    5  A    between atoms: C_10  and  O_11 
REMARK    6  A    between atoms: O_11  and  C_12 
ROOT
HETATM    1  C   UNL     1     -40.888 -51.536  12.969  1.00  0.00     0.166 C 
ENDROOT
BRANCH   1   2
HETATM    2  N   UNL     1     -40.894 -50.181  12.425  1.00  0.00    -0.307 N 
HETATM    3  C   UNL     1     -39.893 -49.768  11.590  1.00  0.00     0.186 A 
HETATM    4  N   UNL     1     -39.789 -48.586  11.088  1.00  0.00    -0.355 N 
HETATM    5  C   UNL     1     -40.769 -47.678  11.403  1.00  0.00     0.017 A 
ATOM      6  HN  UNL     1     -39.009 -48.334  10.480  1.00  0.00     0.166 HD
HETATM    7  C   UNL     1     -40.558 -46.305  10.816  1.00  0.00     0.069 C 
HETATM    8  C   UNL     1     -41.840 -47.962  12.168  1.00  0.00     0.028 A 
HETATM    9  C   UNL     1     -41.943 -49.340  12.719  1.00  0.00     0.256 A 
HETATM   10  C   UNL     1     -42.923 -46.985  12.505  1.00  0.00     0.056 C 
HETATM   11  O   UNL     1     -42.905 -49.683  13.402  1.00  0.00    -0.267 OA
ENDBRANCH   1   2
BRANCH   1  12
HETATM   12  C   UNL     1     -41.559 -52.563  12.038  1.00  0.00     0.161 C 
BRANCH  12  13
HETATM   13  O   UNL     1     -40.538 -53.404  11.475  1.00  0.00    -0.392 OA
HETATM   14  H   UNL     1     -39.940 -53.694  12.186  1.00  0.00     0.210 HD
ENDBRANCH  12  13
BRANCH  12  15
HETATM   15  C   UNL     1     -42.585 -53.394  12.837  1.00  0.00     0.209 C 
BRANCH  15  16
HETATM   16  O   UNL     1     -43.903 -53.140  12.345  1.00  0.00    -0.349 OA
BRANCH  16  17
HETATM   17  C   UNL     1     -44.791 -52.563  13.215  1.00  0.00     0.068 A 
HETATM   18  C   UNL     1     -46.001 -51.959  12.879  1.00  0.00     0.037 A 
HETATM   19  C   UNL     1     -46.817 -51.402  13.869  1.00  0.00     0.003 A 
HETATM   20  C   UNL     1     -46.426 -51.448  15.206  1.00  0.00     0.000 A 
HETATM   21  C   UNL     1     -45.220 -52.051  15.552  1.00  0.00     0.003 A 
HETATM   22  C   UNL     1     -44.408 -52.606  14.559  1.00  0.00     0.037 A 
ENDBRANCH  16  17
ENDBRANCH  15  16
ENDBRANCH  12  15
ENDBRANCH   1  12
TORSDOF 6
ENDMDL
MODEL 4
REMARK VINA RESULT:      -5.8      3.894      5.381
REMARK  6 active torsions:
REMARK  status: ('A' for Active; 'I' for Inactive)
REMARK    1  A    between atoms: N_6  and  C_7 
REMARK    2  A    between atoms: C_7  and  C_8 
REMARK    3  A    between atoms: C_8  and  O_9 
REMARK    4  A    between atoms: C_8  and  C_10 
REMARK    5  A    between atoms: C_10  and  O_11 
REMARK    6  A    between atoms: O_11  and  C_12 
ROOT
HETATM    1  C   UNL     1     -40.949 -52.449  13.892  1.00  0.00     0.166 C 
ENDROOT
BRANCH   1   2
HETATM    2  N   UNL     1     -40.551 -51.171  13.309  1.00  0.00    -0.307 N 
HETATM    3  C   UNL     1     -41.407 -50.104  13.332  1.00  0.00     0.186 A 
HETATM    4  N   UNL     1     -41.164 -48.949  12.815  1.00  0.00    -0.355 N 
HETATM    5  C   UNL     1     -39.944 -48.772  12.211  1.00  0.00     0.017 A 
ATOM      6  HN  UNL     1     -41.851 -48.196  12.853  1.00  0.00     0.166 HD
HETATM    7  C   UNL     1     -39.748 -47.412  11.591  1.00  0.00     0.069 C 
HETATM    8  C   UNL     1     -38.985 -49.715  12.163  1.00  0.00     0.028 A 
HETATM    9  C   UNL     1     -39.286 -51.033  12.783  1.00  0.00     0.256 A 
HETATM   10  C   UNL     1     -37.645 -49.529  11.521  1.00  0.00     0.056 C 
HETATM   11  O   UNL     1     -38.451 -51.935  12.804  1.00  0.00    -0.267 OA
ENDBRANCH   1   2
BRANCH   1  12
HETATM   12  C   UNL     1     -41.641 -53.383  12.882  1.00  0.00     0.161 C 
BRANCH  12  13
HETATM   13  O   UNL     1     -40.634 -54.167  12.221  1.00  0.00    -0.392 OA
HETATM   14  H   UNL     1     -40.295 -54.835  12.842  1.00  0.00     0.210 HD
ENDBRANCH  12  13
BRANCH  12  15
HETATM   15  C   UNL     1     -42.652 -54.286  13.620  1.00  0.00     0.209 C 
BRANCH  15  16
HETATM   16  O   UNL     1     -43.932 -54.194  12.991  1.00  0.00    -0.349 OA
BRANCH  16  17
HETATM   17  C   UNL     1     -44.819 -53.290  13.515  1.00  0.00     0.068 A 
HETATM   18  C   UNL     1     -44.995 -52.996  14.866  1.00  0.00     0.037 A 
HETATM   19  C   UNL     1     -45.943 -52.049  15.271  1.00  0.00     0.003 A 
HETATM   20  C   UNL     1     -46.720 -51.388  14.322  1.00  0.00     0.000 A 
HETATM   21  C   UNL     1     -46.549 -51.673  12.970  1.00  0.00     0.003 A 
HETATM   22  C   UNL     1     -45.602 -52.620  12.571  1.00  0.00     0.037 A 
ENDBRANCH  16  17
ENDBRANCH  15  16
ENDBRANCH  12  15
ENDBRANCH   1  12
TORSDOF 6
ENDMDL
MODEL 5
REMARK VINA RESULT:      -5.6      4.083      6.538
REMARK  6 active torsions:
REMARK  status: ('A' for Active; 'I' for Inactive)
REMARK    1  A    between atoms: N_6  and  C_7 
REMARK    2  A    between atoms: C_7  and  C_8 
REMARK    3  A    between atoms: C_8  and  O_9 
REMARK    4  A    between atoms: C_8  and  C_10 
REMARK    5  A    between atoms: C_10  and  O_11 
REMARK    6  A    between atoms: O_11  and  C_12 
ROOT
HETATM    1  C   UNL     1     -42.217 -52.142  12.352  1.00  0.00     0.166 C 
ENDROOT
BRANCH   1   2
HETATM    2  N   UNL     1     -43.411 -52.642  13.026  1.00  0.00    -0.307 N 
HETATM    3  C   UNL     1     -43.534 -53.973  13.318  1.00  0.00     0.186 A 
HETATM    4  N   UNL     1     -44.560 -54.516  13.877  1.00  0.00    -0.355 N 
HETATM    5  C   UNL     1     -45.601 -53.691  14.222  1.00  0.00     0.017 A 
ATOM      6  HN  UNL     1     -44.597 -55.520  14.055  1.00  0.00     0.166 HD
HETATM    7  C   UNL     1     -46.784 -54.401  14.830  1.00  0.00     0.069 C 
HETATM    8  C   UNL     1     -45.594 -52.356  14.045  1.00  0.00     0.028 A 
HETATM    9  C   UNL     1     -44.389 -51.754  13.414  1.00  0.00     0.256 A 
HETATM   10  C   UNL     1     -46.717 -51.444  14.432  1.00  0.00     0.056 C 
HETATM   11  O   UNL     1     -44.296 -50.541  13.245  1.00  0.00    -0.267 OA
ENDBRANCH   1   2
BRANCH   1  12
HETATM   12  C   UNL     1     -40.991 -53.055  12.538  1.00  0.00     0.161 C 
BRANCH  12  13
HETATM   13  O   UNL     1     -40.497 -53.427  11.241  1.00  0.00    -0.392 OA
HETATM   14  H   UNL     1     -39.763 -52.836  11.001  1.00  0.00     0.210 HD
ENDBRANCH  12  13
BRANCH  12  15
HETATM   15  C   UNL     1     -39.911 -52.312  13.352  1.00  0.00     0.209 C 
BRANCH  15  16
HETATM   16  O   UNL     1     -39.094 -51.532  12.476  1.00  0.00    -0.349 OA
BRANCH  16  17
HETATM   17  C   UNL     1     -39.140 -50.171  12.631  1.00  0.00     0.068 A 
HETATM   18  C   UNL     1     -39.592 -49.249  11.688  1.00  0.00     0.037 A 
HETATM   19  C   UNL     1     -39.582 -47.879  11.973  1.00  0.00     0.003 A 
HETATM   20  C   UNL     1     -39.121 -47.424  13.206  1.00  0.00     0.000 A 
HETATM   21  C   UNL     1     -38.672 -48.337  14.155  1.00  0.00     0.003 A 
HETATM   22  C   UNL     1     -38.682 -49.705  13.866  1.00  0.00     0.037 A 
ENDBRANCH  16  17
ENDBRANCH  15  16
ENDBRANCH  12  15
ENDBRANCH   1  12
TORSDOF 6
ENDMDL
MODEL 6
REMARK VINA RESULT:      -5.5      5.454      7.152
REMARK  6 active torsions:
REMARK  status: ('A' for Active; 'I' for Inactive)
REMARK    1  A    between atoms: N_6  and  C_7 
REMARK    2  A    between atoms: C_7  and  C_8 
REMARK    3  A    between atoms: C_8  and  O_9 
REMARK    4  A    between atoms: C_8  and  C_10 
REMARK    5  A    between atoms: C_10  and  O_11 
REMARK    6  A    between atoms: O_11  and  C_12 
ROOT
HETATM    1  C   UNL     1     -41.559 -49.985  12.426  1.00  0.00     0.166 C 
ENDROOT
BRANCH   1   2
HETATM    2  N   UNL     1     -41.121 -48.661  11.995  1.00  0.00    -0.307 N 
HETATM    3  C   UNL     1     -41.397 -48.218  10.731  1.00  0.00     0.186 A 
HETATM    4  N   UNL     1     -41.024 -47.084  10.245  1.00  0.00    -0.355 N 
HETATM    5  C   UNL     1     -40.310 -46.250  11.069  1.00  0.00     0.017 A 
ATOM      6  HN  UNL     1     -41.250 -46.817   9.287  1.00  0.00     0.166 HD
HETATM    7  C   UNL     1     -39.871 -44.961  10.420  1.00  0.00     0.069 C 
HETATM    8  C   UNL     1     -40.014 -46.531  12.351  1.00  0.00     0.028 A 
HETATM    9  C   UNL     1     -40.473 -47.840  12.890  1.00  0.00     0.256 A 
HETATM   10  C   UNL     1     -39.250 -45.623  13.263  1.00  0.00     0.056 C 
HETATM   11  O   UNL     1     -40.264 -48.157  14.059  1.00  0.00    -0.267 OA
ENDBRANCH   1   2
BRANCH   1  12
HETATM   12  C   UNL     1     -40.471 -51.062  12.267  1.00  0.00     0.161 C 
BRANCH  12  13
HETATM   13  O   UNL     1     -39.774 -51.195  13.517  1.00  0.00    -0.392 OA
HETATM   14  H   UNL     1     -39.073 -50.522  13.561  1.00  0.00     0.210 HD
ENDBRANCH  12  13
BRANCH  12  15
HETATM   15  C   UNL     1     -41.120 -52.398  11.849  1.00  0.00     0.209 C 
BRANCH  15  16
HETATM   16  O   UNL     1     -42.530 -52.345  12.078  1.00  0.00    -0.349 OA
BRANCH  16  17
HETATM   17  C   UNL     1     -43.059 -53.288  12.921  1.00  0.00     0.068 A 
HETATM   18  C   UNL     1     -42.402 -53.904  13.985  1.00  0.00     0.037 A 
HETATM   19  C   UNL     1     -43.059 -54.859  14.769  1.00  0.00     0.003 A 
HETATM   20  C   UNL     1     -44.380 -55.202  14.493  1.00  0.00     0.000 A 
HETATM   21  C   UNL     1     -45.046 -54.589  13.434  1.00  0.00     0.003 A 
HETATM   22  C   UNL     1     -44.385 -53.637  12.654  1.00  0.00     0.037 A 
ENDBRANCH  16  17
ENDBRANCH  15  16
ENDBRANCH  12  15
ENDBRANCH   1  12
TORSDOF 6
ENDMDL
MODEL 7
REMARK VINA RESULT:      -5.4      5.388      7.707
REMARK  6 active torsions:
REMARK  status: ('A' for Active; 'I' for Inactive)
REMARK    1  A    between atoms: N_6  and  C_7 
REMARK    2  A    between atoms: C_7  and  C_8 
REMARK    3  A    between atoms: C_8  and  O_9 
REMARK    4  A    between atoms: C_8  and  C_10 
REMARK    5  A    between atoms: C_10  and  O_11 
REMARK    6  A    between atoms: O_11  and  C_12 
ROOT
HETATM    1  C   UNL     1     -39.531 -49.625  13.017  1.00  0.00     0.166 C 
ENDROOT
BRANCH   1   2
HETATM    2  N   UNL     1     -40.386 -48.812  12.157  1.00  0.00    -0.307 N 
HETATM    3  C   UNL     1     -41.448 -49.376  11.506  1.00  0.00     0.186 A 
HETATM    4  N   UNL     1     -42.238 -48.754  10.700  1.00  0.00    -0.355 N 
HETATM    5  C   UNL     1     -42.004 -47.417  10.495  1.00  0.00     0.017 A 
ATOM      6  HN  UNL     1     -43.006 -49.235  10.233  1.00  0.00     0.166 HD
HETATM    7  C   UNL     1     -42.939 -46.765   9.507  1.00  0.00     0.069 C 
HETATM    8  C   UNL     1     -41.030 -46.720  11.110  1.00  0.00     0.028 A 
HETATM    9  C   UNL     1     -40.145 -47.461  12.049  1.00  0.00     0.256 A 
HETATM   10  C   UNL     1     -40.775 -45.259  10.906  1.00  0.00     0.056 C 
HETATM   11  O   UNL     1     -39.252 -46.889  12.669  1.00  0.00    -0.267 OA
ENDBRANCH   1   2
BRANCH   1  12
HETATM   12  C   UNL     1     -39.381 -51.075  12.522  1.00  0.00     0.161 C 
BRANCH  12  13
HETATM   13  O   UNL     1     -38.187 -51.166  11.728  1.00  0.00    -0.392 OA
HETATM   14  H   UNL     1     -38.392 -51.635  10.901  1.00  0.00     0.210 HD
ENDBRANCH  12  13
BRANCH  12  15
HETATM   15  C   UNL     1     -39.318 -52.032  13.731  1.00  0.00     0.209 C 
BRANCH  15  16
HETATM   16  O   UNL     1     -39.688 -53.351  13.324  1.00  0.00    -0.349 OA
BRANCH  16  17
HETATM   17  C   UNL     1     -40.830 -53.874  13.875  1.00  0.00     0.068 A 
HETATM   18  C   UNL     1     -40.931 -54.518  15.107  1.00  0.00     0.037 A 
HETATM   19  C   UNL     1     -42.163 -55.012  15.552  1.00  0.00     0.003 A 
HETATM   20  C   UNL     1     -43.302 -54.861  14.764  1.00  0.00     0.000 A 
HETATM   21  C   UNL     1     -43.211 -54.217  13.534  1.00  0.00     0.003 A 
HETATM   22  C   UNL     1     -41.979 -53.727  13.093  1.00  0.00     0.037 A 
ENDBRANCH  16  17
ENDBRANCH  15  16
ENDBRANCH  12  15
ENDBRANCH   1  12
TORSDOF 6
ENDMDL
MODEL 8
REMARK VINA RESULT:      -5.4      3.310      6.467
REMARK  6 active torsions:
REMARK  status: ('A' for Active; 'I' for Inactive)
REMARK    1  A    between atoms: N_6  and  C_7 
REMARK    2  A    between atoms: C_7  and  C_8 
REMARK    3  A    between atoms: C_8  and  O_9 
REMARK    4  A    between atoms: C_8  and  C_10 
REMARK    5  A    between atoms: C_10  and  O_11 
REMARK    6  A    between atoms: O_11  and  C_12 
ROOT
HETATM    1  C   UNL     1     -41.493 -54.311  13.945  1.00  0.00     0.166 C 
ENDROOT
BRANCH   1   2
HETATM    2  N   UNL     1     -42.837 -53.858  13.598  1.00  0.00    -0.307 N 
HETATM    3  C   UNL     1     -43.022 -52.941  12.601  1.00  0.00     0.186 A 
HETATM    4  N   UNL     1     -44.161 -52.454  12.245  1.00  0.00    -0.355 N 
HETATM    5  C   UNL     1     -45.275 -52.905  12.908  1.00  0.00     0.017 A 
ATOM      6  HN  UNL     1     -44.231 -51.760  11.501  1.00  0.00     0.166 HD
HETATM    7  C   UNL     1     -46.565 -52.259  12.470  1.00  0.00     0.069 C 
HETATM    8  C   UNL     1     -45.247 -53.845  13.872  1.00  0.00     0.028 A 
HETATM    9  C   UNL     1     -43.921 -54.403  14.249  1.00  0.00     0.256 A 
HETATM   10  C   UNL     1     -46.457 -54.356  14.591  1.00  0.00     0.056 C 
HETATM   11  O   UNL     1     -43.818 -55.283  15.100  1.00  0.00    -0.267 OA
ENDBRANCH   1   2
BRANCH   1  12
HETATM   12  C   UNL     1     -40.705 -53.282  14.775  1.00  0.00     0.161 C 
BRANCH  12  13
HETATM   13  O   UNL     1     -40.527 -53.805  16.102  1.00  0.00    -0.392 OA
HETATM   14  H   UNL     1     -41.361 -54.210  16.396  1.00  0.00     0.210 HD
ENDBRANCH  12  13
BRANCH  12  15
HETATM   15  C   UNL     1     -39.345 -53.003  14.101  1.00  0.00     0.209 C 
BRANCH  15  16
HETATM   16  O   UNL     1     -39.551 -52.575  12.753  1.00  0.00    -0.349 OA
BRANCH  16  17
HETATM   17  C   UNL     1     -39.451 -51.230  12.506  1.00  0.00     0.068 A 
HETATM   18  C   UNL     1     -40.431 -50.422  11.931  1.00  0.00     0.037 A 
HETATM   19  C   UNL     1     -40.200 -49.057  11.730  1.00  0.00     0.003 A 
HETATM   20  C   UNL     1     -38.983 -48.491  12.106  1.00  0.00     0.000 A 
HETATM   21  C   UNL     1     -38.000 -49.289  12.684  1.00  0.00     0.003 A 
HETATM   22  C   UNL     1     -38.235 -50.652  12.882  1.00  0.00     0.037 A 
ENDBRANCH  16  17
ENDBRANCH  15  16
ENDBRANCH  12  15
ENDBRANCH   1  12
TORSDOF 6
ENDMDL
MODEL 9
REMARK VINA RESULT:      -5.3      4.790      5.991
REMARK  6 active torsions:
REMARK  status: ('A' for Active; 'I' for Inactive)
REMARK    1  A    between atoms: N_6  and  C_7 
REMARK    2  A    between atoms: C_7  and  C_8 
REMARK    3  A    between atoms: C_8  and  O_9 
REMARK    4  A    between atoms: C_8  and  C_10 
REMARK    5  A    between atoms: C_10  and  O_11 
REMARK    6  A    between atoms: O_11  and  C_12 
ROOT
HETATM    1  C   UNL     1     -39.980 -51.464  12.687  1.00  0.00     0.166 C 
ENDROOT
BRANCH   1   2
HETATM    2  N   UNL     1     -39.740 -50.048  12.951  1.00  0.00    -0.307 N 
HETATM    3  C   UNL     1     -40.662 -49.109  12.578  1.00  0.00     0.186 A 
HETATM    4  N   UNL     1     -40.527 -47.837  12.734  1.00  0.00    -0.355 N 
HETATM    5  C   UNL     1     -39.377 -47.394  13.338  1.00  0.00     0.017 A 
ATOM      6  HN  UNL     1     -41.247 -47.185  12.421  1.00  0.00     0.166 HD
HETATM    7  C   UNL     1     -39.269 -45.894  13.447  1.00  0.00     0.069 C 
HETATM    8  C   UNL     1     -38.411 -48.207  13.804  1.00  0.00     0.028 A 
HETATM    9  C   UNL     1     -38.601 -49.671  13.626  1.00  0.00     0.256 A 
HETATM   10  C   UNL     1     -37.160 -47.735  14.478  1.00  0.00     0.056 C 
HETATM   11  O   UNL     1     -37.776 -50.478  14.050  1.00  0.00    -0.267 OA
ENDBRANCH   1   2
BRANCH   1  12
HETATM   12  C   UNL     1     -41.396 -51.746  12.153  1.00  0.00     0.161 C 
BRANCH  12  13
HETATM   13  O   UNL     1     -41.284 -52.524  10.949  1.00  0.00    -0.392 OA
HETATM   14  H   UNL     1     -40.394 -52.913  10.907  1.00  0.00     0.210 HD
ENDBRANCH  12  13
BRANCH  12  15
HETATM   15  C   UNL     1     -42.214 -52.496  13.225  1.00  0.00     0.209 C 
BRANCH  15  16
HETATM   16  O   UNL     1     -43.417 -53.008  12.646  1.00  0.00    -0.349 OA
BRANCH  16  17
HETATM   17  C   UNL     1     -44.585 -52.760  13.320  1.00  0.00     0.068 A 
HETATM   18  C   UNL     1     -45.167 -51.511  13.528  1.00  0.00     0.037 A 
HETATM   19  C   UNL     1     -46.366 -51.395  14.240  1.00  0.00     0.003 A 
HETATM   20  C   UNL     1     -46.991 -52.532  14.747  1.00  0.00     0.000 A 
HETATM   21  C   UNL     1     -46.419 -53.784  14.541  1.00  0.00     0.003 A 
HETATM   22  C   UNL     1     -45.221 -53.895  13.830  1.00  0.00     0.037 A 
ENDBRANCH  16  17
ENDBRANCH  15  16
ENDBRANCH  12  15
ENDBRANCH   1  12
TORSDOF 6
ENDMDL
