MODEL 1
REMARK VINA RESULT:      -5.8      0.000      0.000
REMARK  5 active torsions:
REMARK  status: ('A' for Active; 'I' for Inactive)
REMARK    1  A    between atoms: C_2  and  C_3 
REMARK    2  A    between atoms: C_2  and  N_17 
REMARK    3  A    between atoms: C_3  and  N_4 
REMARK       I    between atoms: N_4  and  C_5 
REMARK    4  A    between atoms: C_5  and  C_7 
REMARK    5  A    between atoms: C_7  and  C_8 
ROOT
HETATM    1  N   UNL     1     -42.012 -52.888  14.111  1.00  0.00    -0.359 N 
HETATM    2  C   UNL     1     -40.774 -52.747  13.513  1.00  0.00     0.222 C 
HETATM    3  O   UNL     1     -40.306 -53.597  12.757  1.00  0.00    -0.273 OA
HETATM    4  H   UNL     1     -42.214 -52.288  14.903  1.00  0.00     0.162 HD
ENDROOT
BRANCH   2   5
HETATM    5  C   UNL     1     -40.052 -51.442  13.812  1.00  0.00     0.145 C 
BRANCH   5   6
HETATM    6  C   UNL     1     -40.166 -50.415  12.728  1.00  0.00    -0.002 A 
HETATM    7  C   UNL     1     -39.153 -49.938  11.843  1.00  0.00     0.030 A 
HETATM    8  C   UNL     1     -37.711 -50.284  11.760  1.00  0.00     0.070 C 
HETATM    9  N   UNL     1     -39.645 -49.073  10.951  1.00  0.00    -0.303 N 
HETATM   10  N   UNL     1     -40.952 -49.000  11.231  1.00  0.00    -0.300 N 
ATOM     11  HN  UNL     1     -39.137 -48.577  10.218  1.00  0.00     0.186 HD
HETATM   12  C   UNL     1     -41.793 -48.176  10.393  1.00  0.00     0.177 C 
HETATM   13  C   UNL     1     -41.324 -49.773  12.301  1.00  0.00     0.033 A 
HETATM   14  C   UNL     1     -42.720 -49.865  12.800  1.00  0.00     0.070 C 
ENDBRANCH   5   6
ENDBRANCH   2   5
BRANCH   1  15
HETATM   15  C   UNL     1     -42.763 -54.132  14.006  1.00  0.00     0.158 C 
BRANCH  15  16
HETATM   16  C   UNL     1     -44.244 -54.073  14.505  1.00  0.00     0.236 C 
HETATM   17  C   UNL     1     -45.046 -55.207  13.843  1.00  0.00     0.044 C 
BRANCH  16  18
HETATM   18  N   UNL     1     -44.862 -52.752  14.217  1.00  0.00     0.094 N 
HETATM   19  C   UNL     1     -45.741 -52.286  15.306  1.00  0.00     0.273 C 
HETATM   20  C   UNL     1     -46.817 -51.427  14.647  1.00  0.00     0.032 C 
HETATM   21  C   UNL     1     -46.488 -51.454  13.168  1.00  0.00     0.032 C 
HETATM   22  C   UNL     1     -45.697 -52.738  13.010  1.00  0.00     0.273 C 
ENDBRANCH  16  18
ENDBRANCH  15  16
ENDBRANCH   1  15
TORSDOF 5
ENDMDL
MODEL 2
REMARK VINA RESULT:      -5.5      1.531      6.679
REMARK  5 active torsions:
REMARK  status: ('A' for Active; 'I' for Inactive)
REMARK    1  A    between atoms: C_2  and  C_3 
REMARK    2  A    between atoms: C_2  and  N_17 
REMARK    3  A    between atoms: C_3  and  N_4 
REMARK       I    between atoms: N_4  and  C_5 
REMARK    4  A    between atoms: C_5  and  C_7 
REMARK    5  A    between atoms: C_7  and  C_8 
ROOT
HETATM    1  N   UNL     1     -42.771 -52.139  12.305  1.00  0.00    -0.359 N 
HETATM    2  C   UNL     1     -43.007 -53.416  12.779  1.00  0.00     0.222 C 
HETATM    3  O   UNL     1     -42.099 -54.171  13.122  1.00  0.00    -0.273 OA
HETATM    4  H   UNL     1     -43.529 -51.683  11.810  1.00  0.00     0.162 HD
ENDROOT
BRANCH   2   5
HETATM    5  C   UNL     1     -44.473 -53.804  12.899  1.00  0.00     0.145 C 
BRANCH   5   6
HETATM    6  C   UNL     1     -45.304 -52.832  13.679  1.00  0.00    -0.002 A 
HETATM    7  C   UNL     1     -46.333 -51.962  13.209  1.00  0.00     0.030 A 
HETATM    8  C   UNL     1     -46.849 -51.742  11.834  1.00  0.00     0.070 C 
HETATM    9  N   UNL     1     -46.910 -51.292  14.212  1.00  0.00    -0.303 N 
HETATM   10  N   UNL     1     -46.288 -51.728  15.314  1.00  0.00    -0.300 N 
ATOM     11  HN  UNL     1     -47.658 -50.602  14.151  1.00  0.00     0.186 HD
HETATM   12  C   UNL     1     -46.727 -51.228  16.598  1.00  0.00     0.177 C 
HETATM   13  C   UNL     1     -45.300 -52.643  15.058  1.00  0.00     0.033 A 
HETATM   14  C   UNL     1     -44.474 -53.277  16.117  1.00  0.00     0.070 C 
ENDBRANCH   5   6
ENDBRANCH   2   5
BRANCH   1  15
HETATM   15  C   UNL     1     -41.418 -51.676  12.029  1.00  0.00     0.158 C 
BRANCH  15  16
HETATM   16  C   UNL     1     -41.074 -50.242  12.551  1.00  0.00     0.236 C 
HETATM   17  C   UNL     1     -41.605 -49.200  11.551  1.00  0.00     0.044 C 
BRANCH  16  18
HETATM   18  N   UNL     1     -39.611 -50.076  12.760  1.00  0.00     0.094 N 
HETATM   19  C   UNL     1     -38.913 -49.609  11.548  1.00  0.00     0.273 C 
HETATM   20  C   UNL     1     -37.499 -50.178  11.625  1.00  0.00     0.032 C 
HETATM   21  C   UNL     1     -37.466 -50.972  12.916  1.00  0.00     0.032 C 
HETATM   22  C   UNL     1     -38.924 -51.312  13.153  1.00  0.00     0.273 C 
ENDBRANCH  16  18
ENDBRANCH  15  16
ENDBRANCH   1  15
TORSDOF 5
ENDMDL
MODEL 3
REMARK VINA RESULT:      -5.5      1.649      2.689
REMARK  5 active torsions:
REMARK  status: ('A' for Active; 'I' for Inactive)
REMARK    1  A    between atoms: C_2  and  C_3 
REMARK    2  A    between atoms: C_2  and  N_17 
REMARK    3  A    between atoms: C_3  and  N_4 
REMARK       I    between atoms: N_4  and  C_5 
REMARK    4  A    between atoms: C_5  and  C_7 
REMARK    5  A    between atoms: C_7  and  C_8 
ROOT
HETATM    1  N   UNL     1     -42.348 -52.389  11.892  1.00  0.00    -0.359 N 
HETATM    2  C   UNL     1     -41.037 -51.979  12.051  1.00  0.00     0.222 C 
HETATM    3  O   UNL     1     -40.187 -52.681  12.595  1.00  0.00    -0.273 OA
HETATM    4  H   UNL     1     -43.033 -51.674  11.676  1.00  0.00     0.162 HD
ENDROOT
BRANCH   2   5
HETATM    5  C   UNL     1     -40.706 -50.618  11.458  1.00  0.00     0.145 C 
BRANCH   5   6
HETATM    6  C   UNL     1     -40.127 -49.645  12.438  1.00  0.00    -0.002 A 
HETATM    7  C   UNL     1     -40.788 -48.938  13.487  1.00  0.00     0.030 A 
HETATM    8  C   UNL     1     -42.218 -48.931  13.886  1.00  0.00     0.070 C 
HETATM    9  N   UNL     1     -39.929 -48.214  14.211  1.00  0.00    -0.303 N 
HETATM   10  N   UNL     1     -38.732 -48.456  13.663  1.00  0.00    -0.300 N 
ATOM     11  HN  UNL     1     -40.139 -47.609  15.006  1.00  0.00     0.186 HD
HETATM   12  C   UNL     1     -37.563 -47.853  14.264  1.00  0.00     0.177 C 
HETATM   13  C   UNL     1     -38.787 -49.297  12.582  1.00  0.00     0.033 A 
HETATM   14  C   UNL     1     -37.591 -49.721  11.810  1.00  0.00     0.070 C 
ENDBRANCH   5   6
ENDBRANCH   2   5
BRANCH   1  15
HETATM   15  C   UNL     1     -42.833 -53.616  12.511  1.00  0.00     0.158 C 
BRANCH  15  16
HETATM   16  C   UNL     1     -43.685 -53.427  13.809  1.00  0.00     0.236 C 
HETATM   17  C   UNL     1     -44.398 -54.749  14.142  1.00  0.00     0.044 C 
BRANCH  16  18
HETATM   18  N   UNL     1     -44.666 -52.320  13.660  1.00  0.00     0.094 N 
HETATM   19  C   UNL     1     -45.303 -51.949  14.937  1.00  0.00     0.273 C 
HETATM   20  C   UNL     1     -46.696 -51.434  14.585  1.00  0.00     0.032 C 
HETATM   21  C   UNL     1     -46.785 -51.548  13.076  1.00  0.00     0.032 C 
HETATM   22  C   UNL     1     -45.774 -52.629  12.748  1.00  0.00     0.273 C 
ENDBRANCH  16  18
ENDBRANCH  15  16
ENDBRANCH   1  15
TORSDOF 5
ENDMDL
MODEL 4
REMARK VINA RESULT:      -5.4      1.632      6.665
REMARK  5 active torsions:
REMARK  status: ('A' for Active; 'I' for Inactive)
REMARK    1  A    between atoms: C_2  and  C_3 
REMARK    2  A    between atoms: C_2  and  N_17 
REMARK    3  A    between atoms: C_3  and  N_4 
REMARK       I    between atoms: N_4  and  C_5 
REMARK    4  A    between atoms: C_5  and  C_7 
REMARK    5  A    between atoms: C_7  and  C_8 
ROOT
HETATM    1  N   UNL     1     -42.652 -51.227  12.186  1.00  0.00    -0.359 N 
HETATM    2  C   UNL     1     -42.583 -52.597  12.356  1.00  0.00     0.222 C 
HETATM    3  O   UNL     1     -41.515 -53.193  12.484  1.00  0.00    -0.273 OA
HETATM    4  H   UNL     1     -43.525 -50.848  11.835  1.00  0.00     0.162 HD
ENDROOT
BRANCH   2   5
HETATM    5  C   UNL     1     -43.924 -53.311  12.428  1.00  0.00     0.145 C 
BRANCH   5   6
HETATM    6  C   UNL     1     -44.523 -53.356  13.800  1.00  0.00    -0.002 A 
HETATM    7  C   UNL     1     -44.122 -54.143  14.921  1.00  0.00     0.030 A 
HETATM    8  C   UNL     1     -43.040 -55.153  15.047  1.00  0.00     0.070 C 
HETATM    9  N   UNL     1     -44.846 -53.858  16.008  1.00  0.00    -0.303 N 
HETATM   10  N   UNL     1     -45.687 -52.894  15.615  1.00  0.00    -0.300 N 
ATOM     11  HN  UNL     1     -44.774 -54.282  16.933  1.00  0.00     0.186 HD
HETATM   12  C   UNL     1     -46.583 -52.318  16.592  1.00  0.00     0.177 C 
HETATM   13  C   UNL     1     -45.552 -52.559  14.292  1.00  0.00     0.033 A 
HETATM   14  C   UNL     1     -46.367 -51.512  13.623  1.00  0.00     0.070 C 
ENDBRANCH   5   6
ENDBRANCH   2   5
BRANCH   1  15
HETATM   15  C   UNL     1     -41.449 -50.431  11.983  1.00  0.00     0.158 C 
BRANCH  15  16
HETATM   16  C   UNL     1     -40.750 -49.917  13.285  1.00  0.00     0.236 C 
HETATM   17  C   UNL     1     -41.282 -48.513  13.622  1.00  0.00     0.044 C 
BRANCH  16  18
HETATM   18  N   UNL     1     -39.271 -49.901  13.139  1.00  0.00     0.094 N 
HETATM   19  C   UNL     1     -38.835 -49.383  11.829  1.00  0.00     0.273 C 
HETATM   20  C   UNL     1     -37.514 -50.079  11.513  1.00  0.00     0.032 C 
HETATM   21  C   UNL     1     -37.261 -50.993  12.697  1.00  0.00     0.032 C 
HETATM   22  C   UNL     1     -38.649 -51.225  13.260  1.00  0.00     0.273 C 
ENDBRANCH  16  18
ENDBRANCH  15  16
ENDBRANCH   1  15
TORSDOF 5
ENDMDL
MODEL 5
REMARK VINA RESULT:      -5.4      1.828      5.969
REMARK  5 active torsions:
REMARK  status: ('A' for Active; 'I' for Inactive)
REMARK    1  A    between atoms: C_2  and  C_3 
REMARK    2  A    between atoms: C_2  and  N_17 
REMARK    3  A    between atoms: C_3  and  N_4 
REMARK       I    between atoms: N_4  and  C_5 
REMARK    4  A    between atoms: C_5  and  C_7 
REMARK    5  A    between atoms: C_7  and  C_8 
ROOT
HETATM    1  N   UNL     1     -41.093 -51.731  11.654  1.00  0.00    -0.359 N 
HETATM    2  C   UNL     1     -40.463 -52.607  12.519  1.00  0.00     0.222 C 
HETATM    3  O   UNL     1     -39.503 -52.275  13.211  1.00  0.00    -0.273 OA
HETATM    4  H   UNL     1     -41.693 -52.134  10.944  1.00  0.00     0.162 HD
ENDROOT
BRANCH   2   5
HETATM    5  C   UNL     1     -41.076 -53.998  12.594  1.00  0.00     0.145 C 
BRANCH   5   6
HETATM    6  C   UNL     1     -42.096 -54.161  13.679  1.00  0.00    -0.002 A 
HETATM    7  C   UNL     1     -41.894 -54.535  15.042  1.00  0.00     0.030 A 
HETATM    8  C   UNL     1     -40.647 -54.898  15.763  1.00  0.00     0.070 C 
HETATM    9  N   UNL     1     -43.035 -54.502  15.737  1.00  0.00    -0.303 N 
HETATM   10  N   UNL     1     -43.958 -54.096  14.857  1.00  0.00    -0.300 N 
ATOM     11  HN  UNL     1     -43.172 -54.734  16.721  1.00  0.00     0.186 HD
HETATM   12  C   UNL     1     -45.314 -53.900  15.319  1.00  0.00     0.177 C 
HETATM   13  C   UNL     1     -43.458 -53.891  13.597  1.00  0.00     0.033 A 
HETATM   14  C   UNL     1     -44.284 -53.432  12.450  1.00  0.00     0.070 C 
ENDBRANCH   5   6
ENDBRANCH   2   5
BRANCH   1  15
HETATM   15  C   UNL     1     -40.545 -50.406  11.395  1.00  0.00     0.158 C 
BRANCH  15  16
HETATM   16  C   UNL     1     -41.394 -49.206  11.931  1.00  0.00     0.236 C 
HETATM   17  C   UNL     1     -42.677 -49.748  12.586  1.00  0.00     0.044 C 
BRANCH  16  18
HETATM   18  N   UNL     1     -41.720 -48.243  10.847  1.00  0.00     0.094 N 
HETATM   19  C   UNL     1     -40.933 -46.999  10.936  1.00  0.00     0.273 C 
HETATM   20  C   UNL     1     -41.808 -45.898  10.343  1.00  0.00     0.032 C 
HETATM   21  C   UNL     1     -43.092 -46.594   9.939  1.00  0.00     0.032 C 
HETATM   22  C   UNL     1     -43.124 -47.815  10.836  1.00  0.00     0.273 C 
ENDBRANCH  16  18
ENDBRANCH  15  16
ENDBRANCH   1  15
TORSDOF 5
ENDMDL
MODEL 6
REMARK VINA RESULT:      -5.4      2.057      2.906
REMARK  5 active torsions:
REMARK  status: ('A' for Active; 'I' for Inactive)
REMARK    1  A    between atoms: C_2  and  C_3 
REMARK    2  A    between atoms: C_2  and  N_17 
REMARK    3  A    between atoms: C_3  and  N_4 
REMARK       I    between atoms: N_4  and  C_5 
REMARK    4  A    between atoms: C_5  and  C_7 
REMARK    5  A    between atoms: C_7  and  C_8 
ROOT
HETATM    1  N   UNL     1     -42.783 -53.400  12.182  1.00  0.00    -0.359 N 
HETATM    2  C   UNL     1     -42.233 -52.135  12.277  1.00  0.00     0.222 C 
HETATM    3  O   UNL     1     -42.863 -51.172  12.709  1.00  0.00    -0.273 OA
HETATM    4  H   UNL     1     -42.303 -54.069  11.590  1.00  0.00     0.162 HD
ENDROOT
BRANCH   2   5
HETATM    5  C   UNL     1     -40.774 -52.028  11.860  1.00  0.00     0.145 C 
BRANCH   5   6
HETATM    6  C   UNL     1     -39.856 -51.563  12.949  1.00  0.00    -0.002 A 
HETATM    7  C   UNL     1     -39.327 -52.308  14.045  1.00  0.00     0.030 A 
HETATM    8  C   UNL     1     -39.551 -53.722  14.442  1.00  0.00     0.070 C 
HETATM    9  N   UNL     1     -38.476 -51.578  14.773  1.00  0.00    -0.303 N 
HETATM   10  N   UNL     1     -38.433 -50.391  14.157  1.00  0.00    -0.300 N 
ATOM     11  HN  UNL     1     -37.971 -51.862  15.613  1.00  0.00     0.186 HD
HETATM   12  C   UNL     1     -37.543 -49.376  14.674  1.00  0.00     0.177 C 
HETATM   13  C   UNL     1     -39.255 -50.314  13.062  1.00  0.00     0.033 A 
HETATM   14  C   UNL     1     -39.376 -49.103  12.210  1.00  0.00     0.070 C 
ENDBRANCH   5   6
ENDBRANCH   2   5
BRANCH   1  15
HETATM   15  C   UNL     1     -44.199 -53.626  12.436  1.00  0.00     0.158 C 
BRANCH  15  16
HETATM   16  C   UNL     1     -44.569 -54.020  13.904  1.00  0.00     0.236 C 
HETATM   17  C   UNL     1     -45.529 -55.222  13.878  1.00  0.00     0.044 C 
BRANCH  16  18
HETATM   18  N   UNL     1     -45.172 -52.877  14.638  1.00  0.00     0.094 N 
HETATM   19  C   UNL     1     -45.853 -53.293  15.879  1.00  0.00     0.273 C 
HETATM   20  C   UNL     1     -46.984 -52.294  16.100  1.00  0.00     0.032 C 
HETATM   21  C   UNL     1     -46.890 -51.331  14.933  1.00  0.00     0.032 C 
HETATM   22  C   UNL     1     -46.184 -52.145  13.867  1.00  0.00     0.273 C 
ENDBRANCH  16  18
ENDBRANCH  15  16
ENDBRANCH   1  15
TORSDOF 5
ENDMDL
MODEL 7
REMARK VINA RESULT:      -5.4      1.763      2.062
REMARK  5 active torsions:
REMARK  status: ('A' for Active; 'I' for Inactive)
REMARK    1  A    between atoms: C_2  and  C_3 
REMARK    2  A    between atoms: C_2  and  N_17 
REMARK    3  A    between atoms: C_3  and  N_4 
REMARK       I    between atoms: N_4  and  C_5 
REMARK    4  A    between atoms: C_5  and  C_7 
REMARK    5  A    between atoms: C_7  and  C_8 
ROOT
HETATM    1  N   UNL     1     -42.321 -52.164  11.830  1.00  0.00    -0.359 N 
HETATM    2  C   UNL     1     -41.000 -51.798  12.008  1.00  0.00     0.222 C 
HETATM    3  O   UNL     1     -40.177 -52.537  12.544  1.00  0.00    -0.273 OA
HETATM    4  H   UNL     1     -42.982 -51.424  11.623  1.00  0.00     0.162 HD
ENDROOT
BRANCH   2   5
HETATM    5  C   UNL     1     -40.622 -50.436  11.445  1.00  0.00     0.145 C 
BRANCH   5   6
HETATM    6  C   UNL     1     -39.719 -49.635  12.332  1.00  0.00    -0.002 A 
HETATM    7  C   UNL     1     -38.293 -49.605  12.356  1.00  0.00     0.030 A 
HETATM    8  C   UNL     1     -37.303 -50.369  11.553  1.00  0.00     0.070 C 
HETATM    9  N   UNL     1     -37.832 -48.707  13.233  1.00  0.00    -0.303 N 
HETATM   10  N   UNL     1     -38.930 -48.148  13.755  1.00  0.00    -0.300 N 
ATOM     11  HN  UNL     1     -36.859 -48.495  13.456  1.00  0.00     0.186 HD
HETATM   12  C   UNL     1     -38.770 -47.077  14.714  1.00  0.00     0.177 C 
HETATM   13  C   UNL     1     -40.097 -48.675  13.265  1.00  0.00     0.033 A 
HETATM   14  C   UNL     1     -41.446 -48.214  13.685  1.00  0.00     0.070 C 
ENDBRANCH   5   6
ENDBRANCH   2   5
BRANCH   1  15
HETATM   15  C   UNL     1     -42.849 -53.388  12.419  1.00  0.00     0.158 C 
BRANCH  15  16
HETATM   16  C   UNL     1     -43.460 -53.240  13.851  1.00  0.00     0.236 C 
HETATM   17  C   UNL     1     -44.023 -54.599  14.303  1.00  0.00     0.044 C 
BRANCH  16  18
HETATM   18  N   UNL     1     -44.514 -52.193  13.888  1.00  0.00     0.094 N 
HETATM   19  C   UNL     1     -45.095 -52.017  15.232  1.00  0.00     0.273 C 
HETATM   20  C   UNL     1     -46.535 -51.561  15.017  1.00  0.00     0.032 C 
HETATM   21  C   UNL     1     -46.707 -51.503  13.512  1.00  0.00     0.032 C 
HETATM   22  C   UNL     1     -45.654 -52.467  13.004  1.00  0.00     0.273 C 
ENDBRANCH  16  18
ENDBRANCH  15  16
ENDBRANCH   1  15
TORSDOF 5
ENDMDL
MODEL 8
REMARK VINA RESULT:      -5.4      2.849      6.726
REMARK  5 active torsions:
REMARK  status: ('A' for Active; 'I' for Inactive)
REMARK    1  A    between atoms: C_2  and  C_3 
REMARK    2  A    between atoms: C_2  and  N_17 
REMARK    3  A    between atoms: C_3  and  N_4 
REMARK       I    between atoms: N_4  and  C_5 
REMARK    4  A    between atoms: C_5  and  C_7 
REMARK    5  A    between atoms: C_7  and  C_8 
ROOT
HETATM    1  N   UNL     1     -43.209 -54.061  13.397  1.00  0.00    -0.359 N 
HETATM    2  C   UNL     1     -43.985 -54.867  14.208  1.00  0.00     0.222 C 
HETATM    3  O   UNL     1     -43.498 -55.636  15.034  1.00  0.00    -0.273 OA
HETATM    4  H   UNL     1     -43.657 -53.656  12.582  1.00  0.00     0.162 HD
ENDROOT
BRANCH   2   5
HETATM    5  C   UNL     1     -45.488 -54.697  14.045  1.00  0.00     0.145 C 
BRANCH   5   6
HETATM    6  C   UNL     1     -46.021 -53.401  14.574  1.00  0.00    -0.002 A 
HETATM    7  C   UNL     1     -46.489 -52.267  13.845  1.00  0.00     0.030 A 
HETATM    8  C   UNL     1     -46.553 -52.027  12.381  1.00  0.00     0.070 C 
HETATM    9  N   UNL     1     -46.964 -51.319  14.659  1.00  0.00    -0.303 N 
HETATM   10  N   UNL     1     -46.830 -51.828  15.889  1.00  0.00    -0.300 N 
ATOM     11  HN  UNL     1     -47.345 -50.409  14.400  1.00  0.00     0.186 HD
HETATM   12  C   UNL     1     -47.313 -51.056  17.013  1.00  0.00     0.177 C 
HETATM   13  C   UNL     1     -46.253 -53.071  15.906  1.00  0.00     0.033 A 
HETATM   14  C   UNL     1     -46.005 -53.845  17.150  1.00  0.00     0.070 C 
ENDBRANCH   5   6
ENDBRANCH   2   5
BRANCH   1  15
HETATM   15  C   UNL     1     -41.759 -54.200  13.363  1.00  0.00     0.158 C 
BRANCH  15  16
HETATM   16  C   UNL     1     -40.947 -52.936  13.801  1.00  0.00     0.236 C 
HETATM   17  C   UNL     1     -40.518 -52.153  12.548  1.00  0.00     0.044 C 
BRANCH  16  18
HETATM   18  N   UNL     1     -39.766 -53.307  14.623  1.00  0.00     0.094 N 
HETATM   19  C   UNL     1     -39.247 -54.649  14.301  1.00  0.00     0.273 C 
HETATM   20  C   UNL     1     -38.629 -55.188  15.588  1.00  0.00     0.032 C 
HETATM   21  C   UNL     1     -38.840 -54.090  16.613  1.00  0.00     0.032 C 
HETATM   22  C   UNL     1     -40.032 -53.329  16.067  1.00  0.00     0.273 C 
ENDBRANCH  16  18
ENDBRANCH  15  16
ENDBRANCH   1  15
TORSDOF 5
ENDMDL
MODEL 9
REMARK VINA RESULT:      -5.3      1.897      2.474
REMARK  5 active torsions:
REMARK  status: ('A' for Active; 'I' for Inactive)
REMARK    1  A    between atoms: C_2  and  C_3 
REMARK    2  A    between atoms: C_2  and  N_17 
REMARK    3  A    between atoms: C_3  and  N_4 
REMARK       I    between atoms: N_4  and  C_5 
REMARK    4  A    between atoms: C_5  and  C_7 
REMARK    5  A    between atoms: C_7  and  C_8 
ROOT
HETATM    1  N   UNL     1     -41.838 -51.505  13.764  1.00  0.00    -0.359 N 
HETATM    2  C   UNL     1     -42.224 -50.478  12.922  1.00  0.00     0.222 C 
HETATM    3  O   UNL     1     -43.241 -49.816  13.114  1.00  0.00    -0.273 OA
HETATM    4  H   UNL     1     -41.149 -52.159  13.409  1.00  0.00     0.162 HD
ENDROOT
BRANCH   2   5
HETATM    5  C   UNL     1     -41.272 -50.190  11.771  1.00  0.00     0.145 C 
BRANCH   5   6
HETATM    6  C   UNL     1     -40.834 -48.760  11.680  1.00  0.00    -0.002 A 
HETATM    7  C   UNL     1     -39.735 -48.123  12.331  1.00  0.00     0.030 A 
HETATM    8  C   UNL     1     -38.745 -48.667  13.296  1.00  0.00     0.070 C 
HETATM    9  N   UNL     1     -39.605 -46.849  11.946  1.00  0.00    -0.303 N 
HETATM   10  N   UNL     1     -40.582 -46.663  11.051  1.00  0.00    -0.300 N 
ATOM     11  HN  UNL     1     -38.915 -46.170  12.266  1.00  0.00     0.186 HD
HETATM   12  C   UNL     1     -40.679 -45.379  10.392  1.00  0.00     0.177 C 
HETATM   13  C   UNL     1     -41.365 -47.771  10.859  1.00  0.00     0.033 A 
HETATM   14  C   UNL     1     -42.508 -47.814   9.910  1.00  0.00     0.070 C 
ENDBRANCH   5   6
ENDBRANCH   2   5
BRANCH   1  15
HETATM   15  C   UNL     1     -42.708 -51.966  14.837  1.00  0.00     0.158 C 
BRANCH  15  16
HETATM   16  C   UNL     1     -43.546 -53.250  14.525  1.00  0.00     0.236 C 
HETATM   17  C   UNL     1     -42.951 -53.954  13.293  1.00  0.00     0.044 C 
BRANCH  16  18
HETATM   18  N   UNL     1     -44.979 -52.923  14.306  1.00  0.00     0.094 N 
HETATM   19  C   UNL     1     -45.296 -52.674  12.887  1.00  0.00     0.273 C 
HETATM   20  C   UNL     1     -46.455 -51.682  12.876  1.00  0.00     0.032 C 
HETATM   21  C   UNL     1     -46.745 -51.404  14.338  1.00  0.00     0.032 C 
HETATM   22  C   UNL     1     -45.430 -51.723  15.021  1.00  0.00     0.273 C 
ENDBRANCH  16  18
ENDBRANCH  15  16
ENDBRANCH   1  15
TORSDOF 5
ENDMDL
