MODEL 1
REMARK VINA RESULT:      -6.4      0.000      0.000
REMARK  4 active torsions:
REMARK  status: ('A' for Active; 'I' for Inactive)
REMARK    1  A    between atoms: C_4  and  N_5 
REMARK       I    between atoms: N_5  and  C_6 
REMARK       I    between atoms: C_6  and  N_8 
REMARK    2  A    between atoms: N_8  and  C_9 
REMARK    3  A    between atoms: C_9  and  C_10 
REMARK    4  A    between atoms: C_10  and  C_11 
ROOT
HETATM    1  N   UNL     1     -40.984 -49.265  10.475  1.00  0.00    -0.293 N 
HETATM    2  C   UNL     1     -41.157 -50.012  11.671  1.00  0.00     0.321 C 
HETATM    3  O   UNL     1     -41.877 -49.646  12.582  1.00  0.00    -0.247 OA
HETATM    4  N   UNL     1     -40.430 -51.166  11.670  1.00  0.00    -0.343 N 
HETATM    5  H   UNL     1     -40.395 -49.638   9.752  1.00  0.00     0.172 HD
HETATM    6  H   UNL     1     -39.742 -51.382  10.965  1.00  0.00     0.164 HD
ENDROOT
BRANCH   1   7
HETATM    7  C   UNL     1     -41.628 -48.042  10.259  1.00  0.00     0.127 A 
HETATM    8  C   UNL     1     -42.812 -47.820   9.589  1.00  0.00     0.076 A 
HETATM    9  C   UNL     1     -43.037 -46.429   9.631  1.00  0.00     0.025 A 
HETATM   10  C   UNL     1     -44.175 -45.685   9.042  1.00  0.00     0.070 C 
HETATM   11  N   UNL     1     -42.062 -45.801  10.293  1.00  0.00    -0.302 N 
HETATM   12  N   UNL     1     -41.222 -46.789  10.665  1.00  0.00    -0.281 N 
ATOM     13  HN  UNL     1     -41.973 -44.801  10.475  1.00  0.00     0.186 HD
HETATM   14  C   UNL     1     -40.044 -46.420  11.409  1.00  0.00     0.179 C 
ENDBRANCH   1   7
BRANCH   4  15
HETATM   15  C   UNL     1     -40.489 -51.980  12.872  1.00  0.00     0.128 C 
BRANCH  15  16
HETATM   16  C   UNL     1     -40.935 -53.425  12.653  1.00  0.00     0.053 C 
BRANCH  16  17
HETATM   17  C   UNL     1     -42.330 -53.737  13.152  1.00  0.00    -0.082 A 
HETATM   18  C   UNL     1     -42.519 -54.549  14.201  1.00  0.00    -0.024 A 
HETATM   19  C   UNL     1     -43.847 -54.987  14.714  1.00  0.00     0.027 A 
HETATM   20  C   UNL     1     -45.082 -54.409  14.033  1.00  0.00     0.004 A 
HETATM   21  C   UNL     1     -44.893 -53.485  12.834  1.00  0.00     0.005 A 
HETATM   22  C   UNL     1     -43.475 -53.169  12.362  1.00  0.00     0.034 A 
ENDBRANCH  16  17
ENDBRANCH  15  16
ENDBRANCH   4  15
TORSDOF 4
ENDMDL
MODEL 2
REMARK VINA RESULT:      -6.4      1.838      2.769
REMARK  4 active torsions:
REMARK  status: ('A' for Active; 'I' for Inactive)
REMARK    1  A    between atoms: C_4  and  N_5 
REMARK       I    between atoms: N_5  and  C_6 
REMARK       I    between atoms: C_6  and  N_8 
REMARK    2  A    between atoms: N_8  and  C_9 
REMARK    3  A    between atoms: C_9  and  C_10 
REMARK    4  A    between atoms: C_10  and  C_11 
ROOT
HETATM    1  N   UNL     1     -40.847 -51.105  11.201  1.00  0.00    -0.293 N 
HETATM    2  C   UNL     1     -41.501 -51.747  12.286  1.00  0.00     0.321 C 
HETATM    3  O   UNL     1     -41.887 -51.149  13.275  1.00  0.00    -0.247 OA
HETATM    4  N   UNL     1     -41.641 -53.089  12.086  1.00  0.00    -0.343 N 
HETATM    5  H   UNL     1     -40.578 -51.654  10.404  1.00  0.00     0.172 HD
HETATM    6  H   UNL     1     -41.198 -53.580  11.324  1.00  0.00     0.164 HD
ENDROOT
BRANCH   1   7
HETATM    7  C   UNL     1     -40.590 -49.730  11.193  1.00  0.00     0.127 A 
HETATM    8  C   UNL     1     -41.450 -48.714  10.835  1.00  0.00     0.076 A 
HETATM    9  C   UNL     1     -40.728 -47.513  10.983  1.00  0.00     0.025 A 
HETATM   10  C   UNL     1     -41.209 -46.137  10.713  1.00  0.00     0.070 C 
HETATM   11  N   UNL     1     -39.486 -47.743  11.416  1.00  0.00    -0.302 N 
HETATM   12  N   UNL     1     -39.421 -49.086  11.538  1.00  0.00    -0.281 N 
ATOM     13  HN  UNL     1     -38.753 -47.060  11.609  1.00  0.00     0.186 HD
HETATM   14  C   UNL     1     -38.177 -49.656  11.991  1.00  0.00     0.179 C 
ENDBRANCH   1   7
BRANCH   4  15
HETATM   15  C   UNL     1     -42.247 -53.854  13.161  1.00  0.00     0.128 C 
BRANCH  15  16
HETATM   16  C   UNL     1     -43.714 -54.220  12.948  1.00  0.00     0.053 C 
BRANCH  16  17
HETATM   17  C   UNL     1     -44.703 -53.230  13.527  1.00  0.00    -0.082 A 
HETATM   18  C   UNL     1     -44.766 -53.015  14.848  1.00  0.00    -0.024 A 
HETATM   19  C   UNL     1     -45.756 -52.130  15.523  1.00  0.00     0.027 A 
HETATM   20  C   UNL     1     -46.725 -51.361  14.633  1.00  0.00     0.004 A 
HETATM   21  C   UNL     1     -46.676 -51.593  13.126  1.00  0.00     0.005 A 
HETATM   22  C   UNL     1     -45.656 -52.582  12.563  1.00  0.00     0.034 A 
ENDBRANCH  16  17
ENDBRANCH  15  16
ENDBRANCH   4  15
TORSDOF 4
ENDMDL
MODEL 3
REMARK VINA RESULT:      -6.1      1.449      2.630
REMARK  4 active torsions:
REMARK  status: ('A' for Active; 'I' for Inactive)
REMARK    1  A    between atoms: C_4  and  N_5 
REMARK       I    between atoms: N_5  and  C_6 
REMARK       I    between atoms: C_6  and  N_8 
REMARK    2  A    between atoms: N_8  and  C_9 
REMARK    3  A    between atoms: C_9  and  C_10 
REMARK    4  A    between atoms: C_10  and  C_11 
ROOT
HETATM    1  N   UNL     1     -41.257 -49.091  10.751  1.00  0.00    -0.293 N 
HETATM    2  C   UNL     1     -41.886 -49.785  11.821  1.00  0.00     0.321 C 
HETATM    3  O   UNL     1     -42.501 -49.218  12.707  1.00  0.00    -0.247 OA
HETATM    4  N   UNL     1     -41.718 -51.135  11.733  1.00  0.00    -0.343 N 
HETATM    5  H   UNL     1     -40.789 -49.622  10.039  1.00  0.00     0.172 HD
HETATM    6  H   UNL     1     -41.097 -51.569  11.067  1.00  0.00     0.164 HD
ENDROOT
BRANCH   1   7
HETATM    7  C   UNL     1     -41.294 -47.697  10.643  1.00  0.00     0.127 A 
HETATM    8  C   UNL     1     -40.352 -46.793  11.084  1.00  0.00     0.076 A 
HETATM    9  C   UNL     1     -40.845 -45.514  10.755  1.00  0.00     0.025 A 
HETATM   10  C   UNL     1     -40.203 -44.207  11.027  1.00  0.00     0.070 C 
HETATM   11  N   UNL     1     -42.025 -45.595  10.134  1.00  0.00    -0.302 N 
HETATM   12  N   UNL     1     -42.279 -46.919  10.075  1.00  0.00    -0.281 N 
ATOM     13  HN  UNL     1     -42.602 -44.829   9.786  1.00  0.00     0.186 HD
HETATM   14  C   UNL     1     -43.511 -47.335   9.452  1.00  0.00     0.179 C 
ENDBRANCH   1   7
BRANCH   4  15
HETATM   15  C   UNL     1     -42.272 -51.938  12.808  1.00  0.00     0.128 C 
BRANCH  15  16
HETATM   16  C   UNL     1     -43.379 -52.904  12.390  1.00  0.00     0.053 C 
BRANCH  16  17
HETATM   17  C   UNL     1     -44.647 -52.807  13.214  1.00  0.00    -0.082 A 
HETATM   18  C   UNL     1     -45.235 -51.623  13.431  1.00  0.00    -0.024 A 
HETATM   19  C   UNL     1     -46.430 -51.409  14.294  1.00  0.00     0.027 A 
HETATM   20  C   UNL     1     -47.069 -52.644  14.918  1.00  0.00     0.004 A 
HETATM   21  C   UNL     1     -46.415 -54.003  14.688  1.00  0.00     0.005 A 
HETATM   22  C   UNL     1     -45.148 -54.078  13.838  1.00  0.00     0.034 A 
ENDBRANCH  16  17
ENDBRANCH  15  16
ENDBRANCH   4  15
TORSDOF 4
ENDMDL
MODEL 4
REMARK VINA RESULT:      -6.0      3.556      4.973
REMARK  4 active torsions:
REMARK  status: ('A' for Active; 'I' for Inactive)
REMARK    1  A    between atoms: C_4  and  N_5 
REMARK       I    between atoms: N_5  and  C_6 
REMARK       I    between atoms: C_6  and  N_8 
REMARK    2  A    between atoms: N_8  and  C_9 
REMARK    3  A    between atoms: C_9  and  C_10 
REMARK    4  A    between atoms: C_10  and  C_11 
ROOT
HETATM    1  N   UNL     1     -41.804 -48.343   9.597  1.00  0.00    -0.293 N 
HETATM    2  C   UNL     1     -41.392 -48.922  10.828  1.00  0.00     0.321 C 
HETATM    3  O   UNL     1     -41.947 -48.692  11.887  1.00  0.00    -0.247 OA
HETATM    4  N   UNL     1     -40.320 -49.751  10.677  1.00  0.00    -0.343 N 
HETATM    5  H   UNL     1     -41.318 -48.597   8.756  1.00  0.00     0.172 HD
HETATM    6  H   UNL     1     -39.797 -49.823   9.817  1.00  0.00     0.164 HD
ENDROOT
BRANCH   1   7
HETATM    7  C   UNL     1     -42.880 -47.454   9.514  1.00  0.00     0.127 A 
HETATM    8  C   UNL     1     -44.142 -47.703   9.016  1.00  0.00     0.076 A 
HETATM    9  C   UNL     1     -44.861 -46.496   9.139  1.00  0.00     0.025 A 
HETATM   10  C   UNL     1     -46.263 -46.242   8.734  1.00  0.00     0.070 C 
HETATM   11  N   UNL     1     -44.110 -45.538   9.688  1.00  0.00    -0.302 N 
HETATM   12  N   UNL     1     -42.920 -46.135   9.909  1.00  0.00    -0.281 N 
ATOM     13  HN  UNL     1     -44.376 -44.575   9.893  1.00  0.00     0.186 HD
HETATM   14  C   UNL     1     -41.874 -45.339  10.503  1.00  0.00     0.179 C 
ENDBRANCH   1   7
BRANCH   4  15
HETATM   15  C   UNL     1     -39.779 -50.353  11.883  1.00  0.00     0.128 C 
BRANCH  15  16
HETATM   16  C   UNL     1     -38.262 -50.261  12.028  1.00  0.00     0.053 C 
BRANCH  16  17
HETATM   17  C   UNL     1     -37.788 -49.641  13.327  1.00  0.00    -0.082 A 
HETATM   18  C   UNL     1     -37.291 -50.402  14.310  1.00  0.00    -0.024 A 
HETATM   19  C   UNL     1     -36.879 -49.902  15.652  1.00  0.00     0.027 A 
HETATM   20  C   UNL     1     -36.968 -48.400  15.893  1.00  0.00     0.004 A 
HETATM   21  C   UNL     1     -37.535 -47.513  14.789  1.00  0.00     0.005 A 
HETATM   22  C   UNL     1     -37.988 -48.160  13.481  1.00  0.00     0.034 A 
ENDBRANCH  16  17
ENDBRANCH  15  16
ENDBRANCH   4  15
TORSDOF 4
ENDMDL
MODEL 5
REMARK VINA RESULT:      -6.0      2.183      7.719
REMARK  4 active torsions:
REMARK  status: ('A' for Active; 'I' for Inactive)
REMARK    1  A    between atoms: C_4  and  N_5 
REMARK       I    between atoms: N_5  and  C_6 
REMARK       I    between atoms: C_6  and  N_8 
REMARK    2  A    between atoms: N_8  and  C_9 
REMARK    3  A    between atoms: C_9  and  C_10 
REMARK    4  A    between atoms: C_10  and  C_11 
ROOT
HETATM    1  N   UNL     1     -42.086 -52.478  11.665  1.00  0.00    -0.293 N 
HETATM    2  C   UNL     1     -41.476 -51.266  12.087  1.00  0.00     0.321 C 
HETATM    3  O   UNL     1     -41.554 -50.847  13.228  1.00  0.00    -0.247 OA
HETATM    4  N   UNL     1     -40.807 -50.643  11.075  1.00  0.00    -0.343 N 
HETATM    5  H   UNL     1     -41.959 -52.779  10.715  1.00  0.00     0.172 HD
HETATM    6  H   UNL     1     -40.868 -50.939  10.112  1.00  0.00     0.164 HD
ENDROOT
BRANCH   1   7
HETATM    7  C   UNL     1     -42.830 -53.281  12.536  1.00  0.00     0.127 A 
HETATM    8  C   UNL     1     -44.196 -53.472  12.544  1.00  0.00     0.076 A 
HETATM    9  C   UNL     1     -44.465 -54.353  13.612  1.00  0.00     0.025 A 
HETATM   10  C   UNL     1     -45.788 -54.862  14.043  1.00  0.00     0.070 C 
HETATM   11  N   UNL     1     -43.343 -54.709  14.241  1.00  0.00    -0.302 N 
HETATM   12  N   UNL     1     -42.368 -54.054  13.578  1.00  0.00    -0.281 N 
ATOM     13  HN  UNL     1     -43.246 -55.334  15.042  1.00  0.00     0.186 HD
HETATM   14  C   UNL     1     -41.012 -54.234  14.035  1.00  0.00     0.179 C 
ENDBRANCH   1   7
BRANCH   4  15
HETATM   15  C   UNL     1     -40.194 -49.363  11.382  1.00  0.00     0.128 C 
BRANCH  15  16
HETATM   16  C   UNL     1     -41.039 -48.140  11.033  1.00  0.00     0.053 C 
BRANCH  16  17
HETATM   17  C   UNL     1     -40.469 -46.820  11.512  1.00  0.00    -0.082 A 
HETATM   18  C   UNL     1     -40.434 -45.754  10.702  1.00  0.00    -0.024 A 
HETATM   19  C   UNL     1     -39.819 -44.441  11.046  1.00  0.00     0.027 A 
HETATM   20  C   UNL     1     -39.249 -44.285  12.451  1.00  0.00     0.004 A 
HETATM   21  C   UNL     1     -39.274 -45.487  13.389  1.00  0.00     0.005 A 
HETATM   22  C   UNL     1     -39.872 -46.802  12.891  1.00  0.00     0.034 A 
ENDBRANCH  16  17
ENDBRANCH  15  16
ENDBRANCH   4  15
TORSDOF 4
ENDMDL
MODEL 6
REMARK VINA RESULT:      -5.9      2.958      6.979
REMARK  4 active torsions:
REMARK  status: ('A' for Active; 'I' for Inactive)
REMARK    1  A    between atoms: C_4  and  N_5 
REMARK       I    between atoms: N_5  and  C_6 
REMARK       I    between atoms: C_6  and  N_8 
REMARK    2  A    between atoms: N_8  and  C_9 
REMARK    3  A    between atoms: C_9  and  C_10 
REMARK    4  A    between atoms: C_10  and  C_11 
ROOT
HETATM    1  N   UNL     1     -42.016 -52.482  11.657  1.00  0.00    -0.293 N 
HETATM    2  C   UNL     1     -41.381 -51.281  12.077  1.00  0.00     0.321 C 
HETATM    3  O   UNL     1     -41.444 -50.863  13.219  1.00  0.00    -0.247 OA
HETATM    4  N   UNL     1     -40.706 -50.670  11.062  1.00  0.00    -0.343 N 
HETATM    5  H   UNL     1     -41.901 -52.783  10.706  1.00  0.00     0.172 HD
HETATM    6  H   UNL     1     -40.778 -50.963  10.100  1.00  0.00     0.164 HD
ENDROOT
BRANCH   1   7
HETATM    7  C   UNL     1     -42.771 -53.271  12.530  1.00  0.00     0.127 A 
HETATM    8  C   UNL     1     -44.139 -53.438  12.545  1.00  0.00     0.076 A 
HETATM    9  C   UNL     1     -44.419 -54.315  13.613  1.00  0.00     0.025 A 
HETATM   10  C   UNL     1     -45.749 -54.801  14.051  1.00  0.00     0.070 C 
HETATM   11  N   UNL     1     -43.301 -54.691  14.238  1.00  0.00    -0.302 N 
HETATM   12  N   UNL     1     -42.317 -54.053  13.570  1.00  0.00    -0.281 N 
ATOM     13  HN  UNL     1     -43.211 -55.318  15.038  1.00  0.00     0.186 HD
HETATM   14  C   UNL     1     -40.963 -54.258  14.020  1.00  0.00     0.179 C 
ENDBRANCH   1   7
BRANCH   4  15
HETATM   15  C   UNL     1     -40.067 -49.402  11.368  1.00  0.00     0.128 C 
BRANCH  15  16
HETATM   16  C   UNL     1     -38.559 -49.477  11.600  1.00  0.00     0.053 C 
BRANCH  16  17
HETATM   17  C   UNL     1     -38.129 -49.259  13.037  1.00  0.00    -0.082 A 
HETATM   18  C   UNL     1     -37.553 -50.245  13.737  1.00  0.00    -0.024 A 
HETATM   19  C   UNL     1     -37.174 -50.160  15.176  1.00  0.00     0.027 A 
HETATM   20  C   UNL     1     -37.398 -48.827  15.878  1.00  0.00     0.004 A 
HETATM   21  C   UNL     1     -38.057 -47.691  15.102  1.00  0.00     0.005 A 
HETATM   22  C   UNL     1     -38.464 -47.928  13.648  1.00  0.00     0.034 A 
ENDBRANCH  16  17
ENDBRANCH  15  16
ENDBRANCH   4  15
TORSDOF 4
ENDMDL
MODEL 7
REMARK VINA RESULT:      -5.9      1.295      2.308
REMARK  4 active torsions:
REMARK  status: ('A' for Active; 'I' for Inactive)
REMARK    1  A    between atoms: C_4  and  N_5 
REMARK       I    between atoms: N_5  and  C_6 
REMARK       I    between atoms: C_6  and  N_8 
REMARK    2  A    between atoms: N_8  and  C_9 
REMARK    3  A    between atoms: C_9  and  C_10 
REMARK    4  A    between atoms: C_10  and  C_11 
ROOT
HETATM    1  N   UNL     1     -41.104 -48.655  10.456  1.00  0.00    -0.293 N 
HETATM    2  C   UNL     1     -41.272 -49.608  11.497  1.00  0.00     0.321 C 
HETATM    3  O   UNL     1     -41.753 -49.329  12.580  1.00  0.00    -0.247 OA
HETATM    4  N   UNL     1     -40.835 -50.850  11.137  1.00  0.00    -0.343 N 
HETATM    5  H   UNL     1     -40.725 -48.960   9.577  1.00  0.00     0.172 HD
HETATM    6  H   UNL     1     -40.322 -51.027  10.287  1.00  0.00     0.164 HD
ENDROOT
BRANCH   1   7
HETATM    7  C   UNL     1     -41.476 -47.315  10.605  1.00  0.00     0.127 A 
HETATM    8  C   UNL     1     -40.658 -46.238  10.872  1.00  0.00     0.076 A 
HETATM    9  C   UNL     1     -41.499 -45.109  10.940  1.00  0.00     0.025 A 
HETATM   10  C   UNL     1     -41.100 -43.708  11.214  1.00  0.00     0.070 C 
HETATM   11  N   UNL     1     -42.774 -45.440  10.723  1.00  0.00    -0.302 N 
HETATM   12  N   UNL     1     -42.741 -46.774  10.522  1.00  0.00    -0.281 N 
ATOM     13  HN  UNL     1     -43.588 -44.825  10.713  1.00  0.00     0.186 HD
HETATM   14  C   UNL     1     -43.992 -47.442  10.262  1.00  0.00     0.179 C 
ENDBRANCH   1   7
BRANCH   4  15
HETATM   15  C   UNL     1     -40.907 -51.890  12.149  1.00  0.00     0.128 C 
BRANCH  15  16
HETATM   16  C   UNL     1     -42.228 -52.653  12.199  1.00  0.00     0.053 C 
BRANCH  16  17
HETATM   17  C   UNL     1     -42.360 -53.612  13.365  1.00  0.00    -0.082 A 
HETATM   18  C   UNL     1     -43.532 -54.197  13.643  1.00  0.00    -0.024 A 
HETATM   19  C   UNL     1     -43.787 -55.084  14.812  1.00  0.00     0.027 A 
HETATM   20  C   UNL     1     -42.604 -55.400  15.719  1.00  0.00     0.004 A 
HETATM   21  C   UNL     1     -41.260 -54.741  15.425  1.00  0.00     0.005 A 
HETATM   22  C   UNL     1     -41.147 -53.793  14.232  1.00  0.00     0.034 A 
ENDBRANCH  16  17
ENDBRANCH  15  16
ENDBRANCH   4  15
TORSDOF 4
ENDMDL
MODEL 8
REMARK VINA RESULT:      -5.7      3.579      6.942
REMARK  4 active torsions:
REMARK  status: ('A' for Active; 'I' for Inactive)
REMARK    1  A    between atoms: C_4  and  N_5 
REMARK       I    between atoms: N_5  and  C_6 
REMARK       I    between atoms: C_6  and  N_8 
REMARK    2  A    between atoms: N_8  and  C_9 
REMARK    3  A    between atoms: C_9  and  C_10 
REMARK    4  A    between atoms: C_10  and  C_11 
ROOT
HETATM    1  N   UNL     1     -44.451 -52.483  12.556  1.00  0.00    -0.293 N 
HETATM    2  C   UNL     1     -43.054 -52.398  12.801  1.00  0.00     0.321 C 
HETATM    3  O   UNL     1     -42.577 -52.392  13.921  1.00  0.00    -0.247 OA
HETATM    4  N   UNL     1     -42.330 -52.324  11.648  1.00  0.00    -0.343 N 
HETATM    5  H   UNL     1     -44.776 -52.510  11.607  1.00  0.00     0.172 HD
HETATM    6  H   UNL     1     -42.752 -52.197  10.741  1.00  0.00     0.164 HD
ENDROOT
BRANCH   1   7
HETATM    7  C   UNL     1     -45.386 -52.561  13.594  1.00  0.00     0.127 A 
HETATM    8  C   UNL     1     -46.000 -51.518  14.255  1.00  0.00     0.076 A 
HETATM    9  C   UNL     1     -46.845 -52.104  15.219  1.00  0.00     0.025 A 
HETATM   10  C   UNL     1     -47.716 -51.403  16.193  1.00  0.00     0.070 C 
HETATM   11  N   UNL     1     -46.783 -53.436  15.174  1.00  0.00    -0.302 N 
HETATM   12  N   UNL     1     -45.899 -53.694  14.187  1.00  0.00    -0.281 N 
ATOM     13  HN  UNL     1     -47.288 -54.107  15.753  1.00  0.00     0.186 HD
HETATM   14  C   UNL     1     -45.609 -55.076  13.894  1.00  0.00     0.179 C 
ENDBRANCH   1   7
BRANCH   4  15
HETATM   15  C   UNL     1     -40.891 -52.175  11.783  1.00  0.00     0.128 C 
BRANCH  15  16
HETATM   16  C   UNL     1     -40.382 -50.736  11.733  1.00  0.00     0.053 C 
BRANCH  16  17
HETATM   17  C   UNL     1     -39.356 -50.391  12.793  1.00  0.00    -0.082 A 
HETATM   18  C   UNL     1     -39.108 -51.230  13.807  1.00  0.00    -0.024 A 
HETATM   19  C   UNL     1     -38.185 -50.949  14.942  1.00  0.00     0.027 A 
HETATM   20  C   UNL     1     -37.415 -49.634  14.904  1.00  0.00     0.004 A 
HETATM   21  C   UNL     1     -37.683 -48.661  13.761  1.00  0.00     0.005 A 
HETATM   22  C   UNL     1     -38.709 -49.039  12.693  1.00  0.00     0.034 A 
ENDBRANCH  16  17
ENDBRANCH  15  16
ENDBRANCH   4  15
TORSDOF 4
ENDMDL
MODEL 9
REMARK VINA RESULT:      -5.5      2.655      6.961
REMARK  4 active torsions:
REMARK  status: ('A' for Active; 'I' for Inactive)
REMARK    1  A    between atoms: C_4  and  N_5 
REMARK       I    between atoms: N_5  and  C_6 
REMARK       I    between atoms: C_6  and  N_8 
REMARK    2  A    between atoms: N_8  and  C_9 
REMARK    3  A    between atoms: C_9  and  C_10 
REMARK    4  A    between atoms: C_10  and  C_11 
ROOT
HETATM    1  N   UNL     1     -42.483 -51.951  11.998  1.00  0.00    -0.293 N 
HETATM    2  C   UNL     1     -42.230 -50.606  12.382  1.00  0.00     0.321 C 
HETATM    3  O   UNL     1     -42.378 -50.203  13.522  1.00  0.00    -0.247 OA
HETATM    4  N   UNL     1     -41.809 -49.839  11.336  1.00  0.00    -0.343 N 
HETATM    5  H   UNL     1     -42.314 -52.222  11.046  1.00  0.00     0.172 HD
HETATM    6  H   UNL     1     -41.821 -50.159  10.380  1.00  0.00     0.164 HD
ENDROOT
BRANCH   1   7
HETATM    7  C   UNL     1     -42.930 -52.914  12.908  1.00  0.00     0.127 A 
HETATM    8  C   UNL     1     -42.167 -53.713  13.732  1.00  0.00     0.076 A 
HETATM    9  C   UNL     1     -43.072 -54.523  14.448  1.00  0.00     0.025 A 
HETATM   10  C   UNL     1     -42.746 -55.560  15.456  1.00  0.00     0.070 C 
HETATM   11  N   UNL     1     -44.335 -54.255  14.109  1.00  0.00    -0.302 N 
HETATM   12  N   UNL     1     -44.230 -53.281  13.181  1.00  0.00    -0.281 N 
ATOM     13  HN  UNL     1     -45.186 -54.687  14.470  1.00  0.00     0.186 HD
HETATM   14  C   UNL     1     -45.450 -52.772  12.606  1.00  0.00     0.179 C 
ENDBRANCH   1   7
BRANCH   4  15
HETATM   15  C   UNL     1     -41.577 -48.431  11.605  1.00  0.00     0.128 C 
BRANCH  15  16
HETATM   16  C   UNL     1     -40.112 -47.999  11.572  1.00  0.00     0.053 C 
BRANCH  16  17
HETATM   17  C   UNL     1     -39.169 -48.901  12.341  1.00  0.00    -0.082 A 
HETATM   18  C   UNL     1     -39.091 -48.832  13.677  1.00  0.00    -0.024 A 
HETATM   19  C   UNL     1     -38.139 -49.611  14.517  1.00  0.00     0.027 A 
HETATM   20  C   UNL     1     -37.236 -50.609  13.803  1.00  0.00     0.004 A 
HETATM   21  C   UNL     1     -37.304 -50.702  12.282  1.00  0.00     0.005 A 
HETATM   22  C   UNL     1     -38.276 -49.796  11.530  1.00  0.00     0.034 A 
ENDBRANCH  16  17
ENDBRANCH  15  16
ENDBRANCH   4  15
TORSDOF 4
ENDMDL
