MODEL 1
REMARK VINA RESULT:      -5.9      0.000      0.000
REMARK  6 active torsions:
REMARK  status: ('A' for Active; 'I' for Inactive)
REMARK    1  A    between atoms: C_2  and  C_4 
REMARK    2  A    between atoms: C_4  and  C_5 
REMARK    3  A    between atoms: C_4  and  N_18 
REMARK    4  A    between atoms: C_5  and  N_6 
REMARK       I    between atoms: N_6  and  C_7 
REMARK    5  A    between atoms: C_7  and  C_9 
REMARK    6  A    between atoms: C_9  and  N_11 
ROOT
HETATM    1  N   UNL     1     -43.115 -50.177  12.440  1.00  0.00    -0.357 N 
HETATM    2  C   UNL     1     -42.422 -49.192  11.759  1.00  0.00     0.242 C 
HETATM    3  O   UNL     1     -41.300 -49.375  11.298  1.00  0.00    -0.271 OA
HETATM    4  H   UNL     1     -44.049 -49.982  12.769  1.00  0.00     0.162 HD
ENDROOT
BRANCH   1   5
HETATM    5  C   UNL     1     -42.597 -51.535  12.495  1.00  0.00     0.159 C 
BRANCH   5   6
HETATM    6  C   UNL     1     -43.370 -52.586  13.376  1.00  0.00     0.244 C 
BRANCH   6   7
HETATM    7  C   UNL     1     -42.326 -53.657  13.912  1.00  0.00     0.012 C 
HETATM    8  C   UNL     1     -41.134 -53.895  12.974  1.00  0.00     0.012 C 
HETATM    9  C   UNL     1     -41.798 -53.349  15.322  1.00  0.00     0.012 C 
ENDBRANCH   6   7
BRANCH   6  10
HETATM   10  N   UNL     1     -44.527 -53.261  12.686  1.00  0.00     0.099 N 
HETATM   11  C   UNL     1     -45.759 -52.448  12.529  1.00  0.00     0.299 C 
HETATM   12  C   UNL     1     -46.470 -52.159  13.866  1.00  0.00     0.198 C 
HETATM   13  O   UNL     1     -46.863 -53.377  14.508  1.00  0.00    -0.388 OA
HETATM   14  C   UNL     1     -45.745 -54.256  14.687  1.00  0.00     0.198 C 
HETATM   15  C   UNL     1     -44.994 -54.505  13.364  1.00  0.00     0.299 C 
ENDBRANCH   6  10
ENDBRANCH   5   6
ENDBRANCH   1   5
BRANCH   2  16
HETATM   16  C   UNL     1     -43.175 -47.880  11.574  1.00  0.00     0.196 C 
HETATM   17  C   UNL     1     -42.336 -46.691  12.037  1.00  0.00     0.044 C 
BRANCH  16  18
HETATM   18  N   UNL     1     -43.574 -47.739  10.183  1.00  0.00    -0.273 N 
HETATM   19  C   UNL     1     -44.795 -47.414   9.675  1.00  0.00     0.202 A 
HETATM   20  N   UNL     1     -44.747 -47.457   8.362  1.00  0.00    -0.346 N 
HETATM   21  C   UNL     1     -43.461 -47.827   8.110  1.00  0.00     0.198 A 
ATOM     22  HN  UNL     1     -45.493 -47.261   7.695  1.00  0.00     0.167 HD
HETATM   23  N   UNL     1     -42.694 -47.994   9.189  1.00  0.00    -0.292 N 
ATOM     24  HN  UNL     1     -41.707 -48.246   9.248  1.00  0.00     0.188 HD
ENDBRANCH  16  18
ENDBRANCH   2  16
TORSDOF 6
ENDMDL
MODEL 2
REMARK VINA RESULT:      -5.9      2.599      3.710
REMARK  6 active torsions:
REMARK  status: ('A' for Active; 'I' for Inactive)
REMARK    1  A    between atoms: C_2  and  C_4 
REMARK    2  A    between atoms: C_4  and  C_5 
REMARK    3  A    between atoms: C_4  and  N_18 
REMARK    4  A    between atoms: C_5  and  N_6 
REMARK       I    between atoms: N_6  and  C_7 
REMARK    5  A    between atoms: C_7  and  C_9 
REMARK    6  A    between atoms: C_9  and  N_11 
ROOT
HETATM    1  N   UNL     1     -41.623 -49.017  11.108  1.00  0.00    -0.357 N 
HETATM    2  C   UNL     1     -41.540 -47.661  10.846  1.00  0.00     0.242 C 
HETATM    3  O   UNL     1     -40.468 -47.078  10.717  1.00  0.00    -0.271 OA
HETATM    4  H   UNL     1     -42.531 -49.450  11.172  1.00  0.00     0.162 HD
ENDROOT
BRANCH   1   5
HETATM    5  C   UNL     1     -40.425 -49.844  11.080  1.00  0.00     0.159 C 
BRANCH   5   6
HETATM    6  C   UNL     1     -39.912 -50.447  12.442  1.00  0.00     0.244 C 
BRANCH   6   7
HETATM    7  C   UNL     1     -38.414 -49.969  12.668  1.00  0.00     0.012 C 
HETATM    8  C   UNL     1     -37.552 -49.980  11.398  1.00  0.00     0.012 C 
HETATM    9  C   UNL     1     -38.303 -48.589  13.335  1.00  0.00     0.012 C 
ENDBRANCH   6   7
BRANCH   6  10
HETATM   10  N   UNL     1     -40.021 -51.945  12.550  1.00  0.00     0.099 N 
HETATM   11  C   UNL     1     -41.310 -52.540  12.114  1.00  0.00     0.299 C 
HETATM   12  C   UNL     1     -42.486 -52.190  13.046  1.00  0.00     0.198 C 
HETATM   13  O   UNL     1     -42.244 -52.667  14.374  1.00  0.00    -0.388 OA
HETATM   14  C   UNL     1     -41.001 -52.171  14.888  1.00  0.00     0.198 C 
HETATM   15  C   UNL     1     -39.827 -52.468  13.934  1.00  0.00     0.299 C 
ENDBRANCH   6  10
ENDBRANCH   5   6
ENDBRANCH   1   5
BRANCH   2  16
HETATM   16  C   UNL     1     -42.879 -46.953  10.674  1.00  0.00     0.196 C 
HETATM   17  C   UNL     1     -42.707 -45.436  10.683  1.00  0.00     0.044 C 
BRANCH  16  18
HETATM   18  N   UNL     1     -43.517 -47.408   9.449  1.00  0.00    -0.273 N 
HETATM   19  C   UNL     1     -44.842 -47.588   9.194  1.00  0.00     0.202 A 
HETATM   20  N   UNL     1     -44.992 -48.073   7.982  1.00  0.00    -0.346 N 
HETATM   21  C   UNL     1     -43.712 -48.183   7.531  1.00  0.00     0.198 A 
ATOM     22  HN  UNL     1     -45.857 -48.310   7.497  1.00  0.00     0.167 HD
HETATM   23  N   UNL     1     -42.770 -47.771   8.383  1.00  0.00    -0.292 N 
ATOM     24  HN  UNL     1     -41.757 -47.739   8.261  1.00  0.00     0.188 HD
ENDBRANCH  16  18
ENDBRANCH   2  16
TORSDOF 6
ENDMDL
MODEL 3
REMARK VINA RESULT:      -5.9      1.462      2.762
REMARK  6 active torsions:
REMARK  status: ('A' for Active; 'I' for Inactive)
REMARK    1  A    between atoms: C_2  and  C_4 
REMARK    2  A    between atoms: C_4  and  C_5 
REMARK    3  A    between atoms: C_4  and  N_18 
REMARK    4  A    between atoms: C_5  and  N_6 
REMARK       I    between atoms: N_6  and  C_7 
REMARK    5  A    between atoms: C_7  and  C_9 
REMARK    6  A    between atoms: C_9  and  N_11 
ROOT
HETATM    1  N   UNL     1     -43.485 -49.732  12.628  1.00  0.00    -0.357 N 
HETATM    2  C   UNL     1     -42.690 -48.928  11.831  1.00  0.00     0.242 C 
HETATM    3  O   UNL     1     -41.586 -49.282  11.429  1.00  0.00    -0.271 OA
HETATM    4  H   UNL     1     -44.398 -49.402  12.902  1.00  0.00     0.162 HD
ENDROOT
BRANCH   1   5
HETATM    5  C   UNL     1     -43.104 -51.112  12.888  1.00  0.00     0.159 C 
BRANCH   5   6
HETATM    6  C   UNL     1     -44.201 -52.083  13.467  1.00  0.00     0.244 C 
BRANCH   6   7
HETATM    7  C   UNL     1     -45.623 -51.399  13.286  1.00  0.00     0.012 C 
HETATM    8  C   UNL     1     -46.509 -52.064  12.223  1.00  0.00     0.012 C 
HETATM    9  C   UNL     1     -46.418 -51.278  14.596  1.00  0.00     0.012 C 
ENDBRANCH   6   7
BRANCH   6  10
HETATM   10  N   UNL     1     -43.983 -52.501  14.898  1.00  0.00     0.099 N 
HETATM   11  C   UNL     1     -42.574 -52.511  15.369  1.00  0.00     0.299 C 
HETATM   12  C   UNL     1     -41.722 -53.614  14.711  1.00  0.00     0.198 C 
HETATM   13  O   UNL     1     -42.258 -54.911  14.996  1.00  0.00    -0.388 OA
HETATM   14  C   UNL     1     -43.633 -55.005  14.603  1.00  0.00     0.198 C 
HETATM   15  C   UNL     1     -44.482 -53.871  15.212  1.00  0.00     0.299 C 
ENDBRANCH   6  10
ENDBRANCH   5   6
ENDBRANCH   1   5
BRANCH   2  16
HETATM   16  C   UNL     1     -43.307 -47.589  11.443  1.00  0.00     0.196 C 
HETATM   17  C   UNL     1     -42.360 -46.432  11.754  1.00  0.00     0.044 C 
BRANCH  16  18
HETATM   18  N   UNL     1     -43.673 -47.612  10.035  1.00  0.00    -0.273 N 
HETATM   19  C   UNL     1     -44.901 -47.451   9.471  1.00  0.00     0.202 A 
HETATM   20  N   UNL     1     -44.808 -47.607   8.169  1.00  0.00    -0.346 N 
HETATM   21  C   UNL     1     -43.486 -47.873   7.982  1.00  0.00     0.198 A 
ATOM     22  HN  UNL     1     -45.547 -47.543   7.470  1.00  0.00     0.167 HD
HETATM   23  N   UNL     1     -42.741 -47.869   9.090  1.00  0.00    -0.292 N 
ATOM     24  HN  UNL     1     -41.737 -48.020   9.195  1.00  0.00     0.188 HD
ENDBRANCH  16  18
ENDBRANCH   2  16
TORSDOF 6
ENDMDL
MODEL 4
REMARK VINA RESULT:      -5.7      2.294      3.505
REMARK  6 active torsions:
REMARK  status: ('A' for Active; 'I' for Inactive)
REMARK    1  A    between atoms: C_2  and  C_4 
REMARK    2  A    between atoms: C_4  and  C_5 
REMARK    3  A    between atoms: C_4  and  N_18 
REMARK    4  A    between atoms: C_5  and  N_6 
REMARK       I    between atoms: N_6  and  C_7 
REMARK    5  A    between atoms: C_7  and  C_9 
REMARK    6  A    between atoms: C_9  and  N_11 
ROOT
HETATM    1  N   UNL     1     -42.456 -49.821  11.911  1.00  0.00    -0.357 N 
HETATM    2  C   UNL     1     -42.026 -48.636  11.340  1.00  0.00     0.242 C 
HETATM    3  O   UNL     1     -40.864 -48.456  10.992  1.00  0.00    -0.271 OA
HETATM    4  H   UNL     1     -43.430 -49.927  12.148  1.00  0.00     0.162 HD
ENDROOT
BRANCH   1   5
HETATM    5  C   UNL     1     -41.566 -50.972  11.970  1.00  0.00     0.159 C 
BRANCH   5   6
HETATM    6  C   UNL     1     -42.041 -52.230  12.790  1.00  0.00     0.244 C 
BRANCH   6   7
HETATM    7  C   UNL     1     -43.626 -52.196  12.887  1.00  0.00     0.012 C 
HETATM    8  C   UNL     1     -44.310 -53.505  12.469  1.00  0.00     0.012 C 
HETATM    9  C   UNL     1     -44.148 -51.780  14.272  1.00  0.00     0.012 C 
ENDBRANCH   6   7
BRANCH   6  10
HETATM   10  N   UNL     1     -41.421 -52.366  14.155  1.00  0.00     0.099 N 
HETATM   11  C   UNL     1     -40.181 -51.582  14.391  1.00  0.00     0.299 C 
HETATM   12  C   UNL     1     -38.976 -52.093  13.577  1.00  0.00     0.198 C 
HETATM   13  O   UNL     1     -38.672 -53.452  13.913  1.00  0.00    -0.388 OA
HETATM   14  C   UNL     1     -39.816 -54.299  13.747  1.00  0.00     0.198 C 
HETATM   15  C   UNL     1     -41.043 -53.764  14.513  1.00  0.00     0.299 C 
ENDBRANCH   6  10
ENDBRANCH   5   6
ENDBRANCH   1   5
BRANCH   2  16
HETATM   16  C   UNL     1     -43.113 -47.590  11.126  1.00  0.00     0.196 C 
HETATM   17  C   UNL     1     -42.610 -46.191  11.473  1.00  0.00     0.044 C 
BRANCH  16  18
HETATM   18  N   UNL     1     -43.590 -47.658   9.753  1.00  0.00    -0.273 N 
HETATM   19  C   UNL     1     -44.865 -47.551   9.288  1.00  0.00     0.202 A 
HETATM   20  N   UNL     1     -44.871 -47.733   7.986  1.00  0.00    -0.346 N 
HETATM   21  C   UNL     1     -43.560 -47.961   7.698  1.00  0.00     0.198 A 
ATOM     22  HN  UNL     1     -45.666 -47.711   7.348  1.00  0.00     0.167 HD
HETATM   23  N   UNL     1     -42.729 -47.907   8.741  1.00  0.00    -0.292 N 
ATOM     24  HN  UNL     1     -41.716 -48.022   8.767  1.00  0.00     0.188 HD
ENDBRANCH  16  18
ENDBRANCH   2  16
TORSDOF 6
ENDMDL
MODEL 5
REMARK VINA RESULT:      -5.6      1.205      1.522
REMARK  6 active torsions:
REMARK  status: ('A' for Active; 'I' for Inactive)
REMARK    1  A    between atoms: C_2  and  C_4 
REMARK    2  A    between atoms: C_4  and  C_5 
REMARK    3  A    between atoms: C_4  and  N_18 
REMARK    4  A    between atoms: C_5  and  N_6 
REMARK       I    between atoms: N_6  and  C_7 
REMARK    5  A    between atoms: C_7  and  C_9 
REMARK    6  A    between atoms: C_9  and  N_11 
ROOT
HETATM    1  N   UNL     1     -42.372 -50.842  12.785  1.00  0.00    -0.357 N 
HETATM    2  C   UNL     1     -41.463 -50.022  12.142  1.00  0.00     0.242 C 
HETATM    3  O   UNL     1     -40.623 -50.455  11.360  1.00  0.00    -0.271 OA
HETATM    4  H   UNL     1     -43.063 -50.428  13.393  1.00  0.00     0.162 HD
ENDROOT
BRANCH   1   5
HETATM    5  C   UNL     1     -42.472 -52.249  12.429  1.00  0.00     0.159 C 
BRANCH   5   6
HETATM    6  C   UNL     1     -43.260 -53.204  13.403  1.00  0.00     0.244 C 
BRANCH   6   7
HETATM    7  C   UNL     1     -42.269 -54.344  13.896  1.00  0.00     0.012 C 
HETATM    8  C   UNL     1     -40.934 -54.387  13.138  1.00  0.00     0.012 C 
HETATM    9  C   UNL     1     -41.986 -54.303  15.405  1.00  0.00     0.012 C 
ENDBRANCH   6   7
BRANCH   6  10
HETATM   10  N   UNL     1     -44.518 -53.797  12.826  1.00  0.00     0.099 N 
HETATM   11  C   UNL     1     -45.601 -52.836  12.495  1.00  0.00     0.299 C 
HETATM   12  C   UNL     1     -46.241 -52.190  13.739  1.00  0.00     0.198 C 
HETATM   13  O   UNL     1     -46.823 -53.186  14.589  1.00  0.00    -0.388 OA
HETATM   14  C   UNL     1     -45.864 -54.188  14.951  1.00  0.00     0.198 C 
HETATM   15  C   UNL     1     -45.178 -54.799  13.713  1.00  0.00     0.299 C 
ENDBRANCH   6  10
ENDBRANCH   5   6
ENDBRANCH   1   5
BRANCH   2  16
HETATM   16  C   UNL     1     -41.614 -48.534  12.434  1.00  0.00     0.196 C 
HETATM   17  C   UNL     1     -40.357 -47.968  13.091  1.00  0.00     0.044 C 
BRANCH  16  18
HETATM   18  N   UNL     1     -41.933 -47.827  11.203  1.00  0.00    -0.273 N 
HETATM   19  C   UNL     1     -41.488 -46.613  10.778  1.00  0.00     0.202 A 
HETATM   20  N   UNL     1     -42.069 -46.309   9.639  1.00  0.00    -0.346 N 
HETATM   21  C   UNL     1     -42.880 -47.379   9.409  1.00  0.00     0.198 A 
ATOM     22  HN  UNL     1     -41.944 -45.475   9.066  1.00  0.00     0.167 HD
HETATM   23  N   UNL     1     -42.821 -48.346  10.326  1.00  0.00    -0.292 N 
ATOM     24  HN  UNL     1     -43.314 -49.239  10.357  1.00  0.00     0.188 HD
ENDBRANCH  16  18
ENDBRANCH   2  16
TORSDOF 6
ENDMDL
MODEL 6
REMARK VINA RESULT:      -5.6      2.046      3.469
REMARK  6 active torsions:
REMARK  status: ('A' for Active; 'I' for Inactive)
REMARK    1  A    between atoms: C_2  and  C_4 
REMARK    2  A    between atoms: C_4  and  C_5 
REMARK    3  A    between atoms: C_4  and  N_18 
REMARK    4  A    between atoms: C_5  and  N_6 
REMARK       I    between atoms: N_6  and  C_7 
REMARK    5  A    between atoms: C_7  and  C_9 
REMARK    6  A    between atoms: C_9  and  N_11 
ROOT
HETATM    1  N   UNL     1     -43.263 -49.512  12.286  1.00  0.00    -0.357 N 
HETATM    2  C   UNL     1     -43.002 -48.153  12.284  1.00  0.00     0.242 C 
HETATM    3  O   UNL     1     -43.204 -47.442  13.263  1.00  0.00    -0.271 OA
HETATM    4  H   UNL     1     -43.046 -50.054  11.463  1.00  0.00     0.162 HD
ENDROOT
BRANCH   1   5
HETATM    5  C   UNL     1     -43.640 -50.185  13.519  1.00  0.00     0.159 C 
BRANCH   5   6
HETATM    6  C   UNL     1     -43.446 -51.746  13.598  1.00  0.00     0.244 C 
BRANCH   6   7
HETATM    7  C   UNL     1     -44.813 -52.398  14.078  1.00  0.00     0.012 C 
HETATM    8  C   UNL     1     -45.896 -51.377  14.457  1.00  0.00     0.012 C 
HETATM    9  C   UNL     1     -45.402 -53.401  13.074  1.00  0.00     0.012 C 
ENDBRANCH   6   7
BRANCH   6  10
HETATM   10  N   UNL     1     -42.301 -52.197  14.466  1.00  0.00     0.099 N 
HETATM   11  C   UNL     1     -40.997 -51.526  14.230  1.00  0.00     0.299 C 
HETATM   12  C   UNL     1     -40.367 -51.887  12.870  1.00  0.00     0.198 C 
HETATM   13  O   UNL     1     -40.125 -53.295  12.777  1.00  0.00    -0.388 OA
HETATM   14  C   UNL     1     -41.321 -54.047  13.017  1.00  0.00     0.198 C 
HETATM   15  C   UNL     1     -41.989 -53.652  14.349  1.00  0.00     0.299 C 
ENDBRANCH   6  10
ENDBRANCH   5   6
ENDBRANCH   1   5
BRANCH   2  16
HETATM   16  C   UNL     1     -42.393 -47.612  10.996  1.00  0.00     0.196 C 
HETATM   17  C   UNL     1     -41.220 -48.474  10.534  1.00  0.00     0.044 C 
BRANCH  16  18
HETATM   18  N   UNL     1     -43.422 -47.522   9.972  1.00  0.00    -0.273 N 
HETATM   19  C   UNL     1     -43.308 -47.716   8.630  1.00  0.00     0.202 A 
HETATM   20  N   UNL     1     -44.464 -47.475   8.053  1.00  0.00    -0.346 N 
HETATM   21  C   UNL     1     -45.264 -47.122   9.097  1.00  0.00     0.198 A 
ATOM     22  HN  UNL     1     -44.704 -47.536   7.064  1.00  0.00     0.167 HD
HETATM   23  N   UNL     1     -44.681 -47.153  10.298  1.00  0.00    -0.292 N 
ATOM     24  HN  UNL     1     -45.079 -46.953  11.215  1.00  0.00     0.188 HD
ENDBRANCH  16  18
ENDBRANCH   2  16
TORSDOF 6
ENDMDL
MODEL 7
REMARK VINA RESULT:      -5.6      2.349      3.921
REMARK  6 active torsions:
REMARK  status: ('A' for Active; 'I' for Inactive)
REMARK    1  A    between atoms: C_2  and  C_4 
REMARK    2  A    between atoms: C_4  and  C_5 
REMARK    3  A    between atoms: C_4  and  N_18 
REMARK    4  A    between atoms: C_5  and  N_6 
REMARK       I    between atoms: N_6  and  C_7 
REMARK    5  A    between atoms: C_7  and  C_9 
REMARK    6  A    between atoms: C_9  and  N_11 
ROOT
HETATM    1  N   UNL     1     -43.521 -49.269  12.139  1.00  0.00    -0.357 N 
HETATM    2  C   UNL     1     -42.480 -48.371  11.986  1.00  0.00     0.242 C 
HETATM    3  O   UNL     1     -41.734 -48.062  12.909  1.00  0.00    -0.271 OA
HETATM    4  H   UNL     1     -44.083 -49.511  11.337  1.00  0.00     0.162 HD
ENDROOT
BRANCH   1   5
HETATM    5  C   UNL     1     -43.671 -50.013  13.381  1.00  0.00     0.159 C 
BRANCH   5   6
HETATM    6  C   UNL     1     -43.394 -51.563  13.352  1.00  0.00     0.244 C 
BRANCH   6   7
HETATM    7  C   UNL     1     -44.755 -52.322  13.659  1.00  0.00     0.012 C 
HETATM    8  C   UNL     1     -45.874 -51.414  14.189  1.00  0.00     0.012 C 
HETATM    9  C   UNL     1     -45.291 -53.131  12.467  1.00  0.00     0.012 C 
ENDBRANCH   6   7
BRANCH   6  10
HETATM   10  N   UNL     1     -42.299 -52.027  14.276  1.00  0.00     0.099 N 
HETATM   11  C   UNL     1     -40.983 -51.355  14.121  1.00  0.00     0.299 C 
HETATM   12  C   UNL     1     -40.279 -51.700  12.794  1.00  0.00     0.198 C 
HETATM   13  O   UNL     1     -40.033 -53.108  12.698  1.00  0.00    -0.388 OA
HETATM   14  C   UNL     1     -41.242 -53.860  12.862  1.00  0.00     0.198 C 
HETATM   15  C   UNL     1     -41.983 -53.480  14.160  1.00  0.00     0.299 C 
ENDBRANCH   6  10
ENDBRANCH   5   6
ENDBRANCH   1   5
BRANCH   2  16
HETATM   16  C   UNL     1     -42.292 -47.834  10.572  1.00  0.00     0.196 C 
HETATM   17  C   UNL     1     -43.636 -47.551   9.904  1.00  0.00     0.044 C 
BRANCH  16  18
HETATM   18  N   UNL     1     -41.456 -46.644  10.610  1.00  0.00    -0.273 N 
HETATM   19  C   UNL     1     -41.836 -45.338  10.656  1.00  0.00     0.202 A 
HETATM   20  N   UNL     1     -40.769 -44.572  10.614  1.00  0.00    -0.346 N 
HETATM   21  C   UNL     1     -39.746 -45.467  10.531  1.00  0.00     0.198 A 
ATOM     22  HN  UNL     1     -40.719 -43.553  10.637  1.00  0.00     0.167 HD
HETATM   23  N   UNL     1     -40.110 -46.751  10.545  1.00  0.00    -0.292 N 
ATOM     24  HN  UNL     1     -39.528 -47.589  10.515  1.00  0.00     0.188 HD
ENDBRANCH  16  18
ENDBRANCH   2  16
TORSDOF 6
ENDMDL
MODEL 8
REMARK VINA RESULT:      -5.4      2.697      3.662
REMARK  6 active torsions:
REMARK  status: ('A' for Active; 'I' for Inactive)
REMARK    1  A    between atoms: C_2  and  C_4 
REMARK    2  A    between atoms: C_4  and  C_5 
REMARK    3  A    between atoms: C_4  and  N_18 
REMARK    4  A    between atoms: C_5  and  N_6 
REMARK       I    between atoms: N_6  and  C_7 
REMARK    5  A    between atoms: C_7  and  C_9 
REMARK    6  A    between atoms: C_9  and  N_11 
ROOT
HETATM    1  N   UNL     1     -42.612 -51.621  12.199  1.00  0.00    -0.357 N 
HETATM    2  C   UNL     1     -41.262 -51.506  11.922  1.00  0.00     0.242 C 
HETATM    3  O   UNL     1     -40.471 -52.426  12.104  1.00  0.00    -0.271 OA
HETATM    4  H   UNL     1     -43.223 -50.843  11.999  1.00  0.00     0.162 HD
ENDROOT
BRANCH   1   5
HETATM    5  C   UNL     1     -43.178 -52.910  12.570  1.00  0.00     0.159 C 
BRANCH   5   6
HETATM    6  C   UNL     1     -43.986 -53.001  13.920  1.00  0.00     0.244 C 
BRANCH   6   7
HETATM    7  C   UNL     1     -43.148 -53.877  14.947  1.00  0.00     0.012 C 
HETATM    8  C   UNL     1     -41.985 -54.651  14.309  1.00  0.00     0.012 C 
HETATM    9  C   UNL     1     -42.617 -53.077  16.147  1.00  0.00     0.012 C 
ENDBRANCH   6   7
BRANCH   6  10
HETATM   10  N   UNL     1     -45.389 -53.529  13.782  1.00  0.00     0.099 N 
HETATM   11  C   UNL     1     -46.385 -52.595  13.196  1.00  0.00     0.299 C 
HETATM   12  C   UNL     1     -46.713 -51.403  14.117  1.00  0.00     0.198 C 
HETATM   13  O   UNL     1     -47.259 -51.855  15.361  1.00  0.00    -0.388 OA
HETATM   14  C   UNL     1     -46.384 -52.791  16.005  1.00  0.00     0.198 C 
HETATM   15  C   UNL     1     -46.005 -53.958  15.072  1.00  0.00     0.299 C 
ENDBRANCH   6  10
ENDBRANCH   5   6
ENDBRANCH   1   5
BRANCH   2  16
HETATM   16  C   UNL     1     -40.836 -50.171  11.322  1.00  0.00     0.196 C 
HETATM   17  C   UNL     1     -41.777 -49.048  11.749  1.00  0.00     0.044 C 
BRANCH  16  18
HETATM   18  N   UNL     1     -39.461 -49.885  11.700  1.00  0.00    -0.273 N 
HETATM   19  C   UNL     1     -39.000 -49.204  12.785  1.00  0.00     0.202 A 
HETATM   20  N   UNL     1     -37.690 -49.114  12.719  1.00  0.00    -0.346 N 
HETATM   21  C   UNL     1     -37.392 -49.755  11.556  1.00  0.00     0.198 A 
ATOM     22  HN  UNL     1     -37.052 -48.671  13.380  1.00  0.00     0.167 HD
HETATM   23  N   UNL     1     -38.439 -50.264  10.901  1.00  0.00    -0.292 N 
ATOM     24  HN  UNL     1     -38.461 -50.796  10.030  1.00  0.00     0.188 HD
ENDBRANCH  16  18
ENDBRANCH   2  16
TORSDOF 6
ENDMDL
MODEL 9
REMARK VINA RESULT:      -5.3      2.913      4.767
REMARK  6 active torsions:
REMARK  status: ('A' for Active; 'I' for Inactive)
REMARK    1  A    between atoms: C_2  and  C_4 
REMARK    2  A    between atoms: C_4  and  C_5 
REMARK    3  A    between atoms: C_4  and  N_18 
REMARK    4  A    between atoms: C_5  and  N_6 
REMARK       I    between atoms: N_6  and  C_7 
REMARK    5  A    between atoms: C_7  and  C_9 
REMARK    6  A    between atoms: C_9  and  N_11 
ROOT
HETATM    1  N   UNL     1     -42.274 -51.045  12.049  1.00  0.00    -0.357 N 
HETATM    2  C   UNL     1     -42.007 -49.697  12.207  1.00  0.00     0.242 C 
HETATM    3  O   UNL     1     -42.432 -49.048  13.158  1.00  0.00    -0.271 OA
HETATM    4  H   UNL     1     -41.872 -51.537  11.265  1.00  0.00     0.162 HD
ENDROOT
BRANCH   1   5
HETATM    5  C   UNL     1     -42.944 -51.789  13.105  1.00  0.00     0.159 C 
BRANCH   5   6
HETATM    6  C   UNL     1     -42.340 -53.182  13.525  1.00  0.00     0.244 C 
BRANCH   6   7
HETATM    7  C   UNL     1     -43.537 -54.203  13.742  1.00  0.00     0.012 C 
HETATM    8  C   UNL     1     -44.187 -54.123  15.131  1.00  0.00     0.012 C 
HETATM    9  C   UNL     1     -44.635 -54.100  12.670  1.00  0.00     0.012 C 
ENDBRANCH   6   7
BRANCH   6  10
HETATM   10  N   UNL     1     -41.441 -53.142  14.733  1.00  0.00     0.099 N 
HETATM   11  C   UNL     1     -40.440 -52.045  14.767  1.00  0.00     0.299 C 
HETATM   12  C   UNL     1     -39.335 -52.199  13.705  1.00  0.00     0.198 C 
HETATM   13  O   UNL     1     -38.610 -53.419  13.895  1.00  0.00    -0.388 OA
HETATM   14  C   UNL     1     -39.489 -54.552  13.906  1.00  0.00     0.198 C 
HETATM   15  C   UNL     1     -40.632 -54.381  14.927  1.00  0.00     0.299 C 
ENDBRANCH   6  10
ENDBRANCH   5   6
ENDBRANCH   1   5
BRANCH   2  16
HETATM   16  C   UNL     1     -41.101 -49.088  11.144  1.00  0.00     0.196 C 
HETATM   17  C   UNL     1     -41.451 -47.623  10.891  1.00  0.00     0.044 C 
BRANCH  16  18
HETATM   18  N   UNL     1     -39.711 -49.240  11.543  1.00  0.00    -0.273 N 
HETATM   19  C   UNL     1     -39.061 -48.678  12.600  1.00  0.00     0.202 A 
HETATM   20  N   UNL     1     -37.793 -49.023  12.566  1.00  0.00    -0.346 N 
HETATM   21  C   UNL     1     -37.711 -49.799  11.450  1.00  0.00     0.198 A 
ATOM     22  HN  UNL     1     -37.051 -48.770  13.218  1.00  0.00     0.167 HD
HETATM   23  N   UNL     1     -38.861 -49.981  10.797  1.00  0.00    -0.292 N 
ATOM     24  HN  UNL     1     -39.049 -50.531   9.958  1.00  0.00     0.188 HD
ENDBRANCH  16  18
ENDBRANCH   2  16
TORSDOF 6
ENDMDL
