MODEL 1
REMARK VINA RESULT:      -6.7      0.000      0.000
REMARK  6 active torsions:
REMARK  status: ('A' for Active; 'I' for Inactive)
REMARK    1  A    between atoms: O_1  and  C_2 
REMARK    2  A    between atoms: C_2  and  C_3 
REMARK    3  A    between atoms: N_12  and  C_13 
REMARK    4  A    between atoms: C_13  and  C_14 
REMARK    5  A    between atoms: C_14  and  O_15 
REMARK    6  A    between atoms: C_14  and  C_16 
ROOT
HETATM    1  C   UNL     1     -39.030 -49.799  12.032  1.00  0.00     0.108 A 
HETATM    2  N   UNL     1     -39.113 -48.621  11.441  1.00  0.00    -0.342 N 
ATOM      3  HN  UNL     1     -38.342 -48.065  11.070  1.00  0.00     0.167 HD
HETATM    4  C   UNL     1     -40.443 -48.297  11.425  1.00  0.00     0.060 A 
HETATM    5  C   UNL     1     -41.078 -47.169  10.884  1.00  0.00     0.032 A 
HETATM    6  C   UNL     1     -42.469 -47.062  10.983  1.00  0.00     0.002 A 
HETATM    7  C   UNL     1     -43.214 -48.056  11.620  1.00  0.00     0.002 A 
HETATM    8  C   UNL     1     -42.596 -49.187  12.167  1.00  0.00     0.032 A 
HETATM    9  C   UNL     1     -41.203 -49.282  12.048  1.00  0.00     0.062 A 
HETATM   10  N   UNL     1     -40.278 -50.232  12.433  1.00  0.00    -0.330 N 
ENDROOT
BRANCH  10  11
HETATM   11  C   UNL     1     -40.602 -51.512  13.045  1.00  0.00     0.167 C 
BRANCH  11  12
HETATM   12  C   UNL     1     -41.399 -52.457  12.128  1.00  0.00     0.169 C 
BRANCH  12  13
HETATM   13  O   UNL     1     -40.525 -53.359  11.447  1.00  0.00    -0.389 OA
HETATM   14  H   UNL     1     -40.235 -54.032  12.086  1.00  0.00     0.210 HD
ENDBRANCH  12  13
BRANCH  12  15
HETATM   15  C   UNL     1     -42.445 -53.300  12.843  1.00  0.00    -0.028 A 
HETATM   16  C   UNL     1     -42.063 -54.060  13.962  1.00  0.00     0.010 A 
HETATM   17  C   UNL     1     -42.994 -54.829  14.663  1.00  0.00     0.001 A 
HETATM   18  C   UNL     1     -44.326 -54.846  14.266  1.00  0.00     0.000 A 
HETATM   19  C   UNL     1     -44.727 -54.086  13.171  1.00  0.00     0.001 A 
HETATM   20  C   UNL     1     -43.798 -53.316  12.466  1.00  0.00     0.010 A 
ENDBRANCH  12  15
ENDBRANCH  11  12
ENDBRANCH  10  11
BRANCH   1  21
HETATM   21  C   UNL     1     -37.759 -50.544  12.250  1.00  0.00     0.240 C 
BRANCH  21  22
HETATM   22  O   UNL     1     -37.409 -51.188  11.032  1.00  0.00    -0.393 OA
HETATM   23  H   UNL     1     -37.114 -52.083  11.270  1.00  0.00     0.209 HD
ENDBRANCH  21  22
ENDBRANCH   1  21
TORSDOF 6
ENDMDL
MODEL 2
REMARK VINA RESULT:      -6.3      2.633      5.195
REMARK  6 active torsions:
REMARK  status: ('A' for Active; 'I' for Inactive)
REMARK    1  A    between atoms: O_1  and  C_2 
REMARK    2  A    between atoms: C_2  and  C_3 
REMARK    3  A    between atoms: N_12  and  C_13 
REMARK    4  A    between atoms: C_13  and  C_14 
REMARK    5  A    between atoms: C_14  and  O_15 
REMARK    6  A    between atoms: C_14  and  C_16 
ROOT
HETATM    1  C   UNL     1     -40.237 -52.188  13.841  1.00  0.00     0.108 A 
HETATM    2  N   UNL     1     -39.865 -53.055  14.765  1.00  0.00    -0.342 N 
ATOM      3  HN  UNL     1     -38.959 -53.104  15.231  1.00  0.00     0.167 HD
HETATM    4  C   UNL     1     -40.941 -53.876  14.971  1.00  0.00     0.060 A 
HETATM    5  C   UNL     1     -41.088 -54.942  15.871  1.00  0.00     0.032 A 
HETATM    6  C   UNL     1     -42.302 -55.637  15.906  1.00  0.00     0.002 A 
HETATM    7  C   UNL     1     -43.348 -55.281  15.053  1.00  0.00     0.002 A 
HETATM    8  C   UNL     1     -43.218 -54.221  14.148  1.00  0.00     0.032 A 
HETATM    9  C   UNL     1     -41.998 -53.531  14.135  1.00  0.00     0.062 A 
HETATM   10  N   UNL     1     -41.524 -52.450  13.417  1.00  0.00    -0.330 N 
ENDROOT
BRANCH  10  11
HETATM   11  C   UNL     1     -42.308 -51.668  12.471  1.00  0.00     0.167 C 
BRANCH  11  12
HETATM   12  C   UNL     1     -43.014 -50.455  13.101  1.00  0.00     0.169 C 
BRANCH  12  13
HETATM   13  O   UNL     1     -43.311 -49.470  12.109  1.00  0.00    -0.389 OA
HETATM   14  H   UNL     1     -42.598 -48.811  12.120  1.00  0.00     0.210 HD
ENDBRANCH  12  13
BRANCH  12  15
HETATM   15  C   UNL     1     -44.319 -50.781  13.814  1.00  0.00    -0.028 A 
HETATM   16  C   UNL     1     -45.406 -51.262  13.064  1.00  0.00     0.010 A 
HETATM   17  C   UNL     1     -46.614 -51.596  13.679  1.00  0.00     0.001 A 
HETATM   18  C   UNL     1     -46.756 -51.467  15.056  1.00  0.00     0.000 A 
HETATM   19  C   UNL     1     -45.684 -51.008  15.818  1.00  0.00     0.001 A 
HETATM   20  C   UNL     1     -44.474 -50.672  15.206  1.00  0.00     0.010 A 
ENDBRANCH  12  15
ENDBRANCH  11  12
ENDBRANCH  10  11
BRANCH   1  21
HETATM   21  C   UNL     1     -39.375 -51.091  13.320  1.00  0.00     0.240 C 
BRANCH  21  22
HETATM   22  O   UNL     1     -38.831 -51.509  12.074  1.00  0.00    -0.393 OA
HETATM   23  H   UNL     1     -39.568 -51.886  11.566  1.00  0.00     0.209 HD
ENDBRANCH  21  22
ENDBRANCH   1  21
TORSDOF 6
ENDMDL
MODEL 3
REMARK VINA RESULT:      -6.2      1.954      5.705
REMARK  6 active torsions:
REMARK  status: ('A' for Active; 'I' for Inactive)
REMARK    1  A    between atoms: O_1  and  C_2 
REMARK    2  A    between atoms: C_2  and  C_3 
REMARK    3  A    between atoms: N_12  and  C_13 
REMARK    4  A    between atoms: C_13  and  C_14 
REMARK    5  A    between atoms: C_14  and  O_15 
REMARK    6  A    between atoms: C_14  and  C_16 
ROOT
HETATM    1  C   UNL     1     -40.774 -54.122  14.060  1.00  0.00     0.108 A 
HETATM    2  N   UNL     1     -41.610 -54.720  14.889  1.00  0.00    -0.342 N 
ATOM      3  HN  UNL     1     -41.371 -55.237  15.735  1.00  0.00     0.167 HD
HETATM    4  C   UNL     1     -42.864 -54.505  14.384  1.00  0.00     0.060 A 
HETATM    5  C   UNL     1     -44.110 -54.898  14.896  1.00  0.00     0.032 A 
HETATM    6  C   UNL     1     -45.271 -54.550  14.196  1.00  0.00     0.002 A 
HETATM    7  C   UNL     1     -45.191 -53.832  13.002  1.00  0.00     0.002 A 
HETATM    8  C   UNL     1     -43.957 -53.434  12.476  1.00  0.00     0.032 A 
HETATM    9  C   UNL     1     -42.806 -53.782  13.197  1.00  0.00     0.062 A 
HETATM   10  N   UNL     1     -41.458 -53.551  13.006  1.00  0.00    -0.330 N 
ENDROOT
BRANCH  10  11
HETATM   11  C   UNL     1     -40.893 -52.741  11.936  1.00  0.00     0.167 C 
BRANCH  11  12
HETATM   12  C   UNL     1     -40.342 -51.383  12.407  1.00  0.00     0.169 C 
BRANCH  12  13
HETATM   13  O   UNL     1     -39.053 -51.137  11.843  1.00  0.00    -0.389 OA
HETATM   14  H   UNL     1     -39.072 -51.428  10.917  1.00  0.00     0.210 HD
ENDBRANCH  12  13
BRANCH  12  15
HETATM   15  C   UNL     1     -41.219 -50.188  12.060  1.00  0.00    -0.028 A 
HETATM   16  C   UNL     1     -40.833 -49.340  11.008  1.00  0.00     0.010 A 
HETATM   17  C   UNL     1     -41.618 -48.246  10.639  1.00  0.00     0.001 A 
HETATM   18  C   UNL     1     -42.810 -47.985  11.307  1.00  0.00     0.000 A 
HETATM   19  C   UNL     1     -43.217 -48.825  12.340  1.00  0.00     0.001 A 
HETATM   20  C   UNL     1     -42.433 -49.920  12.713  1.00  0.00     0.010 A 
ENDBRANCH  12  15
ENDBRANCH  11  12
ENDBRANCH  10  11
BRANCH   1  21
HETATM   21  C   UNL     1     -39.296 -54.087  14.236  1.00  0.00     0.240 C 
BRANCH  21  22
HETATM   22  O   UNL     1     -38.722 -55.044  13.354  1.00  0.00    -0.393 OA
HETATM   23  H   UNL     1     -37.910 -54.642  13.003  1.00  0.00     0.209 HD
ENDBRANCH  21  22
ENDBRANCH   1  21
TORSDOF 6
ENDMDL
MODEL 4
REMARK VINA RESULT:      -6.1      2.756      3.214
REMARK  6 active torsions:
REMARK  status: ('A' for Active; 'I' for Inactive)
REMARK    1  A    between atoms: O_1  and  C_2 
REMARK    2  A    between atoms: C_2  and  C_3 
REMARK    3  A    between atoms: N_12  and  C_13 
REMARK    4  A    between atoms: C_13  and  C_14 
REMARK    5  A    between atoms: C_14  and  O_15 
REMARK    6  A    between atoms: C_14  and  C_16 
ROOT
HETATM    1  C   UNL     1     -41.050 -50.526  11.807  1.00  0.00     0.108 A 
HETATM    2  N   UNL     1     -40.593 -49.645  10.936  1.00  0.00    -0.342 N 
ATOM      3  HN  UNL     1     -39.913 -49.812  10.194  1.00  0.00     0.167 HD
HETATM    4  C   UNL     1     -41.217 -48.462  11.229  1.00  0.00     0.060 A 
HETATM    5  C   UNL     1     -41.115 -47.219  10.587  1.00  0.00     0.032 A 
HETATM    6  C   UNL     1     -41.868 -46.143  11.070  1.00  0.00     0.002 A 
HETATM    7  C   UNL     1     -42.701 -46.301  12.179  1.00  0.00     0.002 A 
HETATM    8  C   UNL     1     -42.813 -47.534  12.832  1.00  0.00     0.032 A 
HETATM    9  C   UNL     1     -42.060 -48.602  12.326  1.00  0.00     0.062 A 
HETATM   10  N   UNL     1     -41.934 -49.930  12.684  1.00  0.00    -0.330 N 
ENDROOT
BRANCH  10  11
HETATM   11  C   UNL     1     -42.703 -50.590  13.730  1.00  0.00     0.167 C 
BRANCH  11  12
HETATM   12  C   UNL     1     -44.139 -50.951  13.313  1.00  0.00     0.169 C 
BRANCH  12  13
HETATM   13  O   UNL     1     -44.166 -52.198  12.615  1.00  0.00    -0.389 OA
HETATM   14  H   UNL     1     -43.268 -52.376  12.290  1.00  0.00     0.210 HD
ENDBRANCH  12  13
BRANCH  12  15
HETATM   15  C   UNL     1     -45.125 -51.063  14.468  1.00  0.00    -0.028 A 
HETATM   16  C   UNL     1     -44.719 -50.665  15.754  1.00  0.00     0.010 A 
HETATM   17  C   UNL     1     -45.597 -50.728  16.838  1.00  0.00     0.001 A 
HETATM   18  C   UNL     1     -46.899 -51.180  16.657  1.00  0.00     0.000 A 
HETATM   19  C   UNL     1     -47.324 -51.561  15.388  1.00  0.00     0.001 A 
HETATM   20  C   UNL     1     -46.448 -51.501  14.300  1.00  0.00     0.010 A 
ENDBRANCH  12  15
ENDBRANCH  11  12
ENDBRANCH  10  11
BRANCH   1  21
HETATM   21  C   UNL     1     -40.649 -51.960  11.844  1.00  0.00     0.240 C 
BRANCH  21  22
HETATM   22  O   UNL     1     -41.571 -52.698  11.053  1.00  0.00    -0.393 OA
HETATM   23  H   UNL     1     -42.448 -52.552  11.446  1.00  0.00     0.209 HD
ENDBRANCH  21  22
ENDBRANCH   1  21
TORSDOF 6
ENDMDL
MODEL 5
REMARK VINA RESULT:      -6.1      2.563      5.623
REMARK  6 active torsions:
REMARK  status: ('A' for Active; 'I' for Inactive)
REMARK    1  A    between atoms: O_1  and  C_2 
REMARK    2  A    between atoms: C_2  and  C_3 
REMARK    3  A    between atoms: N_12  and  C_13 
REMARK    4  A    between atoms: C_13  and  C_14 
REMARK    5  A    between atoms: C_14  and  O_15 
REMARK    6  A    between atoms: C_14  and  C_16 
ROOT
HETATM    1  C   UNL     1     -42.302 -53.301  12.880  1.00  0.00     0.108 A 
HETATM    2  N   UNL     1     -43.450 -53.587  12.293  1.00  0.00    -0.342 N 
ATOM      3  HN  UNL     1     -43.598 -54.231  11.516  1.00  0.00     0.167 HD
HETATM    4  C   UNL     1     -44.401 -52.843  12.938  1.00  0.00     0.060 A 
HETATM    5  C   UNL     1     -45.788 -52.798  12.731  1.00  0.00     0.032 A 
HETATM    6  C   UNL     1     -46.566 -51.955  13.532  1.00  0.00     0.002 A 
HETATM    7  C   UNL     1     -45.972 -51.164  14.516  1.00  0.00     0.002 A 
HETATM    8  C   UNL     1     -44.589 -51.195  14.735  1.00  0.00     0.032 A 
HETATM    9  C   UNL     1     -43.828 -52.054  13.930  1.00  0.00     0.062 A 
HETATM   10  N   UNL     1     -42.483 -52.359  13.872  1.00  0.00    -0.330 N 
ENDROOT
BRANCH  10  11
HETATM   11  C   UNL     1     -41.472 -51.853  14.790  1.00  0.00     0.167 C 
BRANCH  11  12
HETATM   12  C   UNL     1     -40.984 -50.432  14.457  1.00  0.00     0.169 C 
BRANCH  12  13
HETATM   13  O   UNL     1     -40.663 -49.715  15.651  1.00  0.00    -0.389 OA
HETATM   14  H   UNL     1     -40.838 -48.773  15.488  1.00  0.00     0.210 HD
ENDBRANCH  12  13
BRANCH  12  15
HETATM   15  C   UNL     1     -39.757 -50.377  13.558  1.00  0.00    -0.028 A 
HETATM   16  C   UNL     1     -39.718 -49.439  12.511  1.00  0.00     0.010 A 
HETATM   17  C   UNL     1     -38.604 -49.336  11.677  1.00  0.00     0.001 A 
HETATM   18  C   UNL     1     -37.503 -50.162  11.877  1.00  0.00     0.000 A 
HETATM   19  C   UNL     1     -37.516 -51.085  12.920  1.00  0.00     0.001 A 
HETATM   20  C   UNL     1     -38.630 -51.191  13.757  1.00  0.00     0.010 A 
ENDBRANCH  12  15
ENDBRANCH  11  12
ENDBRANCH  10  11
BRANCH   1  21
HETATM   21  C   UNL     1     -40.992 -53.903  12.505  1.00  0.00     0.240 C 
BRANCH  21  22
HETATM   22  O   UNL     1     -40.454 -53.155  11.422  1.00  0.00    -0.393 OA
HETATM   23  H   UNL     1     -41.065 -53.274  10.676  1.00  0.00     0.209 HD
ENDBRANCH  21  22
ENDBRANCH   1  21
TORSDOF 6
ENDMDL
MODEL 6
REMARK VINA RESULT:      -6.0      2.312      5.634
REMARK  6 active torsions:
REMARK  status: ('A' for Active; 'I' for Inactive)
REMARK    1  A    between atoms: O_1  and  C_2 
REMARK    2  A    between atoms: C_2  and  C_3 
REMARK    3  A    between atoms: N_12  and  C_13 
REMARK    4  A    between atoms: C_13  and  C_14 
REMARK    5  A    between atoms: C_14  and  O_15 
REMARK    6  A    between atoms: C_14  and  C_16 
ROOT
HETATM    1  C   UNL     1     -42.295 -53.421  12.956  1.00  0.00     0.108 A 
HETATM    2  N   UNL     1     -43.430 -54.074  12.790  1.00  0.00    -0.342 N 
ATOM      3  HN  UNL     1     -43.550 -55.004  12.387  1.00  0.00     0.167 HD
HETATM    4  C   UNL     1     -44.415 -53.252  13.267  1.00  0.00     0.060 A 
HETATM    5  C   UNL     1     -45.797 -53.476  13.357  1.00  0.00     0.032 A 
HETATM    6  C   UNL     1     -46.613 -52.476  13.897  1.00  0.00     0.002 A 
HETATM    7  C   UNL     1     -46.063 -51.270  14.331  1.00  0.00     0.002 A 
HETATM    8  C   UNL     1     -44.686 -51.028  14.248  1.00  0.00     0.032 A 
HETATM    9  C   UNL     1     -43.884 -52.046  13.714  1.00  0.00     0.062 A 
HETATM   10  N   UNL     1     -42.526 -52.174  13.502  1.00  0.00    -0.330 N 
ENDROOT
BRANCH  10  11
HETATM   11  C   UNL     1     -41.523 -51.198  13.903  1.00  0.00     0.167 C 
BRANCH  11  12
HETATM   12  C   UNL     1     -41.210 -50.145  12.825  1.00  0.00     0.169 C 
BRANCH  12  13
HETATM   13  O   UNL     1     -41.554 -50.632  11.527  1.00  0.00    -0.389 OA
HETATM   14  H   UNL     1     -41.516 -49.884  10.908  1.00  0.00     0.210 HD
ENDBRANCH  12  13
BRANCH  12  15
HETATM   15  C   UNL     1     -41.930 -48.816  13.011  1.00  0.00    -0.028 A 
HETATM   16  C   UNL     1     -42.026 -48.265  14.300  1.00  0.00     0.010 A 
HETATM   17  C   UNL     1     -42.655 -47.037  14.513  1.00  0.00     0.001 A 
HETATM   18  C   UNL     1     -43.192 -46.331  13.442  1.00  0.00     0.000 A 
HETATM   19  C   UNL     1     -43.090 -46.853  12.155  1.00  0.00     0.001 A 
HETATM   20  C   UNL     1     -42.462 -48.083  11.938  1.00  0.00     0.010 A 
ENDBRANCH  12  15
ENDBRANCH  11  12
ENDBRANCH  10  11
BRANCH   1  21
HETATM   21  C   UNL     1     -40.954 -53.954  12.587  1.00  0.00     0.240 C 
BRANCH  21  22
HETATM   22  O   UNL     1     -40.571 -53.372  11.348  1.00  0.00    -0.393 OA
HETATM   23  H   UNL     1     -40.093 -54.061  10.857  1.00  0.00     0.209 HD
ENDBRANCH  21  22
ENDBRANCH   1  21
TORSDOF 6
ENDMDL
MODEL 7
REMARK VINA RESULT:      -6.0      3.969      5.346
REMARK  6 active torsions:
REMARK  status: ('A' for Active; 'I' for Inactive)
REMARK    1  A    between atoms: O_1  and  C_2 
REMARK    2  A    between atoms: C_2  and  C_3 
REMARK    3  A    between atoms: N_12  and  C_13 
REMARK    4  A    between atoms: C_13  and  C_14 
REMARK    5  A    between atoms: C_14  and  O_15 
REMARK    6  A    between atoms: C_14  and  C_16 
ROOT
HETATM    1  C   UNL     1     -42.536 -53.363  13.008  1.00  0.00     0.108 A 
HETATM    2  N   UNL     1     -43.443 -53.081  12.092  1.00  0.00    -0.342 N 
ATOM      3  HN  UNL     1     -43.358 -53.212  11.083  1.00  0.00     0.167 HD
HETATM    4  C   UNL     1     -44.522 -52.577  12.768  1.00  0.00     0.060 A 
HETATM    5  C   UNL     1     -45.764 -52.153  12.272  1.00  0.00     0.032 A 
HETATM    6  C   UNL     1     -46.725 -51.677  13.171  1.00  0.00     0.002 A 
HETATM    7  C   UNL     1     -46.450 -51.615  14.537  1.00  0.00     0.002 A 
HETATM    8  C   UNL     1     -45.215 -52.031  15.048  1.00  0.00     0.032 A 
HETATM    9  C   UNL     1     -44.269 -52.515  14.134  1.00  0.00     0.062 A 
HETATM   10  N   UNL     1     -42.990 -53.019  14.266  1.00  0.00    -0.330 N 
ENDROOT
BRANCH  10  11
HETATM   11  C   UNL     1     -42.310 -53.250  15.532  1.00  0.00     0.167 C 
BRANCH  11  12
HETATM   12  C   UNL     1     -42.545 -54.653  16.119  1.00  0.00     0.169 C 
BRANCH  12  13
HETATM   13  O   UNL     1     -43.310 -55.457  15.219  1.00  0.00    -0.389 OA
HETATM   14  H   UNL     1     -44.225 -55.131  15.232  1.00  0.00     0.210 HD
ENDBRANCH  12  13
BRANCH  12  15
HETATM   15  C   UNL     1     -41.274 -55.426  16.441  1.00  0.00    -0.028 A 
HETATM   16  C   UNL     1     -40.027 -54.835  16.171  1.00  0.00     0.010 A 
HETATM   17  C   UNL     1     -38.836 -55.498  16.472  1.00  0.00     0.001 A 
HETATM   18  C   UNL     1     -38.866 -56.758  17.058  1.00  0.00     0.000 A 
HETATM   19  C   UNL     1     -40.091 -57.352  17.349  1.00  0.00     0.001 A 
HETATM   20  C   UNL     1     -41.286 -56.692  17.048  1.00  0.00     0.010 A 
ENDBRANCH  12  15
ENDBRANCH  11  12
ENDBRANCH  10  11
BRANCH   1  21
HETATM   21  C   UNL     1     -41.200 -53.954  12.717  1.00  0.00     0.240 C 
BRANCH  21  22
HETATM   22  O   UNL     1     -40.716 -53.380  11.509  1.00  0.00    -0.393 OA
HETATM   23  H   UNL     1     -41.146 -53.863  10.785  1.00  0.00     0.209 HD
ENDBRANCH  21  22
ENDBRANCH   1  21
TORSDOF 6
ENDMDL
MODEL 8
REMARK VINA RESULT:      -5.9      1.658      3.453
REMARK  6 active torsions:
REMARK  status: ('A' for Active; 'I' for Inactive)
REMARK    1  A    between atoms: O_1  and  C_2 
REMARK    2  A    between atoms: C_2  and  C_3 
REMARK    3  A    between atoms: N_12  and  C_13 
REMARK    4  A    between atoms: C_13  and  C_14 
REMARK    5  A    between atoms: C_14  and  O_15 
REMARK    6  A    between atoms: C_14  and  C_16 
ROOT
HETATM    1  C   UNL     1     -41.256 -49.053  11.478  1.00  0.00     0.108 A 
HETATM    2  N   UNL     1     -40.053 -48.738  11.036  1.00  0.00    -0.342 N 
ATOM      3  HN  UNL     1     -39.819 -48.014  10.356  1.00  0.00     0.167 HD
HETATM    4  C   UNL     1     -39.181 -49.579  11.675  1.00  0.00     0.060 A 
HETATM    5  C   UNL     1     -37.782 -49.642  11.591  1.00  0.00     0.032 A 
HETATM    6  C   UNL     1     -37.100 -50.594  12.356  1.00  0.00     0.002 A 
HETATM    7  C   UNL     1     -37.800 -51.474  13.183  1.00  0.00     0.002 A 
HETATM    8  C   UNL     1     -39.196 -51.425  13.277  1.00  0.00     0.032 A 
HETATM    9  C   UNL     1     -39.861 -50.458  12.512  1.00  0.00     0.062 A 
HETATM   10  N   UNL     1     -41.189 -50.107  12.367  1.00  0.00    -0.330 N 
ENDROOT
BRANCH  10  11
HETATM   11  C   UNL     1     -42.291 -50.683  13.123  1.00  0.00     0.167 C 
BRANCH  11  12
HETATM   12  C   UNL     1     -42.880 -51.957  12.493  1.00  0.00     0.169 C 
BRANCH  12  13
HETATM   13  O   UNL     1     -42.098 -52.377  11.374  1.00  0.00    -0.389 OA
HETATM   14  H   UNL     1     -42.130 -53.347  11.336  1.00  0.00     0.210 HD
ENDBRANCH  12  13
BRANCH  12  15
HETATM   15  C   UNL     1     -42.981 -53.144  13.441  1.00  0.00    -0.028 A 
HETATM   16  C   UNL     1     -44.200 -53.838  13.540  1.00  0.00     0.010 A 
HETATM   17  C   UNL     1     -44.330 -54.947  14.378  1.00  0.00     0.001 A 
HETATM   18  C   UNL     1     -43.244 -55.391  15.125  1.00  0.00     0.000 A 
HETATM   19  C   UNL     1     -42.025 -54.726  15.026  1.00  0.00     0.001 A 
HETATM   20  C   UNL     1     -41.890 -53.615  14.189  1.00  0.00     0.010 A 
ENDBRANCH  12  15
ENDBRANCH  11  12
ENDBRANCH  10  11
BRANCH   1  21
HETATM   21  C   UNL     1     -42.513 -48.372  11.058  1.00  0.00     0.240 C 
BRANCH  21  22
HETATM   22  O   UNL     1     -42.524 -48.302   9.637  1.00  0.00    -0.393 OA
HETATM   23  H   UNL     1     -43.261 -48.863   9.341  1.00  0.00     0.209 HD
ENDBRANCH  21  22
ENDBRANCH   1  21
TORSDOF 6
ENDMDL
MODEL 9
REMARK VINA RESULT:      -5.8      4.282      6.339
REMARK  6 active torsions:
REMARK  status: ('A' for Active; 'I' for Inactive)
REMARK    1  A    between atoms: O_1  and  C_2 
REMARK    2  A    between atoms: C_2  and  C_3 
REMARK    3  A    between atoms: N_12  and  C_13 
REMARK    4  A    between atoms: C_13  and  C_14 
REMARK    5  A    between atoms: C_14  and  O_15 
REMARK    6  A    between atoms: C_14  and  C_16 
ROOT
HETATM    1  C   UNL     1     -44.391 -54.555  14.319  1.00  0.00     0.108 A 
HETATM    2  N   UNL     1     -43.306 -54.983  14.938  1.00  0.00    -0.342 N 
ATOM      3  HN  UNL     1     -43.262 -55.647  15.711  1.00  0.00     0.167 HD
HETATM    4  C   UNL     1     -42.251 -54.356  14.331  1.00  0.00     0.060 A 
HETATM    5  C   UNL     1     -40.876 -54.482  14.583  1.00  0.00     0.032 A 
HETATM    6  C   UNL     1     -39.976 -53.734  13.816  1.00  0.00     0.002 A 
HETATM    7  C   UNL     1     -40.437 -52.868  12.823  1.00  0.00     0.002 A 
HETATM    8  C   UNL     1     -41.805 -52.729  12.561  1.00  0.00     0.032 A 
HETATM    9  C   UNL     1     -42.691 -53.495  13.331  1.00  0.00     0.062 A 
HETATM   10  N   UNL     1     -44.065 -53.634  13.344  1.00  0.00    -0.330 N 
ENDROOT
BRANCH  10  11
HETATM   11  C   UNL     1     -44.976 -53.002  12.401  1.00  0.00     0.167 C 
BRANCH  11  12
HETATM   12  C   UNL     1     -45.326 -51.545  12.754  1.00  0.00     0.169 C 
BRANCH  12  13
HETATM   13  O   UNL     1     -46.428 -51.085  11.970  1.00  0.00    -0.389 OA
HETATM   14  H   UNL     1     -46.646 -50.184  12.263  1.00  0.00     0.210 HD
ENDBRANCH  12  13
BRANCH  12  15
HETATM   15  C   UNL     1     -45.688 -51.317  14.215  1.00  0.00    -0.028 A 
HETATM   16  C   UNL     1     -44.711 -50.813  15.091  1.00  0.00     0.010 A 
HETATM   17  C   UNL     1     -45.006 -50.565  16.433  1.00  0.00     0.001 A 
HETATM   18  C   UNL     1     -46.284 -50.806  16.924  1.00  0.00     0.000 A 
HETATM   19  C   UNL     1     -47.270 -51.289  16.067  1.00  0.00     0.001 A 
HETATM   20  C   UNL     1     -46.978 -51.539  14.723  1.00  0.00     0.010 A 
ENDBRANCH  12  15
ENDBRANCH  11  12
ENDBRANCH  10  11
BRANCH   1  21
HETATM   21  C   UNL     1     -45.775 -54.995  14.646  1.00  0.00     0.240 C 
BRANCH  21  22
HETATM   22  O   UNL     1     -46.044 -54.645  15.998  1.00  0.00    -0.393 OA
HETATM   23  H   UNL     1     -46.726 -53.954  15.972  1.00  0.00     0.209 HD
ENDBRANCH  21  22
ENDBRANCH   1  21
TORSDOF 6
ENDMDL
