MODEL 1
REMARK VINA RESULT:      -6.2      0.000      0.000
REMARK  5 active torsions:
REMARK  status: ('A' for Active; 'I' for Inactive)
REMARK    1  A    between atoms: C_8  and  C_9 
REMARK    2  A    between atoms: C_9  and  C_10 
REMARK       I    between atoms: C_10  and  N_12 
REMARK    3  A    between atoms: N_12  and  C_13 
REMARK    4  A    between atoms: C_13  and  C_19 
REMARK    5  A    between atoms: C_19  and  O_21 
ROOT
HETATM    1  C   UNL     1     -43.033 -54.098  15.578  1.00  0.00     0.223 C 
HETATM    2  O   UNL     1     -43.360 -55.280  15.677  1.00  0.00    -0.273 OA
HETATM    3  N   UNL     1     -43.910 -53.148  15.101  1.00  0.00    -0.342 N 
HETATM    4  H   UNL     1     -43.722 -52.180  15.341  1.00  0.00     0.163 HD
ENDROOT
BRANCH   3   5
HETATM    5  C   UNL     1     -45.251 -53.449  14.527  1.00  0.00     0.118 C 
HETATM    6  C   UNL     1     -45.916 -52.197  13.901  1.00  0.00     0.042 C 
HETATM    7  C   UNL     1     -46.186 -51.103  14.937  1.00  0.00     0.003 C 
HETATM    8  C   UNL     1     -47.088 -51.607  16.056  1.00  0.00     0.000 C 
HETATM    9  C   UNL     1     -46.546 -52.881  16.693  1.00  0.00     0.003 C 
HETATM   10  C   UNL     1     -46.194 -53.950  15.657  1.00  0.00     0.042 C 
BRANCH   5  11
HETATM   11  C   UNL     1     -45.143 -54.585  13.467  1.00  0.00     0.169 C 
HETATM   12  O   UNL     1     -44.627 -54.455  12.365  1.00  0.00    -0.648 OA
BRANCH  11  13
HETATM   13  O   UNL     1     -45.656 -55.780  13.856  1.00  0.00    -0.775 OA
HETATM   14  H   UNL     1     -45.990 -56.326  13.103  1.00  0.00     0.167 HD
ENDBRANCH  11  13
ENDBRANCH   5  11
ENDBRANCH   3   5
BRANCH   1  15
HETATM   15  C   UNL     1     -41.649 -53.605  15.947  1.00  0.00     0.146 C 
BRANCH  15  16
HETATM   16  C   UNL     1     -40.548 -54.308  15.235  1.00  0.00     0.006 A 
HETATM   17  C   UNL     1     -40.113 -54.189  13.883  1.00  0.00     0.038 A 
HETATM   18  C   UNL     1     -40.656 -53.350  12.785  1.00  0.00     0.071 C 
HETATM   19  N   UNL     1     -39.044 -54.957  13.646  1.00  0.00    -0.265 N 
HETATM   20  O   UNL     1     -38.747 -55.577  14.838  1.00  0.00    -0.242 OA
ATOM     21  HN  UNL     1     -38.549 -55.063  12.761  1.00  0.00     0.194 HD
HETATM   22  C   UNL     1     -39.636 -55.188  15.786  1.00  0.00     0.081 A 
HETATM   23  C   UNL     1     -39.423 -55.735  17.139  1.00  0.00     0.079 C 
ENDBRANCH  15  16
ENDBRANCH   1  15
TORSDOF 5
ENDMDL
MODEL 2
REMARK VINA RESULT:      -6.0      0.599      1.835
REMARK  5 active torsions:
REMARK  status: ('A' for Active; 'I' for Inactive)
REMARK    1  A    between atoms: C_8  and  C_9 
REMARK    2  A    between atoms: C_9  and  C_10 
REMARK       I    between atoms: C_10  and  N_12 
REMARK    3  A    between atoms: N_12  and  C_13 
REMARK    4  A    between atoms: C_13  and  C_19 
REMARK    5  A    between atoms: C_19  and  O_21 
ROOT
HETATM    1  C   UNL     1     -43.023 -54.040  15.636  1.00  0.00     0.223 C 
HETATM    2  O   UNL     1     -43.328 -55.228  15.732  1.00  0.00    -0.273 OA
HETATM    3  N   UNL     1     -43.911 -53.109  15.142  1.00  0.00    -0.342 N 
HETATM    4  H   UNL     1     -43.747 -52.136  15.383  1.00  0.00     0.163 HD
ENDROOT
BRANCH   3   5
HETATM    5  C   UNL     1     -45.236 -53.438  14.545  1.00  0.00     0.118 C 
HETATM    6  C   UNL     1     -45.917 -52.199  13.912  1.00  0.00     0.042 C 
HETATM    7  C   UNL     1     -46.228 -51.113  14.946  1.00  0.00     0.003 C 
HETATM    8  C   UNL     1     -47.136 -51.640  16.050  1.00  0.00     0.000 C 
HETATM    9  C   UNL     1     -46.577 -52.904  16.692  1.00  0.00     0.003 C 
HETATM   10  C   UNL     1     -46.185 -53.962  15.659  1.00  0.00     0.042 C 
BRANCH   5  11
HETATM   11  C   UNL     1     -45.085 -54.569  13.485  1.00  0.00     0.169 C 
HETATM   12  O   UNL     1     -44.548 -54.426  12.395  1.00  0.00    -0.648 OA
BRANCH  11  13
HETATM   13  O   UNL     1     -45.587 -55.772  13.859  1.00  0.00    -0.775 OA
HETATM   14  H   UNL     1     -46.327 -56.084  13.282  1.00  0.00     0.167 HD
ENDBRANCH  11  13
ENDBRANCH   5  11
ENDBRANCH   3   5
BRANCH   1  15
HETATM   15  C   UNL     1     -41.656 -53.519  16.027  1.00  0.00     0.146 C 
BRANCH  15  16
HETATM   16  C   UNL     1     -40.562 -53.949  15.115  1.00  0.00     0.006 A 
HETATM   17  C   UNL     1     -39.530 -54.911  15.318  1.00  0.00     0.038 A 
HETATM   18  C   UNL     1     -39.230 -55.738  16.514  1.00  0.00     0.071 C 
HETATM   19  N   UNL     1     -38.772 -55.050  14.225  1.00  0.00    -0.265 N 
HETATM   20  O   UNL     1     -39.303 -54.201  13.282  1.00  0.00    -0.242 OA
ATOM     21  HN  UNL     1     -37.964 -55.662  14.114  1.00  0.00     0.194 HD
HETATM   22  C   UNL     1     -40.371 -53.550  13.806  1.00  0.00     0.081 A 
HETATM   23  C   UNL     1     -41.080 -52.630  12.897  1.00  0.00     0.079 C 
ENDBRANCH  15  16
ENDBRANCH   1  15
TORSDOF 5
ENDMDL
MODEL 3
REMARK VINA RESULT:      -6.0      2.407      3.011
REMARK  5 active torsions:
REMARK  status: ('A' for Active; 'I' for Inactive)
REMARK    1  A    between atoms: C_8  and  C_9 
REMARK    2  A    between atoms: C_9  and  C_10 
REMARK       I    between atoms: C_10  and  N_12 
REMARK    3  A    between atoms: N_12  and  C_13 
REMARK    4  A    between atoms: C_13  and  C_19 
REMARK    5  A    between atoms: C_19  and  O_21 
ROOT
HETATM    1  C   UNL     1     -43.205 -52.006  13.821  1.00  0.00     0.223 C 
HETATM    2  O   UNL     1     -43.416 -52.379  12.667  1.00  0.00    -0.273 OA
HETATM    3  N   UNL     1     -43.973 -52.456  14.873  1.00  0.00    -0.342 N 
HETATM    4  H   UNL     1     -43.571 -52.390  15.803  1.00  0.00     0.163 HD
ENDROOT
BRANCH   3   5
HETATM    5  C   UNL     1     -45.197 -53.293  14.728  1.00  0.00     0.118 C 
HETATM    6  C   UNL     1     -46.297 -52.583  13.899  1.00  0.00     0.042 C 
HETATM    7  C   UNL     1     -46.794 -51.300  14.571  1.00  0.00     0.003 C 
HETATM    8  C   UNL     1     -47.354 -51.580  15.960  1.00  0.00     0.000 C 
HETATM    9  C   UNL     1     -46.361 -52.339  16.832  1.00  0.00     0.003 C 
HETATM   10  C   UNL     1     -45.795 -53.577  16.134  1.00  0.00     0.042 C 
BRANCH   5  11
HETATM   11  C   UNL     1     -44.840 -54.665  14.082  1.00  0.00     0.169 C 
HETATM   12  O   UNL     1     -44.341 -55.604  14.687  1.00  0.00    -0.648 OA
BRANCH  11  13
HETATM   13  O   UNL     1     -45.142 -54.770  12.764  1.00  0.00    -0.775 OA
HETATM   14  H   UNL     1     -44.503 -54.297  12.176  1.00  0.00     0.167 HD
ENDBRANCH  11  13
ENDBRANCH   5  11
ENDBRANCH   3   5
BRANCH   1  15
HETATM   15  C   UNL     1     -42.112 -51.016  14.166  1.00  0.00     0.146 C 
BRANCH  15  16
HETATM   16  C   UNL     1     -40.953 -51.046  13.234  1.00  0.00     0.006 A 
HETATM   17  C   UNL     1     -40.693 -50.257  12.076  1.00  0.00     0.038 A 
HETATM   18  C   UNL     1     -41.523 -49.198  11.447  1.00  0.00     0.071 C 
HETATM   19  N   UNL     1     -39.504 -50.553  11.541  1.00  0.00    -0.265 N 
HETATM   20  O   UNL     1     -38.954 -51.523  12.347  1.00  0.00    -0.242 OA
ATOM     21  HN  UNL     1     -39.088 -50.143  10.706  1.00  0.00     0.194 HD
HETATM   22  C   UNL     1     -39.811 -51.813  13.358  1.00  0.00     0.081 A 
HETATM   23  C   UNL     1     -39.343 -52.811  14.339  1.00  0.00     0.079 C 
ENDBRANCH  15  16
ENDBRANCH   1  15
TORSDOF 5
ENDMDL
MODEL 4
REMARK VINA RESULT:      -5.9      3.327      4.665
REMARK  5 active torsions:
REMARK  status: ('A' for Active; 'I' for Inactive)
REMARK    1  A    between atoms: C_8  and  C_9 
REMARK    2  A    between atoms: C_9  and  C_10 
REMARK       I    between atoms: C_10  and  N_12 
REMARK    3  A    between atoms: N_12  and  C_13 
REMARK    4  A    between atoms: C_13  and  C_19 
REMARK    5  A    between atoms: C_19  and  O_21 
ROOT
HETATM    1  C   UNL     1     -44.047 -50.766  13.479  1.00  0.00     0.223 C 
HETATM    2  O   UNL     1     -44.884 -50.514  12.612  1.00  0.00    -0.273 OA
HETATM    3  N   UNL     1     -44.194 -51.842  14.327  1.00  0.00    -0.342 N 
HETATM    4  H   UNL     1     -43.356 -52.194  14.780  1.00  0.00     0.163 HD
ENDROOT
BRANCH   3   5
HETATM    5  C   UNL     1     -45.407 -52.703  14.397  1.00  0.00     0.118 C 
HETATM    6  C   UNL     1     -46.692 -51.883  14.678  1.00  0.00     0.042 C 
HETATM    7  C   UNL     1     -46.648 -51.181  16.038  1.00  0.00     0.003 C 
HETATM    8  C   UNL     1     -46.466 -52.180  17.174  1.00  0.00     0.000 C 
HETATM    9  C   UNL     1     -45.257 -53.080  16.952  1.00  0.00     0.003 C 
HETATM   10  C   UNL     1     -45.250 -53.720  15.562  1.00  0.00     0.042 C 
BRANCH   5  11
HETATM   11  C   UNL     1     -45.568 -53.518  13.080  1.00  0.00     0.169 C 
HETATM   12  O   UNL     1     -44.985 -54.567  12.841  1.00  0.00    -0.648 OA
BRANCH  11  13
HETATM   13  O   UNL     1     -46.439 -52.989  12.184  1.00  0.00    -0.775 OA
HETATM   14  H   UNL     1     -46.681 -53.614  11.457  1.00  0.00     0.167 HD
ENDBRANCH  11  13
ENDBRANCH   5  11
ENDBRANCH   3   5
BRANCH   1  15
HETATM   15  C   UNL     1     -42.817 -49.909  13.693  1.00  0.00     0.146 C 
BRANCH  15  16
HETATM   16  C   UNL     1     -42.020 -49.677  12.458  1.00  0.00     0.006 A 
HETATM   17  C   UNL     1     -40.998 -50.477  11.868  1.00  0.00     0.038 A 
HETATM   18  C   UNL     1     -40.412 -51.758  12.335  1.00  0.00     0.071 C 
HETATM   19  N   UNL     1     -40.565 -49.944  10.720  1.00  0.00    -0.265 N 
HETATM   20  O   UNL     1     -41.306 -48.802  10.525  1.00  0.00    -0.242 OA
ATOM     21  HN  UNL     1     -39.834 -50.312  10.111  1.00  0.00     0.194 HD
HETATM   22  C   UNL     1     -42.176 -48.643  11.554  1.00  0.00     0.081 A 
HETATM   23  C   UNL     1     -43.077 -47.479  11.468  1.00  0.00     0.079 C 
ENDBRANCH  15  16
ENDBRANCH   1  15
TORSDOF 5
ENDMDL
MODEL 5
REMARK VINA RESULT:      -5.9      2.153      3.046
REMARK  5 active torsions:
REMARK  status: ('A' for Active; 'I' for Inactive)
REMARK    1  A    between atoms: C_8  and  C_9 
REMARK    2  A    between atoms: C_9  and  C_10 
REMARK       I    between atoms: C_10  and  N_12 
REMARK    3  A    between atoms: N_12  and  C_13 
REMARK    4  A    between atoms: C_13  and  C_19 
REMARK    5  A    between atoms: C_19  and  O_21 
ROOT
HETATM    1  C   UNL     1     -42.997 -52.921  15.194  1.00  0.00     0.223 C 
HETATM    2  O   UNL     1     -42.996 -53.951  15.867  1.00  0.00    -0.273 OA
HETATM    3  N   UNL     1     -44.122 -52.508  14.514  1.00  0.00    -0.342 N 
HETATM    4  H   UNL     1     -44.177 -51.527  14.259  1.00  0.00     0.163 HD
ENDROOT
BRANCH   3   5
HETATM    5  C   UNL     1     -45.375 -53.305  14.392  1.00  0.00     0.118 C 
HETATM    6  C   UNL     1     -46.531 -52.486  13.763  1.00  0.00     0.042 C 
HETATM    7  C   UNL     1     -46.929 -51.285  14.625  1.00  0.00     0.003 C 
HETATM    8  C   UNL     1     -47.362 -51.719  16.019  1.00  0.00     0.000 C 
HETATM    9  C   UNL     1     -46.310 -52.590  16.696  1.00  0.00     0.003 C 
HETATM   10  C   UNL     1     -45.844 -53.744  15.808  1.00  0.00     0.042 C 
BRANCH   5  11
HETATM   11  C   UNL     1     -45.116 -54.595  13.560  1.00  0.00     0.169 C 
HETATM   12  O   UNL     1     -45.470 -55.717  13.897  1.00  0.00    -0.648 OA
BRANCH  11  13
HETATM   13  O   UNL     1     -44.466 -54.396  12.386  1.00  0.00    -0.775 OA
HETATM   14  H   UNL     1     -45.076 -54.250  11.621  1.00  0.00     0.167 HD
ENDBRANCH  11  13
ENDBRANCH   5  11
ENDBRANCH   3   5
BRANCH   1  15
HETATM   15  C   UNL     1     -41.767 -52.050  15.042  1.00  0.00     0.146 C 
BRANCH  15  16
HETATM   16  C   UNL     1     -41.397 -51.768  13.629  1.00  0.00     0.006 A 
HETATM   17  C   UNL     1     -41.017 -52.665  12.588  1.00  0.00     0.038 A 
HETATM   18  C   UNL     1     -40.850 -54.140  12.625  1.00  0.00     0.071 C 
HETATM   19  N   UNL     1     -40.817 -52.017  11.436  1.00  0.00    -0.265 N 
HETATM   20  O   UNL     1     -41.081 -50.691  11.692  1.00  0.00    -0.242 OA
ATOM     21  HN  UNL     1     -40.528 -52.423  10.547  1.00  0.00     0.194 HD
HETATM   22  C   UNL     1     -41.432 -50.541  12.994  1.00  0.00     0.081 A 
HETATM   23  C   UNL     1     -41.790 -49.174  13.416  1.00  0.00     0.079 C 
ENDBRANCH  15  16
ENDBRANCH   1  15
TORSDOF 5
ENDMDL
MODEL 6
REMARK VINA RESULT:      -5.7      2.578      6.104
REMARK  5 active torsions:
REMARK  status: ('A' for Active; 'I' for Inactive)
REMARK    1  A    between atoms: C_8  and  C_9 
REMARK    2  A    between atoms: C_9  and  C_10 
REMARK       I    between atoms: C_10  and  N_12 
REMARK    3  A    between atoms: N_12  and  C_13 
REMARK    4  A    between atoms: C_13  and  C_19 
REMARK    5  A    between atoms: C_19  and  O_21 
ROOT
HETATM    1  C   UNL     1     -42.977 -51.590  13.387  1.00  0.00     0.223 C 
HETATM    2  O   UNL     1     -43.038 -52.048  12.247  1.00  0.00    -0.273 OA
HETATM    3  N   UNL     1     -42.100 -52.099  14.320  1.00  0.00    -0.342 N 
HETATM    4  H   UNL     1     -41.856 -51.501  15.103  1.00  0.00     0.163 HD
ENDROOT
BRANCH   3   5
HETATM    5  C   UNL     1     -41.263 -53.314  14.117  1.00  0.00     0.118 C 
HETATM    6  C   UNL     1     -42.113 -54.556  13.747  1.00  0.00     0.042 C 
HETATM    7  C   UNL     1     -43.085 -54.949  14.863  1.00  0.00     0.003 C 
HETATM    8  C   UNL     1     -42.348 -55.250  16.162  1.00  0.00     0.000 C 
HETATM    9  C   UNL     1     -41.431 -54.105  16.575  1.00  0.00     0.003 C 
HETATM   10  C   UNL     1     -40.514 -53.650  15.437  1.00  0.00     0.042 C 
BRANCH   5  11
HETATM   11  C   UNL     1     -40.188 -53.054  13.020  1.00  0.00     0.169 C 
HETATM   12  O   UNL     1     -39.110 -52.513  13.224  1.00  0.00    -0.648 OA
BRANCH  11  13
HETATM   13  O   UNL     1     -40.521 -53.494  11.780  1.00  0.00    -0.775 OA
HETATM   14  H   UNL     1     -41.305 -53.028  11.397  1.00  0.00     0.167 HD
ENDBRANCH  11  13
ENDBRANCH   5  11
ENDBRANCH   3   5
BRANCH   1  15
HETATM   15  C   UNL     1     -43.869 -50.459  13.856  1.00  0.00     0.146 C 
BRANCH  15  16
HETATM   16  C   UNL     1     -45.094 -50.912  14.568  1.00  0.00     0.006 A 
HETATM   17  C   UNL     1     -45.424 -50.840  15.953  1.00  0.00     0.038 A 
HETATM   18  C   UNL     1     -44.622 -50.321  17.090  1.00  0.00     0.071 C 
HETATM   19  N   UNL     1     -46.655 -51.307  16.186  1.00  0.00    -0.265 N 
HETATM   20  O   UNL     1     -47.162 -51.673  14.961  1.00  0.00    -0.242 OA
ATOM     21  HN  UNL     1     -47.123 -51.377  17.089  1.00  0.00     0.194 HD
HETATM   22  C   UNL     1     -46.239 -51.434  13.997  1.00  0.00     0.081 A 
HETATM   23  C   UNL     1     -46.652 -51.736  12.613  1.00  0.00     0.079 C 
ENDBRANCH  15  16
ENDBRANCH   1  15
TORSDOF 5
ENDMDL
MODEL 7
REMARK VINA RESULT:      -5.7      2.203      3.156
REMARK  5 active torsions:
REMARK  status: ('A' for Active; 'I' for Inactive)
REMARK    1  A    between atoms: C_8  and  C_9 
REMARK    2  A    between atoms: C_9  and  C_10 
REMARK       I    between atoms: C_10  and  N_12 
REMARK    3  A    between atoms: N_12  and  C_13 
REMARK    4  A    between atoms: C_13  and  C_19 
REMARK    5  A    between atoms: C_19  and  O_21 
ROOT
HETATM    1  C   UNL     1     -43.067 -53.051  15.596  1.00  0.00     0.223 C 
HETATM    2  O   UNL     1     -43.132 -54.231  15.936  1.00  0.00    -0.273 OA
HETATM    3  N   UNL     1     -44.204 -52.295  15.405  1.00  0.00    -0.342 N 
HETATM    4  H   UNL     1     -44.104 -51.285  15.452  1.00  0.00     0.163 HD
ENDROOT
BRANCH   3   5
HETATM    5  C   UNL     1     -45.592 -52.834  15.437  1.00  0.00     0.118 C 
HETATM    6  C   UNL     1     -45.787 -54.007  14.442  1.00  0.00     0.042 C 
HETATM    7  C   UNL     1     -45.582 -53.576  12.987  1.00  0.00     0.003 C 
HETATM    8  C   UNL     1     -46.542 -52.459  12.597  1.00  0.00     0.000 C 
HETATM    9  C   UNL     1     -46.469 -51.282  13.562  1.00  0.00     0.003 C 
HETATM   10  C   UNL     1     -46.588 -51.715  15.024  1.00  0.00     0.042 C 
BRANCH   5  11
HETATM   11  C   UNL     1     -45.964 -53.287  16.879  1.00  0.00     0.169 C 
HETATM   12  O   UNL     1     -46.344 -52.532  17.764  1.00  0.00    -0.648 OA
BRANCH  11  13
HETATM   13  O   UNL     1     -45.854 -54.621  17.105  1.00  0.00    -0.775 OA
HETATM   14  H   UNL     1     -45.113 -54.855  17.716  1.00  0.00     0.167 HD
ENDBRANCH  11  13
ENDBRANCH   5  11
ENDBRANCH   3   5
BRANCH   1  15
HETATM   15  C   UNL     1     -41.749 -52.351  15.340  1.00  0.00     0.146 C 
BRANCH  15  16
HETATM   16  C   UNL     1     -41.313 -52.384  13.918  1.00  0.00     0.006 A 
HETATM   17  C   UNL     1     -41.673 -51.533  12.833  1.00  0.00     0.038 A 
HETATM   18  C   UNL     1     -42.615 -50.386  12.804  1.00  0.00     0.071 C 
HETATM   19  N   UNL     1     -41.014 -51.862  11.717  1.00  0.00    -0.265 N 
HETATM   20  O   UNL     1     -40.197 -52.917  12.052  1.00  0.00    -0.242 OA
ATOM     21  HN  UNL     1     -41.099 -51.420  10.802  1.00  0.00     0.194 HD
HETATM   22  C   UNL     1     -40.368 -53.226  13.362  1.00  0.00     0.081 A 
HETATM   23  C   UNL     1     -39.524 -54.316  13.887  1.00  0.00     0.079 C 
ENDBRANCH  15  16
ENDBRANCH   1  15
TORSDOF 5
ENDMDL
MODEL 8
REMARK VINA RESULT:      -5.6      3.577      5.874
REMARK  5 active torsions:
REMARK  status: ('A' for Active; 'I' for Inactive)
REMARK    1  A    between atoms: C_8  and  C_9 
REMARK    2  A    between atoms: C_9  and  C_10 
REMARK       I    between atoms: C_10  and  N_12 
REMARK    3  A    between atoms: N_12  and  C_13 
REMARK    4  A    between atoms: C_13  and  C_19 
REMARK    5  A    between atoms: C_19  and  O_21 
ROOT
HETATM    1  C   UNL     1     -42.374 -52.327  12.452  1.00  0.00     0.223 C 
HETATM    2  O   UNL     1     -41.325 -52.794  12.893  1.00  0.00    -0.273 OA
HETATM    3  N   UNL     1     -42.486 -50.991  12.132  1.00  0.00    -0.342 N 
HETATM    4  H   UNL     1     -43.225 -50.729  11.486  1.00  0.00     0.163 HD
ENDROOT
BRANCH   3   5
HETATM    5  C   UNL     1     -41.445 -49.964  12.414  1.00  0.00     0.118 C 
HETATM    6  C   UNL     1     -41.055 -49.923  13.914  1.00  0.00     0.042 C 
HETATM    7  C   UNL     1     -42.230 -49.525  14.810  1.00  0.00     0.003 C 
HETATM    8  C   UNL     1     -42.785 -48.158  14.428  1.00  0.00     0.000 C 
HETATM    9  C   UNL     1     -43.138 -48.081  12.947  1.00  0.00     0.003 C 
HETATM   10  C   UNL     1     -41.997 -48.558  12.047  1.00  0.00     0.042 C 
BRANCH   5  11
HETATM   11  C   UNL     1     -40.183 -50.219  11.538  1.00  0.00     0.169 C 
HETATM   12  O   UNL     1     -39.099 -50.579  11.976  1.00  0.00    -0.648 OA
BRANCH  11  13
HETATM   13  O   UNL     1     -40.365 -50.027  10.207  1.00  0.00    -0.775 OA
HETATM   14  H   UNL     1     -39.733 -49.374   9.816  1.00  0.00     0.167 HD
ENDBRANCH  11  13
ENDBRANCH   5  11
ENDBRANCH   3   5
BRANCH   1  15
HETATM   15  C   UNL     1     -43.616 -53.170  12.250  1.00  0.00     0.146 C 
BRANCH  15  16
HETATM   16  C   UNL     1     -44.482 -53.266  13.456  1.00  0.00     0.006 A 
HETATM   17  C   UNL     1     -45.715 -52.613  13.748  1.00  0.00     0.038 A 
HETATM   18  C   UNL     1     -46.474 -51.621  12.946  1.00  0.00     0.071 C 
HETATM   19  N   UNL     1     -46.212 -53.015  14.923  1.00  0.00    -0.265 N 
HETATM   20  O   UNL     1     -45.330 -53.951  15.411  1.00  0.00    -0.242 OA
ATOM     21  HN  UNL     1     -47.072 -52.694  15.367  1.00  0.00     0.194 HD
HETATM   22  C   UNL     1     -44.304 -54.107  14.538  1.00  0.00     0.081 A 
HETATM   23  C   UNL     1     -43.290 -55.115  14.901  1.00  0.00     0.079 C 
ENDBRANCH  15  16
ENDBRANCH   1  15
TORSDOF 5
ENDMDL
MODEL 9
REMARK VINA RESULT:      -5.6      1.995      2.656
REMARK  5 active torsions:
REMARK  status: ('A' for Active; 'I' for Inactive)
REMARK    1  A    between atoms: C_8  and  C_9 
REMARK    2  A    between atoms: C_9  and  C_10 
REMARK       I    between atoms: C_10  and  N_12 
REMARK    3  A    between atoms: N_12  and  C_13 
REMARK    4  A    between atoms: C_13  and  C_19 
REMARK    5  A    between atoms: C_19  and  O_21 
ROOT
HETATM    1  C   UNL     1     -42.304 -53.913  14.618  1.00  0.00     0.223 C 
HETATM    2  O   UNL     1     -42.169 -54.605  13.610  1.00  0.00    -0.273 OA
HETATM    3  N   UNL     1     -43.000 -52.724  14.585  1.00  0.00    -0.342 N 
HETATM    4  H   UNL     1     -43.358 -52.371  15.467  1.00  0.00     0.163 HD
ENDROOT
BRANCH   3   5
HETATM    5  C   UNL     1     -43.519 -52.084  13.344  1.00  0.00     0.118 C 
HETATM    6  C   UNL     1     -44.383 -50.833  13.648  1.00  0.00     0.042 C 
HETATM    7  C   UNL     1     -45.641 -51.176  14.451  1.00  0.00     0.003 C 
HETATM    8  C   UNL     1     -46.513 -52.186  13.715  1.00  0.00     0.000 C 
HETATM    9  C   UNL     1     -45.728 -53.430  13.315  1.00  0.00     0.003 C 
HETATM   10  C   UNL     1     -44.427 -53.093  12.586  1.00  0.00     0.042 C 
BRANCH   5  11
HETATM   11  C   UNL     1     -42.342 -51.706  12.398  1.00  0.00     0.169 C 
HETATM   12  O   UNL     1     -41.628 -50.723  12.542  1.00  0.00    -0.648 OA
BRANCH  11  13
HETATM   13  O   UNL     1     -42.133 -52.571  11.374  1.00  0.00    -0.775 OA
HETATM   14  H   UNL     1     -42.546 -52.279  10.524  1.00  0.00     0.167 HD
ENDBRANCH  11  13
ENDBRANCH   5  11
ENDBRANCH   3   5
BRANCH   1  15
HETATM   15  C   UNL     1     -41.702 -54.298  15.953  1.00  0.00     0.146 C 
BRANCH  15  16
HETATM   16  C   UNL     1     -40.368 -54.949  15.850  1.00  0.00     0.006 A 
HETATM   17  C   UNL     1     -39.192 -54.517  15.171  1.00  0.00     0.038 A 
HETATM   18  C   UNL     1     -38.970 -53.305  14.342  1.00  0.00     0.071 C 
HETATM   19  N   UNL     1     -38.176 -55.364  15.369  1.00  0.00    -0.265 N 
HETATM   20  O   UNL     1     -38.659 -56.353  16.194  1.00  0.00    -0.242 OA
ATOM     21  HN  UNL     1     -37.234 -55.291  14.985  1.00  0.00     0.194 HD
HETATM   22  C   UNL     1     -39.960 -56.105  16.487  1.00  0.00     0.081 A 
HETATM   23  C   UNL     1     -40.611 -57.059  17.404  1.00  0.00     0.079 C 
ENDBRANCH  15  16
ENDBRANCH   1  15
TORSDOF 5
ENDMDL
