MODEL 1
REMARK VINA RESULT:      -6.0      0.000      0.000
REMARK  3 active torsions:
REMARK  status: ('A' for Active; 'I' for Inactive)
REMARK    1  A    between atoms: C_4  and  N_5 
REMARK       I    between atoms: N_5  and  C_6 
REMARK       I    between atoms: C_6  and  N_8 
REMARK    2  A    between atoms: N_8  and  C_9 
REMARK    3  A    between atoms: C_9  and  C_10 
ROOT
HETATM    1  N   UNL     1     -40.760 -49.453  10.418  1.00  0.00    -0.293 N 
HETATM    2  C   UNL     1     -41.716 -48.424  10.640  1.00  0.00     0.321 C 
HETATM    3  O   UNL     1     -41.995 -48.003  11.747  1.00  0.00    -0.247 OA
HETATM    4  N   UNL     1     -42.253 -47.980   9.467  1.00  0.00    -0.342 N 
HETATM    5  H   UNL     1     -40.599 -49.771   9.478  1.00  0.00     0.172 HD
HETATM    6  H   UNL     1     -41.923 -48.300   8.570  1.00  0.00     0.164 HD
ENDROOT
BRANCH   1   7
HETATM    7  C   UNL     1     -40.046 -50.056  11.456  1.00  0.00     0.127 A 
HETATM    8  C   UNL     1     -38.831 -49.669  11.981  1.00  0.00     0.076 A 
HETATM    9  C   UNL     1     -38.542 -50.585  13.014  1.00  0.00     0.025 A 
HETATM   10  C   UNL     1     -37.352 -50.597  13.900  1.00  0.00     0.070 C 
HETATM   11  N   UNL     1     -39.503 -51.506  13.131  1.00  0.00    -0.302 N 
HETATM   12  N   UNL     1     -40.398 -51.173  12.182  1.00  0.00    -0.281 N 
ATOM     13  HN  UNL     1     -39.548 -52.285  13.789  1.00  0.00     0.186 HD
HETATM   14  C   UNL     1     -41.577 -51.997  12.056  1.00  0.00     0.179 C 
ENDBRANCH   1   7
BRANCH   4  15
HETATM   15  C   UNL     1     -43.190 -46.873   9.532  1.00  0.00     0.131 C 
BRANCH  15  16
HETATM   16  C   UNL     1     -44.444 -47.079   8.700  1.00  0.00     0.029 C 
HETATM   17  C   UNL     1     -45.653 -47.540   9.494  1.00  0.00     0.034 C 
HETATM   18  C   UNL     1     -46.411 -48.444   8.538  1.00  0.00     0.168 C 
HETATM   19  O   UNL     1     -45.604 -48.610   7.368  1.00  0.00    -0.391 OA
HETATM   20  C   UNL     1     -44.276 -48.197   7.688  1.00  0.00     0.173 C 
ENDBRANCH  15  16
ENDBRANCH   4  15
TORSDOF 3
ENDMDL
MODEL 2
REMARK VINA RESULT:      -5.9      3.447      5.867
REMARK  3 active torsions:
REMARK  status: ('A' for Active; 'I' for Inactive)
REMARK    1  A    between atoms: C_4  and  N_5 
REMARK       I    between atoms: N_5  and  C_6 
REMARK       I    between atoms: C_6  and  N_8 
REMARK    2  A    between atoms: N_8  and  C_9 
REMARK    3  A    between atoms: C_9  and  C_10 
ROOT
HETATM    1  N   UNL     1     -40.845 -51.088  11.217  1.00  0.00    -0.293 N 
HETATM    2  C   UNL     1     -41.140 -51.803  12.410  1.00  0.00     0.321 C 
HETATM    3  O   UNL     1     -41.143 -51.285  13.512  1.00  0.00    -0.247 OA
HETATM    4  N   UNL     1     -41.422 -53.112  12.152  1.00  0.00    -0.342 N 
HETATM    5  H   UNL     1     -40.835 -51.586  10.344  1.00  0.00     0.172 HD
HETATM    6  H   UNL     1     -41.494 -53.470  11.212  1.00  0.00     0.164 HD
ENDROOT
BRANCH   1   7
HETATM    7  C   UNL     1     -40.549 -49.723  11.209  1.00  0.00     0.127 A 
HETATM    8  C   UNL     1     -41.404 -48.676  10.935  1.00  0.00     0.076 A 
HETATM    9  C   UNL     1     -40.638 -47.500  11.069  1.00  0.00     0.025 A 
HETATM   10  C   UNL     1     -41.096 -46.101  10.891  1.00  0.00     0.070 C 
HETATM   11  N   UNL     1     -39.372 -47.778  11.394  1.00  0.00    -0.302 N 
HETATM   12  N   UNL     1     -39.337 -49.122  11.470  1.00  0.00    -0.281 N 
ATOM     13  HN  UNL     1     -38.605 -47.122  11.548  1.00  0.00     0.186 HD
HETATM   14  C   UNL     1     -38.078 -49.741  11.811  1.00  0.00     0.179 C 
ENDBRANCH   1   7
BRANCH   4  15
HETATM   15  C   UNL     1     -41.820 -53.948  13.269  1.00  0.00     0.131 C 
BRANCH  15  16
HETATM   16  C   UNL     1     -43.281 -53.803  13.657  1.00  0.00     0.029 C 
HETATM   17  C   UNL     1     -43.856 -54.999  14.394  1.00  0.00     0.034 C 
HETATM   18  C   UNL     1     -45.304 -55.062  13.942  1.00  0.00     0.168 C 
HETATM   19  O   UNL     1     -45.478 -54.086  12.909  1.00  0.00    -0.391 OA
HETATM   20  C   UNL     1     -44.184 -53.707  12.441  1.00  0.00     0.173 C 
ENDBRANCH  15  16
ENDBRANCH   4  15
TORSDOF 3
ENDMDL
MODEL 3
REMARK VINA RESULT:      -5.7      3.277      5.734
REMARK  3 active torsions:
REMARK  status: ('A' for Active; 'I' for Inactive)
REMARK    1  A    between atoms: C_4  and  N_5 
REMARK       I    between atoms: N_5  and  C_6 
REMARK       I    between atoms: C_6  and  N_8 
REMARK    2  A    between atoms: N_8  and  C_9 
REMARK    3  A    between atoms: C_9  and  C_10 
ROOT
HETATM    1  N   UNL     1     -42.027 -49.313  11.235  1.00  0.00    -0.293 N 
HETATM    2  C   UNL     1     -42.776 -49.565  12.416  1.00  0.00     0.321 C 
HETATM    3  O   UNL     1     -43.146 -48.684  13.170  1.00  0.00    -0.247 OA
HETATM    4  N   UNL     1     -43.025 -50.897  12.576  1.00  0.00    -0.342 N 
HETATM    5  H   UNL     1     -41.732 -50.092  10.672  1.00  0.00     0.172 HD
HETATM    6  H   UNL     1     -42.773 -51.577  11.876  1.00  0.00     0.164 HD
ENDROOT
BRANCH   1   7
HETATM    7  C   UNL     1     -41.666 -48.026  10.830  1.00  0.00     0.127 A 
HETATM    8  C   UNL     1     -40.579 -47.284  11.246  1.00  0.00     0.076 A 
HETATM    9  C   UNL     1     -40.646 -46.065  10.541  1.00  0.00     0.025 A 
HETATM   10  C   UNL     1     -39.699 -44.926  10.622  1.00  0.00     0.070 C 
HETATM   11  N   UNL     1     -41.713 -46.024   9.739  1.00  0.00    -0.302 N 
HETATM   12  N   UNL     1     -42.316 -47.212   9.929  1.00  0.00    -0.281 N 
ATOM     13  HN  UNL     1     -42.005 -45.265   9.122  1.00  0.00     0.186 HD
HETATM   14  C   UNL     1     -43.525 -47.476   9.184  1.00  0.00     0.179 C 
ENDBRANCH   1   7
BRANCH   4  15
HETATM   15  C   UNL     1     -43.850 -51.298  13.701  1.00  0.00     0.131 C 
BRANCH  15  16
HETATM   16  C   UNL     1     -44.845 -52.397  13.373  1.00  0.00     0.029 C 
HETATM   17  C   UNL     1     -45.291 -53.216  14.570  1.00  0.00     0.034 C 
HETATM   18  C   UNL     1     -45.506 -54.613  14.014  1.00  0.00     0.168 C 
HETATM   19  O   UNL     1     -45.054 -54.613  12.657  1.00  0.00    -0.391 OA
HETATM   20  C   UNL     1     -44.244 -53.453  12.463  1.00  0.00     0.173 C 
ENDBRANCH  15  16
ENDBRANCH   4  15
TORSDOF 3
ENDMDL
MODEL 4
REMARK VINA RESULT:      -5.6      2.946      5.027
REMARK  3 active torsions:
REMARK  status: ('A' for Active; 'I' for Inactive)
REMARK    1  A    between atoms: C_4  and  N_5 
REMARK       I    between atoms: N_5  and  C_6 
REMARK       I    between atoms: C_6  and  N_8 
REMARK    2  A    between atoms: N_8  and  C_9 
REMARK    3  A    between atoms: C_9  and  C_10 
ROOT
HETATM    1  N   UNL     1     -42.095 -52.337  11.654  1.00  0.00    -0.293 N 
HETATM    2  C   UNL     1     -41.516 -51.118  12.100  1.00  0.00     0.321 C 
HETATM    3  O   UNL     1     -41.597 -50.724  13.248  1.00  0.00    -0.247 OA
HETATM    4  N   UNL     1     -40.864 -50.475  11.088  1.00  0.00    -0.342 N 
HETATM    5  H   UNL     1     -42.012 -52.587  10.684  1.00  0.00     0.172 HD
HETATM    6  H   UNL     1     -40.751 -50.887  10.176  1.00  0.00     0.164 HD
ENDROOT
BRANCH   1   7
HETATM    7  C   UNL     1     -42.794 -53.196  12.505  1.00  0.00     0.127 A 
HETATM    8  C   UNL     1     -44.154 -53.428  12.539  1.00  0.00     0.076 A 
HETATM    9  C   UNL     1     -44.362 -54.382  13.557  1.00  0.00     0.025 A 
HETATM   10  C   UNL     1     -45.652 -54.976  13.983  1.00  0.00     0.070 C 
HETATM   11  N   UNL     1     -43.212 -54.726  14.144  1.00  0.00    -0.302 N 
HETATM   12  N   UNL     1     -42.281 -53.999  13.499  1.00  0.00    -0.281 N 
ATOM     13  HN  UNL     1     -43.072 -55.388  14.908  1.00  0.00     0.186 HD
HETATM   14  C   UNL     1     -40.906 -54.154  13.914  1.00  0.00     0.179 C 
ENDBRANCH   1   7
BRANCH   4  15
HETATM   15  C   UNL     1     -40.155 -49.251  11.415  1.00  0.00     0.131 C 
BRANCH  15  16
HETATM   16  C   UNL     1     -41.034 -48.012  11.414  1.00  0.00     0.029 C 
HETATM   17  C   UNL     1     -42.093 -47.996  10.328  1.00  0.00     0.034 C 
HETATM   18  C   UNL     1     -42.226 -46.531   9.951  1.00  0.00     0.168 C 
HETATM   19  O   UNL     1     -41.205 -45.810  10.647  1.00  0.00    -0.391 OA
HETATM   20  C   UNL     1     -40.240 -46.754  11.112  1.00  0.00     0.173 C 
ENDBRANCH  15  16
ENDBRANCH   4  15
TORSDOF 3
ENDMDL
MODEL 5
REMARK VINA RESULT:      -5.5      3.771      6.451
REMARK  3 active torsions:
REMARK  status: ('A' for Active; 'I' for Inactive)
REMARK    1  A    between atoms: C_4  and  N_5 
REMARK       I    between atoms: N_5  and  C_6 
REMARK       I    between atoms: C_6  and  N_8 
REMARK    2  A    between atoms: N_8  and  C_9 
REMARK    3  A    between atoms: C_9  and  C_10 
ROOT
HETATM    1  N   UNL     1     -41.923 -52.583  11.804  1.00  0.00    -0.293 N 
HETATM    2  C   UNL     1     -41.607 -51.227  12.088  1.00  0.00     0.321 C 
HETATM    3  O   UNL     1     -42.018 -50.640  13.071  1.00  0.00    -0.247 OA
HETATM    4  N   UNL     1     -40.791 -50.693  11.134  1.00  0.00    -0.342 N 
HETATM    5  H   UNL     1     -41.570 -52.997  10.958  1.00  0.00     0.172 HD
HETATM    6  H   UNL     1     -40.407 -51.248  10.385  1.00  0.00     0.164 HD
ENDROOT
BRANCH   1   7
HETATM    7  C   UNL     1     -42.722 -53.363  12.643  1.00  0.00     0.127 A 
HETATM    8  C   UNL     1     -44.075 -53.607  12.533  1.00  0.00     0.076 A 
HETATM    9  C   UNL     1     -44.407 -54.459  13.606  1.00  0.00     0.025 A 
HETATM   10  C   UNL     1     -45.741 -55.025  13.928  1.00  0.00     0.070 C 
HETATM   11  N   UNL     1     -43.339 -54.731  14.361  1.00  0.00    -0.302 N 
HETATM   12  N   UNL     1     -42.335 -54.059  13.767  1.00  0.00    -0.281 N 
ATOM     13  HN  UNL     1     -43.294 -55.314  15.197  1.00  0.00     0.186 HD
HETATM   14  C   UNL     1     -41.022 -54.157  14.360  1.00  0.00     0.179 C 
ENDBRANCH   1   7
BRANCH   4  15
HETATM   15  C   UNL     1     -40.320 -49.335  11.332  1.00  0.00     0.131 C 
BRANCH  15  16
HETATM   16  C   UNL     1     -38.937 -49.248  11.956  1.00  0.00     0.029 C 
HETATM   17  C   UNL     1     -38.191 -50.569  12.010  1.00  0.00     0.034 C 
HETATM   18  C   UNL     1     -37.375 -50.490  13.288  1.00  0.00     0.168 C 
HETATM   19  O   UNL     1     -37.763 -49.298  13.977  1.00  0.00    -0.391 OA
HETATM   20  C   UNL     1     -38.999 -48.851  13.419  1.00  0.00     0.173 C 
ENDBRANCH  15  16
ENDBRANCH   4  15
TORSDOF 3
ENDMDL
MODEL 6
REMARK VINA RESULT:      -5.3      2.655      5.994
REMARK  3 active torsions:
REMARK  status: ('A' for Active; 'I' for Inactive)
REMARK    1  A    between atoms: C_4  and  N_5 
REMARK       I    between atoms: N_5  and  C_6 
REMARK       I    between atoms: C_6  and  N_8 
REMARK    2  A    between atoms: N_8  and  C_9 
REMARK    3  A    between atoms: C_9  and  C_10 
ROOT
HETATM    1  N   UNL     1     -41.175 -48.878  10.465  1.00  0.00    -0.293 N 
HETATM    2  C   UNL     1     -40.972 -49.721  11.593  1.00  0.00     0.321 C 
HETATM    3  O   UNL     1     -40.946 -49.306  12.737  1.00  0.00    -0.247 OA
HETATM    4  N   UNL     1     -40.827 -51.025  11.222  1.00  0.00    -0.342 N 
HETATM    5  H   UNL     1     -41.158 -49.286   9.547  1.00  0.00     0.172 HD
HETATM    6  H   UNL     1     -40.946 -51.328  10.268  1.00  0.00     0.164 HD
ENDROOT
BRANCH   1   7
HETATM    7  C   UNL     1     -41.377 -47.501  10.579  1.00  0.00     0.127 A 
HETATM    8  C   UNL     1     -40.436 -46.529  10.844  1.00  0.00     0.076 A 
HETATM    9  C   UNL     1     -41.131 -45.302  10.843  1.00  0.00     0.025 A 
HETATM   10  C   UNL     1     -40.567 -43.948  11.066  1.00  0.00     0.070 C 
HETATM   11  N   UNL     1     -42.434 -45.480  10.608  1.00  0.00    -0.302 N 
HETATM   12  N   UNL     1     -42.563 -46.811  10.455  1.00  0.00    -0.281 N 
ATOM     13  HN  UNL     1     -43.165 -44.770  10.556  1.00  0.00     0.186 HD
HETATM   14  C   UNL     1     -43.884 -47.328  10.183  1.00  0.00     0.179 C 
ENDBRANCH   1   7
BRANCH   4  15
HETATM   15  C   UNL     1     -40.691 -52.014  12.276  1.00  0.00     0.131 C 
BRANCH  15  16
HETATM   16  C   UNL     1     -41.936 -52.857  12.493  1.00  0.00     0.029 C 
HETATM   17  C   UNL     1     -43.031 -52.164  13.283  1.00  0.00     0.034 C 
HETATM   18  C   UNL     1     -43.690 -53.279  14.076  1.00  0.00     0.168 C 
HETATM   19  O   UNL     1     -42.917 -54.467  13.875  1.00  0.00    -0.391 OA
HETATM   20  C   UNL     1     -41.650 -54.082  13.342  1.00  0.00     0.173 C 
ENDBRANCH  15  16
ENDBRANCH   4  15
TORSDOF 3
ENDMDL
MODEL 7
REMARK VINA RESULT:      -5.3      2.710      6.614
REMARK  3 active torsions:
REMARK  status: ('A' for Active; 'I' for Inactive)
REMARK    1  A    between atoms: C_4  and  N_5 
REMARK       I    between atoms: N_5  and  C_6 
REMARK       I    between atoms: C_6  and  N_8 
REMARK    2  A    between atoms: N_8  and  C_9 
REMARK    3  A    between atoms: C_9  and  C_10 
ROOT
HETATM    1  N   UNL     1     -41.044 -48.930  10.560  1.00  0.00    -0.293 N 
HETATM    2  C   UNL     1     -41.454 -49.807  11.601  1.00  0.00     0.321 C 
HETATM    3  O   UNL     1     -41.995 -49.422  12.621  1.00  0.00    -0.247 OA
HETATM    4  N   UNL     1     -41.172 -51.107  11.299  1.00  0.00    -0.342 N 
HETATM    5  H   UNL     1     -40.578 -49.315   9.757  1.00  0.00     0.172 HD
HETATM    6  H   UNL     1     -40.804 -51.382  10.402  1.00  0.00     0.164 HD
ENDROOT
BRANCH   1   7
HETATM    7  C   UNL     1     -41.245 -47.549  10.614  1.00  0.00     0.127 A 
HETATM    8  C   UNL     1     -40.342 -46.579  10.996  1.00  0.00     0.076 A 
HETATM    9  C   UNL     1     -41.014 -45.346  10.866  1.00  0.00     0.025 A 
HETATM   10  C   UNL     1     -40.473 -43.993  11.142  1.00  0.00     0.070 C 
HETATM   11  N   UNL     1     -42.269 -45.518  10.444  1.00  0.00    -0.302 N 
HETATM   12  N   UNL     1     -42.391 -46.851  10.301  1.00  0.00    -0.281 N 
ATOM     13  HN  UNL     1     -42.976 -44.803  10.269  1.00  0.00     0.186 HD
HETATM   14  C   UNL     1     -43.662 -47.363   9.845  1.00  0.00     0.179 C 
ENDBRANCH   1   7
BRANCH   4  15
HETATM   15  C   UNL     1     -41.606 -52.126  12.238  1.00  0.00     0.131 C 
BRANCH  15  16
HETATM   16  C   UNL     1     -40.483 -53.017  12.740  1.00  0.00     0.029 C 
HETATM   17  C   UNL     1     -40.949 -54.216  13.546  1.00  0.00     0.034 C 
HETATM   18  C   UNL     1     -39.856 -54.425  14.580  1.00  0.00     0.168 C 
HETATM   19  O   UNL     1     -38.941 -53.330  14.470  1.00  0.00    -0.391 OA
HETATM   20  C   UNL     1     -39.583 -52.294  13.726  1.00  0.00     0.173 C 
ENDBRANCH  15  16
ENDBRANCH   4  15
TORSDOF 3
ENDMDL
MODEL 8
REMARK VINA RESULT:      -5.2      2.947      4.191
REMARK  3 active torsions:
REMARK  status: ('A' for Active; 'I' for Inactive)
REMARK    1  A    between atoms: C_4  and  N_5 
REMARK       I    between atoms: N_5  and  C_6 
REMARK       I    between atoms: C_6  and  N_8 
REMARK    2  A    between atoms: N_8  and  C_9 
REMARK    3  A    between atoms: C_9  and  C_10 
ROOT
HETATM    1  N   UNL     1     -42.502 -51.608  12.045  1.00  0.00    -0.293 N 
HETATM    2  C   UNL     1     -42.554 -50.236  12.415  1.00  0.00     0.321 C 
HETATM    3  O   UNL     1     -42.948 -49.854  13.502  1.00  0.00    -0.247 OA
HETATM    4  N   UNL     1     -42.101 -49.430  11.412  1.00  0.00    -0.342 N 
HETATM    5  H   UNL     1     -42.191 -51.849  11.121  1.00  0.00     0.172 HD
HETATM    6  H   UNL     1     -41.702 -49.802  10.564  1.00  0.00     0.164 HD
ENDROOT
BRANCH   1   7
HETATM    7  C   UNL     1     -42.885 -52.637  12.908  1.00  0.00     0.127 A 
HETATM    8  C   UNL     1     -42.076 -53.401  13.722  1.00  0.00     0.076 A 
HETATM    9  C   UNL     1     -42.933 -54.289  14.403  1.00  0.00     0.025 A 
HETATM   10  C   UNL     1     -42.554 -55.314  15.407  1.00  0.00     0.070 C 
HETATM   11  N   UNL     1     -44.206 -54.114  14.038  1.00  0.00    -0.302 N 
HETATM   12  N   UNL     1     -44.157 -53.117  13.135  1.00  0.00    -0.281 N 
ATOM     13  HN  UNL     1     -45.028 -54.620  14.368  1.00  0.00     0.186 HD
HETATM   14  C   UNL     1     -45.402 -52.687  12.544  1.00  0.00     0.179 C 
ENDBRANCH   1   7
BRANCH   4  15
HETATM   15  C   UNL     1     -42.022 -48.005  11.676  1.00  0.00     0.131 C 
BRANCH  15  16
HETATM   16  C   UNL     1     -43.001 -47.174  10.865  1.00  0.00     0.029 C 
HETATM   17  C   UNL     1     -43.184 -47.642   9.433  1.00  0.00     0.034 C 
HETATM   18  C   UNL     1     -43.421 -46.365   8.645  1.00  0.00     0.168 C 
HETATM   19  O   UNL     1     -43.218 -45.263   9.535  1.00  0.00    -0.391 OA
HETATM   20  C   UNL     1     -42.517 -45.747  10.681  1.00  0.00     0.173 C 
ENDBRANCH  15  16
ENDBRANCH   4  15
TORSDOF 3
ENDMDL
MODEL 9
REMARK VINA RESULT:      -5.2      2.871      6.371
REMARK  3 active torsions:
REMARK  status: ('A' for Active; 'I' for Inactive)
REMARK    1  A    between atoms: C_4  and  N_5 
REMARK       I    between atoms: N_5  and  C_6 
REMARK       I    between atoms: C_6  and  N_8 
REMARK    2  A    between atoms: N_8  and  C_9 
REMARK    3  A    between atoms: C_9  and  C_10 
ROOT
HETATM    1  N   UNL     1     -41.678 -49.428  10.975  1.00  0.00    -0.293 N 
HETATM    2  C   UNL     1     -42.165 -49.949  12.205  1.00  0.00     0.321 C 
HETATM    3  O   UNL     1     -42.900 -49.324  12.947  1.00  0.00    -0.247 OA
HETATM    4  N   UNL     1     -41.713 -51.217  12.424  1.00  0.00    -0.342 N 
HETATM    5  H   UNL     1     -41.052 -49.990  10.425  1.00  0.00     0.172 HD
HETATM    6  H   UNL     1     -41.179 -51.723  11.736  1.00  0.00     0.164 HD
ENDROOT
BRANCH   1   7
HETATM    7  C   UNL     1     -42.018 -48.157  10.507  1.00  0.00     0.127 A 
HETATM    8  C   UNL     1     -43.170 -47.780   9.848  1.00  0.00     0.076 A 
HETATM    9  C   UNL     1     -43.045 -46.398   9.600  1.00  0.00     0.025 A 
HETATM   10  C   UNL     1     -44.025 -45.511   8.927  1.00  0.00     0.070 C 
HETATM   11  N   UNL     1     -41.882 -45.924  10.058  1.00  0.00    -0.302 N 
HETATM   12  N   UNL     1     -41.277 -46.999  10.597  1.00  0.00    -0.281 N 
ATOM     13  HN  UNL     1     -41.533 -44.967  10.010  1.00  0.00     0.186 HD
HETATM   14  C   UNL     1     -39.974 -46.806  11.189  1.00  0.00     0.179 C 
ENDBRANCH   1   7
BRANCH   4  15
HETATM   15  C   UNL     1     -42.193 -51.908  13.607  1.00  0.00     0.131 C 
BRANCH  15  16
HETATM   16  C   UNL     1     -42.818 -53.262  13.317  1.00  0.00     0.029 C 
HETATM   17  C   UNL     1     -44.200 -53.194  12.695  1.00  0.00     0.034 C 
HETATM   18  C   UNL     1     -44.926 -54.406  13.253  1.00  0.00     0.168 C 
HETATM   19  O   UNL     1     -44.077 -55.005  14.236  1.00  0.00    -0.391 OA
HETATM   20  C   UNL     1     -43.073 -54.053  14.588  1.00  0.00     0.173 C 
ENDBRANCH  15  16
ENDBRANCH   4  15
TORSDOF 3
ENDMDL
