MODEL 1
REMARK VINA RESULT:      -6.3      0.000      0.000
REMARK  4 active torsions:
REMARK  status: ('A' for Active; 'I' for Inactive)
REMARK    1  A    between atoms: O_1  and  C_2 
REMARK    2  A    between atoms: C_6  and  C_7 
REMARK    3  A    between atoms: C_7  and  N_8 
REMARK       I    between atoms: N_8  and  C_9 
REMARK       I    between atoms: C_9  and  N_11 
REMARK    4  A    between atoms: N_11  and  C_12 
ROOT
HETATM    1  N   UNL     1     -40.618 -49.209  10.646  1.00  0.00    -0.342 N 
HETATM    2  C   UNL     1     -41.893 -48.687  10.715  1.00  0.00     0.321 C 
HETATM    3  O   UNL     1     -42.582 -48.727  11.725  1.00  0.00    -0.247 OA
HETATM    4  N   UNL     1     -42.226 -48.065   9.536  1.00  0.00    -0.295 N 
HETATM    5  H   UNL     1     -40.414 -49.674   9.772  1.00  0.00     0.164 HD
HETATM    6  H   UNL     1     -41.458 -47.586   9.092  1.00  0.00     0.172 HD
ENDROOT
BRANCH   1   7
HETATM    7  C   UNL     1     -39.996 -49.748  11.844  1.00  0.00     0.131 C 
BRANCH   7   8
HETATM    8  C   UNL     1     -38.649 -49.069  12.138  1.00  0.00     0.032 C 
HETATM    9  C   UNL     1     -37.468 -49.777  11.475  1.00  0.00     0.123 C 
HETATM   10  C   UNL     1     -37.158 -50.959  12.392  1.00  0.00     0.032 C 
HETATM   11  C   UNL     1     -37.626 -50.533  13.784  1.00  0.00     0.003 C 
HETATM   12  C   UNL     1     -38.241 -49.146  13.616  1.00  0.00     0.009 C 
BRANCH   9  13
HETATM   13  O   UNL     1     -37.754 -50.193  10.153  1.00  0.00    -0.395 OA
HETATM   14  H   UNL     1     -37.571 -49.442   9.562  1.00  0.00     0.210 HD
ENDBRANCH   9  13
ENDBRANCH   7   8
ENDBRANCH   1   7
BRANCH   4  15
HETATM   15  C   UNL     1     -43.432 -47.373   9.375  1.00  0.00     0.108 A 
HETATM   16  C   UNL     1     -43.461 -46.022   9.056  1.00  0.00     0.049 A 
HETATM   17  C   UNL     1     -44.696 -45.406   8.874  1.00  0.00     0.005 A 
HETATM   18  C   UNL     1     -45.853 -46.164   8.989  1.00  0.00     0.017 A 
HETATM   19  C   UNL     1     -45.725 -47.502   9.328  1.00  0.00     0.089 A 
HETATM   20  N   UNL     1     -44.542 -48.114   9.560  1.00  0.00    -0.352 N 
ATOM     21  HN  UNL     1     -44.493 -49.088   9.862  1.00  0.00     0.166 HD
ENDBRANCH   4  15
TORSDOF 4
ENDMDL
MODEL 2
REMARK VINA RESULT:      -6.2      1.703      7.315
REMARK  4 active torsions:
REMARK  status: ('A' for Active; 'I' for Inactive)
REMARK    1  A    between atoms: O_1  and  C_2 
REMARK    2  A    between atoms: C_6  and  C_7 
REMARK    3  A    between atoms: C_7  and  N_8 
REMARK       I    between atoms: N_8  and  C_9 
REMARK       I    between atoms: C_9  and  N_11 
REMARK    4  A    between atoms: N_11  and  C_12 
ROOT
HETATM    1  N   UNL     1     -42.014 -48.244   9.841  1.00  0.00    -0.342 N 
HETATM    2  C   UNL     1     -40.951 -48.445  10.697  1.00  0.00     0.321 C 
HETATM    3  O   UNL     1     -40.514 -47.579  11.442  1.00  0.00    -0.247 OA
HETATM    4  N   UNL     1     -40.526 -49.751  10.642  1.00  0.00    -0.295 N 
HETATM    5  H   UNL     1     -41.901 -48.684   8.939  1.00  0.00     0.164 HD
HETATM    6  H   UNL     1     -41.268 -50.421  10.518  1.00  0.00     0.172 HD
ENDROOT
BRANCH   1   7
HETATM    7  C   UNL     1     -42.737 -46.983   9.877  1.00  0.00     0.131 C 
BRANCH   7   8
HETATM    8  C   UNL     1     -43.437 -46.693   8.540  1.00  0.00     0.032 C 
HETATM    9  C   UNL     1     -44.535 -45.637   8.660  1.00  0.00     0.123 C 
HETATM   10  C   UNL     1     -45.741 -46.392   9.213  1.00  0.00     0.032 C 
HETATM   11  C   UNL     1     -45.566 -47.840   8.755  1.00  0.00     0.003 C 
HETATM   12  C   UNL     1     -44.238 -47.886   8.003  1.00  0.00     0.009 C 
BRANCH   9  13
HETATM   13  O   UNL     1     -44.162 -44.553   9.489  1.00  0.00    -0.395 OA
HETATM   14  H   UNL     1     -44.030 -43.776   8.918  1.00  0.00     0.210 HD
ENDBRANCH   9  13
ENDBRANCH   7   8
ENDBRANCH   1   7
BRANCH   4  15
HETATM   15  C   UNL     1     -39.518 -50.240  11.481  1.00  0.00     0.108 A 
HETATM   16  C   UNL     1     -39.812 -50.896  12.668  1.00  0.00     0.049 A 
HETATM   17  C   UNL     1     -38.762 -51.390  13.436  1.00  0.00     0.005 A 
HETATM   18  C   UNL     1     -37.460 -51.238  12.978  1.00  0.00     0.017 A 
HETATM   19  C   UNL     1     -37.263 -50.554  11.789  1.00  0.00     0.089 A 
HETATM   20  N   UNL     1     -38.260 -50.019  11.049  1.00  0.00    -0.352 N 
ATOM     21  HN  UNL     1     -38.070 -49.475  10.208  1.00  0.00     0.166 HD
ENDBRANCH   4  15
TORSDOF 4
ENDMDL
MODEL 3
REMARK VINA RESULT:      -5.9      4.643      5.315
REMARK  4 active torsions:
REMARK  status: ('A' for Active; 'I' for Inactive)
REMARK    1  A    between atoms: O_1  and  C_2 
REMARK    2  A    between atoms: C_6  and  C_7 
REMARK    3  A    between atoms: C_7  and  N_8 
REMARK       I    between atoms: N_8  and  C_9 
REMARK       I    between atoms: C_9  and  N_11 
REMARK    4  A    between atoms: N_11  and  C_12 
ROOT
HETATM    1  N   UNL     1     -41.787 -52.264  11.774  1.00  0.00    -0.342 N 
HETATM    2  C   UNL     1     -42.650 -52.474  12.828  1.00  0.00     0.321 C 
HETATM    3  O   UNL     1     -42.276 -52.657  13.979  1.00  0.00    -0.247 OA
HETATM    4  N   UNL     1     -43.956 -52.368  12.413  1.00  0.00    -0.295 N 
HETATM    5  H   UNL     1     -42.066 -52.723  10.919  1.00  0.00     0.164 HD
HETATM    6  H   UNL     1     -44.108 -51.664  11.707  1.00  0.00     0.172 HD
ENDROOT
BRANCH   1   7
HETATM    7  C   UNL     1     -40.359 -52.146  12.026  1.00  0.00     0.131 C 
BRANCH   7   8
HETATM    8  C   UNL     1     -39.993 -50.757  12.571  1.00  0.00     0.032 C 
HETATM    9  C   UNL     1     -39.477 -49.810  11.488  1.00  0.00     0.123 C 
HETATM   10  C   UNL     1     -38.014 -50.202  11.292  1.00  0.00     0.032 C 
HETATM   11  C   UNL     1     -37.565 -50.796  12.628  1.00  0.00     0.003 C 
HETATM   12  C   UNL     1     -38.796 -50.780  13.532  1.00  0.00     0.009 C 
BRANCH   9  13
HETATM   13  O   UNL     1     -40.216 -49.902  10.285  1.00  0.00    -0.395 OA
HETATM   14  H   UNL     1     -40.204 -50.833  10.003  1.00  0.00     0.210 HD
ENDBRANCH   9  13
ENDBRANCH   7   8
ENDBRANCH   1   7
BRANCH   4  15
HETATM   15  C   UNL     1     -45.030 -52.449  13.307  1.00  0.00     0.108 A 
HETATM   16  C   UNL     1     -45.770 -51.329  13.660  1.00  0.00     0.049 A 
HETATM   17  C   UNL     1     -46.848 -51.487  14.526  1.00  0.00     0.005 A 
HETATM   18  C   UNL     1     -47.166 -52.758  14.985  1.00  0.00     0.017 A 
HETATM   19  C   UNL     1     -46.359 -53.814  14.591  1.00  0.00     0.089 A 
HETATM   20  N   UNL     1     -45.275 -53.682  13.793  1.00  0.00    -0.352 N 
ATOM     21  HN  UNL     1     -44.674 -54.475  13.570  1.00  0.00     0.166 HD
ENDBRANCH   4  15
TORSDOF 4
ENDMDL
MODEL 4
REMARK VINA RESULT:      -5.8      3.508      5.946
REMARK  4 active torsions:
REMARK  status: ('A' for Active; 'I' for Inactive)
REMARK    1  A    between atoms: O_1  and  C_2 
REMARK    2  A    between atoms: C_6  and  C_7 
REMARK    3  A    between atoms: C_7  and  N_8 
REMARK       I    between atoms: N_8  and  C_9 
REMARK       I    between atoms: C_9  and  N_11 
REMARK    4  A    between atoms: N_11  and  C_12 
ROOT
HETATM    1  N   UNL     1     -40.812 -49.005  10.697  1.00  0.00    -0.342 N 
HETATM    2  C   UNL     1     -41.355 -49.881  11.614  1.00  0.00     0.321 C 
HETATM    3  O   UNL     1     -42.066 -49.526  12.545  1.00  0.00    -0.247 OA
HETATM    4  N   UNL     1     -41.050 -51.179  11.284  1.00  0.00    -0.295 N 
HETATM    5  H   UNL     1     -39.865 -49.231  10.428  1.00  0.00     0.164 HD
HETATM    6  H   UNL     1     -41.035 -51.359  10.292  1.00  0.00     0.172 HD
ENDROOT
BRANCH   1   7
HETATM    7  C   UNL     1     -41.167 -47.596  10.752  1.00  0.00     0.131 C 
BRANCH   7   8
HETATM    8  C   UNL     1     -39.962 -46.723  11.133  1.00  0.00     0.032 C 
HETATM    9  C   UNL     1     -40.011 -46.242  12.583  1.00  0.00     0.123 C 
HETATM   10  C   UNL     1     -40.965 -45.050  12.565  1.00  0.00     0.032 C 
HETATM   11  C   UNL     1     -40.878 -44.474  11.151  1.00  0.00     0.003 C 
HETATM   12  C   UNL     1     -39.923 -45.384  10.384  1.00  0.00     0.009 C 
BRANCH   9  13
HETATM   13  O   UNL     1     -40.439 -47.250  13.478  1.00  0.00    -0.395 OA
HETATM   14  H   UNL     1     -41.045 -46.838  14.119  1.00  0.00     0.210 HD
ENDBRANCH   9  13
ENDBRANCH   7   8
ENDBRANCH   1   7
BRANCH   4  15
HETATM   15  C   UNL     1     -41.557 -52.269  12.001  1.00  0.00     0.108 A 
HETATM   16  C   UNL     1     -40.732 -53.091  12.756  1.00  0.00     0.049 A 
HETATM   17  C   UNL     1     -41.307 -54.135  13.475  1.00  0.00     0.005 A 
HETATM   18  C   UNL     1     -42.685 -54.302  13.438  1.00  0.00     0.017 A 
HETATM   19  C   UNL     1     -43.425 -53.442  12.642  1.00  0.00     0.089 A 
HETATM   20  N   UNL     1     -42.887 -52.453  11.894  1.00  0.00    -0.352 N 
ATOM     21  HN  UNL     1     -43.460 -51.875  11.278  1.00  0.00     0.166 HD
ENDBRANCH   4  15
TORSDOF 4
ENDMDL
MODEL 5
REMARK VINA RESULT:      -5.8      4.088      6.348
REMARK  4 active torsions:
REMARK  status: ('A' for Active; 'I' for Inactive)
REMARK    1  A    between atoms: O_1  and  C_2 
REMARK    2  A    between atoms: C_6  and  C_7 
REMARK    3  A    between atoms: C_7  and  N_8 
REMARK       I    between atoms: N_8  and  C_9 
REMARK       I    between atoms: C_9  and  N_11 
REMARK    4  A    between atoms: N_11  and  C_12 
ROOT
HETATM    1  N   UNL     1     -41.230 -50.387  11.131  1.00  0.00    -0.342 N 
HETATM    2  C   UNL     1     -41.743 -51.084  12.205  1.00  0.00     0.321 C 
HETATM    3  O   UNL     1     -41.813 -50.622  13.336  1.00  0.00    -0.247 OA
HETATM    4  N   UNL     1     -42.221 -52.308  11.804  1.00  0.00    -0.295 N 
HETATM    5  H   UNL     1     -40.669 -50.951  10.508  1.00  0.00     0.164 HD
HETATM    6  H   UNL     1     -42.652 -52.303  10.893  1.00  0.00     0.172 HD
ENDROOT
BRANCH   1   7
HETATM    7  C   UNL     1     -40.841 -48.996  11.297  1.00  0.00     0.131 C 
BRANCH   7   8
HETATM    8  C   UNL     1     -41.802 -48.047  10.566  1.00  0.00     0.032 C 
HETATM    9  C   UNL     1     -41.344 -46.589  10.604  1.00  0.00     0.123 C 
HETATM   10  C   UNL     1     -41.771 -46.083  11.980  1.00  0.00     0.032 C 
HETATM   11  C   UNL     1     -42.980 -46.933  12.374  1.00  0.00     0.003 C 
HETATM   12  C   UNL     1     -43.176 -47.938  11.241  1.00  0.00     0.009 C 
BRANCH   9  13
HETATM   13  O   UNL     1     -39.952 -46.449  10.396  1.00  0.00    -0.395 OA
HETATM   14  H   UNL     1     -39.659 -45.659  10.882  1.00  0.00     0.210 HD
ENDBRANCH   9  13
ENDBRANCH   7   8
ENDBRANCH   1   7
BRANCH   4  15
HETATM   15  C   UNL     1     -42.876 -53.176  12.685  1.00  0.00     0.108 A 
HETATM   16  C   UNL     1     -44.209 -53.523  12.509  1.00  0.00     0.049 A 
HETATM   17  C   UNL     1     -44.788 -54.420  13.402  1.00  0.00     0.005 A 
HETATM   18  C   UNL     1     -44.010 -54.959  14.419  1.00  0.00     0.017 A 
HETATM   19  C   UNL     1     -42.694 -54.540  14.525  1.00  0.00     0.089 A 
HETATM   20  N   UNL     1     -42.121 -53.631  13.704  1.00  0.00    -0.352 N 
ATOM     21  HN  UNL     1     -41.164 -53.307  13.848  1.00  0.00     0.166 HD
ENDBRANCH   4  15
TORSDOF 4
ENDMDL
MODEL 6
REMARK VINA RESULT:      -5.7      3.034      3.898
REMARK  4 active torsions:
REMARK  status: ('A' for Active; 'I' for Inactive)
REMARK    1  A    between atoms: O_1  and  C_2 
REMARK    2  A    between atoms: C_6  and  C_7 
REMARK    3  A    between atoms: C_7  and  N_8 
REMARK       I    between atoms: N_8  and  C_9 
REMARK       I    between atoms: C_9  and  N_11 
REMARK    4  A    between atoms: N_11  and  C_12 
ROOT
HETATM    1  N   UNL     1     -40.454 -51.027  11.830  1.00  0.00    -0.342 N 
HETATM    2  C   UNL     1     -41.364 -50.000  11.690  1.00  0.00     0.321 C 
HETATM    3  O   UNL     1     -42.294 -49.815  12.464  1.00  0.00    -0.247 OA
HETATM    4  N   UNL     1     -41.028 -49.196  10.627  1.00  0.00    -0.295 N 
HETATM    5  H   UNL     1     -40.187 -51.458  10.956  1.00  0.00     0.164 HD
HETATM    6  H   UNL     1     -40.035 -49.074  10.501  1.00  0.00     0.172 HD
ENDROOT
BRANCH   1   7
HETATM    7  C   UNL     1     -40.515 -51.887  13.001  1.00  0.00     0.131 C 
BRANCH   7   8
HETATM    8  C   UNL     1     -40.740 -53.356  12.615  1.00  0.00     0.032 C 
HETATM    9  C   UNL     1     -42.218 -53.746  12.595  1.00  0.00     0.123 C 
HETATM   10  C   UNL     1     -42.573 -53.998  14.059  1.00  0.00     0.032 C 
HETATM   11  C   UNL     1     -41.267 -54.422  14.732  1.00  0.00     0.003 C 
HETATM   12  C   UNL     1     -40.192 -54.346  13.651  1.00  0.00     0.009 C 
BRANCH   9  13
HETATM   13  O   UNL     1     -43.038 -52.750  12.015  1.00  0.00    -0.395 OA
HETATM   14  H   UNL     1     -42.456 -52.125  11.549  1.00  0.00     0.210 HD
ENDBRANCH   9  13
ENDBRANCH   7   8
ENDBRANCH   1   7
BRANCH   4  15
HETATM   15  C   UNL     1     -41.738 -48.029  10.323  1.00  0.00     0.108 A 
HETATM   16  C   UNL     1     -41.268 -46.775  10.686  1.00  0.00     0.049 A 
HETATM   17  C   UNL     1     -42.007 -45.654  10.320  1.00  0.00     0.005 A 
HETATM   18  C   UNL     1     -43.171 -45.823   9.581  1.00  0.00     0.017 A 
HETATM   19  C   UNL     1     -43.570 -47.115   9.280  1.00  0.00     0.089 A 
HETATM   20  N   UNL     1     -42.899 -48.224   9.667  1.00  0.00    -0.352 N 
ATOM     21  HN  UNL     1     -43.255 -49.160   9.473  1.00  0.00     0.166 HD
ENDBRANCH   4  15
TORSDOF 4
ENDMDL
MODEL 7
REMARK VINA RESULT:      -5.5      3.974      5.231
REMARK  4 active torsions:
REMARK  status: ('A' for Active; 'I' for Inactive)
REMARK    1  A    between atoms: O_1  and  C_2 
REMARK    2  A    between atoms: C_6  and  C_7 
REMARK    3  A    between atoms: C_7  and  N_8 
REMARK       I    between atoms: N_8  and  C_9 
REMARK       I    between atoms: C_9  and  N_11 
REMARK    4  A    between atoms: N_11  and  C_12 
ROOT
HETATM    1  N   UNL     1     -42.948 -50.939  12.361  1.00  0.00    -0.342 N 
HETATM    2  C   UNL     1     -42.324 -49.710  12.410  1.00  0.00     0.321 C 
HETATM    3  O   UNL     1     -41.646 -49.336  13.357  1.00  0.00    -0.247 OA
HETATM    4  N   UNL     1     -42.510 -49.026  11.232  1.00  0.00    -0.295 N 
HETATM    5  H   UNL     1     -43.871 -50.913  11.951  1.00  0.00     0.164 HD
HETATM    6  H   UNL     1     -42.512 -49.611  10.411  1.00  0.00     0.172 HD
ENDROOT
BRANCH   1   7
HETATM    7  C   UNL     1     -42.724 -51.901  13.428  1.00  0.00     0.131 C 
BRANCH   7   8
HETATM    8  C   UNL     1     -42.687 -53.341  12.894  1.00  0.00     0.032 C 
HETATM    9  C   UNL     1     -44.079 -53.919  12.641  1.00  0.00     0.123 C 
HETATM   10  C   UNL     1     -44.572 -54.362  14.017  1.00  0.00     0.032 C 
HETATM   11  C   UNL     1     -43.312 -54.676  14.824  1.00  0.00     0.003 C 
HETATM   12  C   UNL     1     -42.133 -54.350  13.909  1.00  0.00     0.009 C 
BRANCH   9  13
HETATM   13  O   UNL     1     -44.956 -52.986  12.039  1.00  0.00    -0.395 OA
HETATM   14  H   UNL     1     -45.434 -52.528  12.752  1.00  0.00     0.210 HD
ENDBRANCH   9  13
ENDBRANCH   7   8
ENDBRANCH   1   7
BRANCH   4  15
HETATM   15  C   UNL     1     -41.903 -47.788  10.987  1.00  0.00     0.108 A 
HETATM   16  C   UNL     1     -42.650 -46.658  10.686  1.00  0.00     0.049 A 
HETATM   17  C   UNL     1     -41.984 -45.451  10.489  1.00  0.00     0.005 A 
HETATM   18  C   UNL     1     -40.603 -45.411  10.629  1.00  0.00     0.017 A 
HETATM   19  C   UNL     1     -39.942 -46.595  10.915  1.00  0.00     0.089 A 
HETATM   20  N   UNL     1     -40.558 -47.790  11.060  1.00  0.00    -0.352 N 
ATOM     21  HN  UNL     1     -40.030 -48.649  11.215  1.00  0.00     0.166 HD
ENDBRANCH   4  15
TORSDOF 4
ENDMDL
MODEL 8
REMARK VINA RESULT:      -5.5      4.236      5.950
REMARK  4 active torsions:
REMARK  status: ('A' for Active; 'I' for Inactive)
REMARK    1  A    between atoms: O_1  and  C_2 
REMARK    2  A    between atoms: C_6  and  C_7 
REMARK    3  A    between atoms: C_7  and  N_8 
REMARK       I    between atoms: N_8  and  C_9 
REMARK       I    between atoms: C_9  and  N_11 
REMARK    4  A    between atoms: N_11  and  C_12 
ROOT
HETATM    1  N   UNL     1     -42.621 -51.669  12.214  1.00  0.00    -0.342 N 
HETATM    2  C   UNL     1     -42.597 -50.290  12.182  1.00  0.00     0.321 C 
HETATM    3  O   UNL     1     -43.289 -49.587  12.906  1.00  0.00    -0.247 OA
HETATM    4  N   UNL     1     -41.646 -49.843  11.295  1.00  0.00    -0.295 N 
HETATM    5  H   UNL     1     -42.562 -52.100  11.303  1.00  0.00     0.164 HD
HETATM    6  H   UNL     1     -40.813 -50.411  11.264  1.00  0.00     0.172 HD
ENDROOT
BRANCH   1   7
HETATM    7  C   UNL     1     -43.423 -52.350  13.218  1.00  0.00     0.131 C 
BRANCH   7   8
HETATM    8  C   UNL     1     -44.514 -53.221  12.577  1.00  0.00     0.032 C 
HETATM    9  C   UNL     1     -45.888 -52.552  12.580  1.00  0.00     0.123 C 
HETATM   10  C   UNL     1     -46.428 -52.780  13.990  1.00  0.00     0.032 C 
HETATM   11  C   UNL     1     -45.758 -54.062  14.486  1.00  0.00     0.003 C 
HETATM   12  C   UNL     1     -44.811 -54.501  13.371  1.00  0.00     0.009 C 
BRANCH   9  13
HETATM   13  O   UNL     1     -45.826 -51.177  12.252  1.00  0.00    -0.395 OA
HETATM   14  H   UNL     1     -45.103 -50.783  12.770  1.00  0.00     0.210 HD
ENDBRANCH   9  13
ENDBRANCH   7   8
ENDBRANCH   1   7
BRANCH   4  15
HETATM   15  C   UNL     1     -41.355 -48.483  11.139  1.00  0.00     0.108 A 
HETATM   16  C   UNL     1     -40.164 -47.936  11.596  1.00  0.00     0.049 A 
HETATM   17  C   UNL     1     -39.923 -46.583  11.375  1.00  0.00     0.005 A 
HETATM   18  C   UNL     1     -40.865 -45.833  10.683  1.00  0.00     0.017 A 
HETATM   19  C   UNL     1     -42.032 -46.463  10.280  1.00  0.00     0.089 A 
HETATM   20  N   UNL     1     -42.314 -47.762  10.526  1.00  0.00    -0.352 N 
ATOM     21  HN  UNL     1     -43.209 -48.175  10.262  1.00  0.00     0.166 HD
ENDBRANCH   4  15
TORSDOF 4
ENDMDL
MODEL 9
REMARK VINA RESULT:      -5.5      4.882      7.708
REMARK  4 active torsions:
REMARK  status: ('A' for Active; 'I' for Inactive)
REMARK    1  A    between atoms: O_1  and  C_2 
REMARK    2  A    between atoms: C_6  and  C_7 
REMARK    3  A    between atoms: C_7  and  N_8 
REMARK       I    between atoms: N_8  and  C_9 
REMARK       I    between atoms: C_9  and  N_11 
REMARK    4  A    between atoms: N_11  and  C_12 
ROOT
HETATM    1  N   UNL     1     -42.230 -53.770  13.497  1.00  0.00    -0.342 N 
HETATM    2  C   UNL     1     -41.625 -52.535  13.390  1.00  0.00     0.321 C 
HETATM    3  O   UNL     1     -42.140 -51.496  13.781  1.00  0.00    -0.247 OA
HETATM    4  N   UNL     1     -40.360 -52.660  12.866  1.00  0.00    -0.295 N 
HETATM    5  H   UNL     1     -42.090 -54.365  12.693  1.00  0.00     0.164 HD
HETATM    6  H   UNL     1     -39.871 -53.490  13.164  1.00  0.00     0.172 HD
ENDROOT
BRANCH   1   7
HETATM    7  C   UNL     1     -43.499 -53.890  14.198  1.00  0.00     0.131 C 
BRANCH   7   8
HETATM    8  C   UNL     1     -44.638 -54.282  13.244  1.00  0.00     0.032 C 
HETATM    9  C   UNL     1     -45.548 -53.107  12.889  1.00  0.00     0.123 C 
HETATM   10  C   UNL     1     -46.492 -52.972  14.082  1.00  0.00     0.032 C 
HETATM   11  C   UNL     1     -46.583 -54.370  14.695  1.00  0.00     0.003 C 
HETATM   12  C   UNL     1     -45.647 -55.253  13.873  1.00  0.00     0.009 C 
BRANCH   9  13
HETATM   13  O   UNL     1     -44.829 -51.914  12.644  1.00  0.00    -0.395 OA
HETATM   14  H   UNL     1     -43.908 -52.160  12.448  1.00  0.00     0.210 HD
ENDBRANCH   9  13
ENDBRANCH   7   8
ENDBRANCH   1   7
BRANCH   4  15
HETATM   15  C   UNL     1     -39.497 -51.565  12.738  1.00  0.00     0.108 A 
HETATM   16  C   UNL     1     -38.417 -51.385  13.592  1.00  0.00     0.049 A 
HETATM   17  C   UNL     1     -37.578 -50.294  13.384  1.00  0.00     0.005 A 
HETATM   18  C   UNL     1     -37.829 -49.442  12.317  1.00  0.00     0.017 A 
HETATM   19  C   UNL     1     -38.940 -49.693  11.529  1.00  0.00     0.089 A 
HETATM   20  N   UNL     1     -39.802 -50.714  11.739  1.00  0.00    -0.352 N 
ATOM     21  HN  UNL     1     -40.640 -50.833  11.170  1.00  0.00     0.166 HD
ENDBRANCH   4  15
TORSDOF 4
ENDMDL
