MODEL 1
REMARK VINA RESULT:      -7.0      0.000      0.000
REMARK  6 active torsions:
REMARK  status: ('A' for Active; 'I' for Inactive)
REMARK    1  A    between atoms: N_2  and  C_4 
REMARK    2  A    between atoms: N_9  and  C_10 
REMARK    3  A    between atoms: C_10  and  C_11 
REMARK       I    between atoms: C_11  and  N_13 
REMARK    4  A    between atoms: N_13  and  C_14 
REMARK    5  A    between atoms: C_14  and  C_21 
REMARK    6  A    between atoms: C_21  and  N_22 
ROOT
HETATM    1  C   UNL     1     -42.331 -52.636  12.837  1.00  0.00     0.237 C 
HETATM    2  O   UNL     1     -42.136 -52.808  14.038  1.00  0.00    -0.272 OA
HETATM    3  N   UNL     1     -43.592 -52.532  12.281  1.00  0.00    -0.339 N 
HETATM    4  H   UNL     1     -43.650 -52.145  11.339  1.00  0.00     0.164 HD
ENDROOT
BRANCH   1   5
HETATM    5  C   UNL     1     -41.157 -52.459  11.866  1.00  0.00     0.234 C 
BRANCH   5   6
HETATM    6  N   UNL     1     -40.508 -51.155  12.011  1.00  0.00    -0.314 N 
HETATM    7  C   UNL     1     -39.332 -51.099  12.757  1.00  0.00     0.247 A 
HETATM    8  C   UNL     1     -38.726 -49.747  12.933  1.00  0.00     0.077 A 
HETATM    9  O   UNL     1     -38.788 -52.083  13.246  1.00  0.00    -0.268 OA
HETATM   10  C   UNL     1     -39.267 -48.678  12.332  1.00  0.00     0.043 A 
HETATM   11  C   UNL     1     -40.457 -48.828  11.525  1.00  0.00     0.118 A 
HETATM   12  C   UNL     1     -41.051 -50.027  11.394  1.00  0.00     0.130 A 
BRANCH  11  13
HETATM   13  N   UNL     1     -41.054 -47.682  10.844  1.00  0.00    -0.114 N 
HETATM   14  O   UNL     1     -40.507 -46.578  10.968  1.00  0.00    -0.532 OA
HETATM   15  O   UNL     1     -42.071 -47.897  10.168  1.00  0.00    -0.532 OA
ENDBRANCH  11  13
ENDBRANCH   5   6
ENDBRANCH   1   5
BRANCH   3  16
HETATM   16  C   UNL     1     -44.857 -52.648  13.064  1.00  0.00     0.104 C 
HETATM   17  C   UNL     1     -44.885 -51.545  14.170  1.00  0.00     0.045 C 
HETATM   18  C   UNL     1     -46.241 -51.262  14.829  1.00  0.00     0.004 C 
HETATM   19  C   UNL     1     -46.684 -52.225  15.925  1.00  0.00     0.000 C 
HETATM   20  C   UNL     1     -46.193 -53.666  15.859  1.00  0.00     0.000 C 
HETATM   21  C   UNL     1     -46.262 -54.325  14.486  1.00  0.00     0.004 C 
HETATM   22  C   UNL     1     -45.011 -54.075  13.632  1.00  0.00     0.045 C 
BRANCH  16  23
HETATM   23  C   UNL     1     -46.039 -52.384  12.144  1.00  0.00    -0.046 C 
BRANCH  23  24
HETATM   24  N   UNL     1     -47.019 -52.164  11.382  1.00  0.00    -0.367 N 
ATOM     25  HN2 UNL     1     -46.217 -52.398  11.968  1.00  0.00     0.165 HD
ATOM     26  HN1 UNL     1     -47.812 -51.985  10.766  1.00  0.00     0.165 HD
ENDBRANCH  23  24
ENDBRANCH  16  23
ENDBRANCH   3  16
TORSDOF 6
ENDMDL
MODEL 2
REMARK VINA RESULT:      -6.7      3.154      4.716
REMARK  6 active torsions:
REMARK  status: ('A' for Active; 'I' for Inactive)
REMARK    1  A    between atoms: N_2  and  C_4 
REMARK    2  A    between atoms: N_9  and  C_10 
REMARK    3  A    between atoms: C_10  and  C_11 
REMARK       I    between atoms: C_11  and  N_13 
REMARK    4  A    between atoms: N_13  and  C_14 
REMARK    5  A    between atoms: C_14  and  C_21 
REMARK    6  A    between atoms: C_21  and  N_22 
ROOT
HETATM    1  C   UNL     1     -42.496 -49.316  12.477  1.00  0.00     0.237 C 
HETATM    2  O   UNL     1     -41.330 -49.617  12.228  1.00  0.00    -0.272 OA
HETATM    3  N   UNL     1     -43.430 -50.224  12.941  1.00  0.00    -0.339 N 
HETATM    4  H   UNL     1     -44.281 -49.839  13.352  1.00  0.00     0.164 HD
ENDROOT
BRANCH   1   5
HETATM    5  C   UNL     1     -42.981 -47.867  12.347  1.00  0.00     0.234 C 
BRANCH   5   6
HETATM    6  N   UNL     1     -43.319 -47.516  10.965  1.00  0.00    -0.314 N 
HETATM    7  C   UNL     1     -42.336 -46.892  10.199  1.00  0.00     0.247 A 
HETATM    8  C   UNL     1     -42.732 -46.497   8.816  1.00  0.00     0.077 A 
HETATM    9  O   UNL     1     -41.198 -46.674  10.598  1.00  0.00    -0.268 OA
HETATM   10  C   UNL     1     -43.947 -46.806   8.343  1.00  0.00     0.043 A 
HETATM   11  C   UNL     1     -44.892 -47.508   9.182  1.00  0.00     0.118 A 
HETATM   12  C   UNL     1     -44.578 -47.828  10.450  1.00  0.00     0.130 A 
BRANCH  11  13
HETATM   13  N   UNL     1     -46.215 -47.873   8.684  1.00  0.00    -0.114 N 
HETATM   14  O   UNL     1     -47.176 -47.155   8.994  1.00  0.00    -0.532 OA
HETATM   15  O   UNL     1     -46.287 -48.880   7.964  1.00  0.00    -0.532 OA
ENDBRANCH  11  13
ENDBRANCH   5   6
ENDBRANCH   1   5
BRANCH   3  16
HETATM   16  C   UNL     1     -43.144 -51.672  13.160  1.00  0.00     0.104 C 
HETATM   17  C   UNL     1     -44.457 -52.495  12.964  1.00  0.00     0.045 C 
HETATM   18  C   UNL     1     -44.301 -54.010  12.782  1.00  0.00     0.004 C 
HETATM   19  C   UNL     1     -44.097 -54.835  14.048  1.00  0.00     0.000 C 
HETATM   20  C   UNL     1     -43.415 -54.170  15.238  1.00  0.00     0.000 C 
HETATM   21  C   UNL     1     -42.175 -53.345  14.912  1.00  0.00     0.004 C 
HETATM   22  C   UNL     1     -42.498 -51.889  14.545  1.00  0.00     0.045 C 
BRANCH  16  23
HETATM   23  C   UNL     1     -42.158 -52.150  12.106  1.00  0.00    -0.046 C 
BRANCH  23  24
HETATM   24  N   UNL     1     -41.340 -52.545  11.233  1.00  0.00    -0.367 N 
ATOM     25  HN2 UNL     1     -42.047 -52.262  11.911  1.00  0.00     0.165 HD
ATOM     26  HN1 UNL     1     -40.677 -52.865  10.526  1.00  0.00     0.165 HD
ENDBRANCH  23  24
ENDBRANCH  16  23
ENDBRANCH   3  16
TORSDOF 6
ENDMDL
MODEL 3
REMARK VINA RESULT:      -6.6      2.059      3.291
REMARK  6 active torsions:
REMARK  status: ('A' for Active; 'I' for Inactive)
REMARK    1  A    between atoms: N_2  and  C_4 
REMARK    2  A    between atoms: N_9  and  C_10 
REMARK    3  A    between atoms: C_10  and  C_11 
REMARK       I    between atoms: C_11  and  N_13 
REMARK    4  A    between atoms: N_13  and  C_14 
REMARK    5  A    between atoms: C_14  and  C_21 
REMARK    6  A    between atoms: C_21  and  N_22 
ROOT
HETATM    1  C   UNL     1     -41.448 -50.532  12.464  1.00  0.00     0.237 C 
HETATM    2  O   UNL     1     -41.157 -50.241  13.622  1.00  0.00    -0.272 OA
HETATM    3  N   UNL     1     -42.543 -51.306  12.129  1.00  0.00    -0.339 N 
HETATM    4  H   UNL     1     -42.843 -51.284  11.155  1.00  0.00     0.164 HD
ENDROOT
BRANCH   1   5
HETATM    5  C   UNL     1     -40.630 -49.989  11.286  1.00  0.00     0.234 C 
BRANCH   5   6
HETATM    6  N   UNL     1     -40.894 -48.570  11.033  1.00  0.00    -0.314 N 
HETATM    7  C   UNL     1     -40.024 -47.641  11.600  1.00  0.00     0.247 A 
HETATM    8  C   UNL     1     -40.354 -46.204  11.370  1.00  0.00     0.077 A 
HETATM    9  O   UNL     1     -39.027 -47.947  12.246  1.00  0.00    -0.268 OA
HETATM   10  C   UNL     1     -41.393 -45.862  10.596  1.00  0.00     0.043 A 
HETATM   11  C   UNL     1     -42.215 -46.888   9.995  1.00  0.00     0.118 A 
HETATM   12  C   UNL     1     -41.969 -48.189  10.229  1.00  0.00     0.130 A 
BRANCH  11  13
HETATM   13  N   UNL     1     -43.340 -46.541   9.131  1.00  0.00    -0.114 N 
HETATM   14  O   UNL     1     -43.500 -45.351   8.828  1.00  0.00    -0.532 OA
HETATM   15  O   UNL     1     -44.060 -47.473   8.743  1.00  0.00    -0.532 OA
ENDBRANCH  11  13
ENDBRANCH   5   6
ENDBRANCH   1   5
BRANCH   3  16
HETATM   16  C   UNL     1     -43.476 -51.903  13.130  1.00  0.00     0.104 C 
HETATM   17  C   UNL     1     -44.253 -53.088  12.473  1.00  0.00     0.045 C 
HETATM   18  C   UNL     1     -44.974 -54.051  13.423  1.00  0.00     0.004 C 
HETATM   19  C   UNL     1     -46.327 -53.600  13.960  1.00  0.00     0.000 C 
HETATM   20  C   UNL     1     -46.578 -52.104  14.112  1.00  0.00     0.000 C 
HETATM   21  C   UNL     1     -45.442 -51.303  14.737  1.00  0.00     0.004 C 
HETATM   22  C   UNL     1     -44.408 -50.818  13.710  1.00  0.00     0.045 C 
BRANCH  16  23
HETATM   23  C   UNL     1     -42.668 -52.484  14.279  1.00  0.00    -0.046 C 
BRANCH  23  24
HETATM   24  N   UNL     1     -41.997 -52.967  15.231  1.00  0.00    -0.367 N 
ATOM     25  HN2 UNL     1     -42.593 -52.587  14.496  1.00  0.00     0.165 HD
ATOM     26  HN1 UNL     1     -41.453 -53.358  16.001  1.00  0.00     0.165 HD
ENDBRANCH  23  24
ENDBRANCH  16  23
ENDBRANCH   3  16
TORSDOF 6
ENDMDL
MODEL 4
REMARK VINA RESULT:      -6.6      2.525      6.391
REMARK  6 active torsions:
REMARK  status: ('A' for Active; 'I' for Inactive)
REMARK    1  A    between atoms: N_2  and  C_4 
REMARK    2  A    between atoms: N_9  and  C_10 
REMARK    3  A    between atoms: C_10  and  C_11 
REMARK       I    between atoms: C_11  and  N_13 
REMARK    4  A    between atoms: N_13  and  C_14 
REMARK    5  A    between atoms: C_14  and  C_21 
REMARK    6  A    between atoms: C_21  and  N_22 
ROOT
HETATM    1  C   UNL     1     -41.124 -50.693  12.205  1.00  0.00     0.237 C 
HETATM    2  O   UNL     1     -40.738 -50.250  13.285  1.00  0.00    -0.272 OA
HETATM    3  N   UNL     1     -41.604 -49.891  11.186  1.00  0.00    -0.339 N 
HETATM    4  H   UNL     1     -41.660 -50.310  10.258  1.00  0.00     0.164 HD
ENDROOT
BRANCH   1   5
HETATM    5  C   UNL     1     -41.035 -52.190  11.890  1.00  0.00     0.234 C 
BRANCH   5   6
HETATM    6  N   UNL     1     -41.908 -52.993  12.750  1.00  0.00    -0.314 N 
HETATM    7  C   UNL     1     -41.302 -53.782  13.726  1.00  0.00     0.247 A 
HETATM    8  C   UNL     1     -42.215 -54.630  14.547  1.00  0.00     0.077 A 
HETATM    9  O   UNL     1     -40.094 -53.798  13.937  1.00  0.00    -0.268 OA
HETATM   10  C   UNL     1     -43.543 -54.556  14.380  1.00  0.00     0.043 A 
HETATM   11  C   UNL     1     -44.098 -53.667  13.385  1.00  0.00     0.118 A 
HETATM   12  C   UNL     1     -43.293 -52.933  12.597  1.00  0.00     0.130 A 
BRANCH  11  13
HETATM   13  N   UNL     1     -45.542 -53.555  13.197  1.00  0.00    -0.114 N 
HETATM   14  O   UNL     1     -46.283 -54.016  14.075  1.00  0.00    -0.532 OA
HETATM   15  O   UNL     1     -45.932 -52.985  12.167  1.00  0.00    -0.532 OA
ENDBRANCH  11  13
ENDBRANCH   5   6
ENDBRANCH   1   5
BRANCH   3  16
HETATM   16  C   UNL     1     -41.740 -48.408  11.289  1.00  0.00     0.104 C 
HETATM   17  C   UNL     1     -40.324 -47.768  11.449  1.00  0.00     0.045 C 
HETATM   18  C   UNL     1     -40.218 -46.259  11.201  1.00  0.00     0.004 C 
HETATM   19  C   UNL     1     -40.644 -45.344  12.344  1.00  0.00     0.000 C 
HETATM   20  C   UNL     1     -41.709 -45.851  13.311  1.00  0.00     0.000 C 
HETATM   21  C   UNL     1     -42.913 -46.531  12.671  1.00  0.00     0.004 C 
HETATM   22  C   UNL     1     -42.703 -48.034  12.436  1.00  0.00     0.045 C 
BRANCH  16  23
HETATM   23  C   UNL     1     -42.327 -47.871   9.994  1.00  0.00    -0.046 C 
BRANCH  23  24
HETATM   24  N   UNL     1     -42.814 -47.426   8.919  1.00  0.00    -0.367 N 
ATOM     25  HN2 UNL     1     -42.472 -47.762   9.819  1.00  0.00     0.165 HD
ATOM     26  HN1 UNL     1     -43.207 -47.067   8.049  1.00  0.00     0.165 HD
ENDBRANCH  23  24
ENDBRANCH  16  23
ENDBRANCH   3  16
TORSDOF 6
ENDMDL
MODEL 5
REMARK VINA RESULT:      -6.2      1.333      2.734
REMARK  6 active torsions:
REMARK  status: ('A' for Active; 'I' for Inactive)
REMARK    1  A    between atoms: N_2  and  C_4 
REMARK    2  A    between atoms: N_9  and  C_10 
REMARK    3  A    between atoms: C_10  and  C_11 
REMARK       I    between atoms: C_11  and  N_13 
REMARK    4  A    between atoms: N_13  and  C_14 
REMARK    5  A    between atoms: C_14  and  C_21 
REMARK    6  A    between atoms: C_21  and  N_22 
ROOT
HETATM    1  C   UNL     1     -42.607 -52.458  12.726  1.00  0.00     0.237 C 
HETATM    2  O   UNL     1     -42.363 -52.854  13.864  1.00  0.00    -0.272 OA
HETATM    3  N   UNL     1     -43.890 -52.244  12.257  1.00  0.00    -0.339 N 
HETATM    4  H   UNL     1     -43.983 -51.686  11.409  1.00  0.00     0.164 HD
ENDROOT
BRANCH   1   5
HETATM    5  C   UNL     1     -41.474 -52.108  11.754  1.00  0.00     0.234 C 
BRANCH   5   6
HETATM    6  N   UNL     1     -40.651 -50.996  12.236  1.00  0.00    -0.314 N 
HETATM    7  C   UNL     1     -41.200 -49.716  12.179  1.00  0.00     0.247 A 
HETATM    8  C   UNL     1     -40.315 -48.601  12.624  1.00  0.00     0.077 A 
HETATM    9  O   UNL     1     -42.343 -49.481  11.804  1.00  0.00    -0.268 OA
HETATM   10  C   UNL     1     -39.094 -48.857  13.114  1.00  0.00     0.043 A 
HETATM   11  C   UNL     1     -38.619 -50.220  13.194  1.00  0.00     0.118 A 
HETATM   12  C   UNL     1     -39.378 -51.238  12.751  1.00  0.00     0.130 A 
BRANCH  11  13
HETATM   13  N   UNL     1     -37.300 -50.527  13.743  1.00  0.00    -0.114 N 
HETATM   14  O   UNL     1     -36.557 -51.275  13.094  1.00  0.00    -0.532 OA
HETATM   15  O   UNL     1     -37.005 -50.000  14.825  1.00  0.00    -0.532 OA
ENDBRANCH  11  13
ENDBRANCH   5   6
ENDBRANCH   1   5
BRANCH   3  16
HETATM   16  C   UNL     1     -45.121 -52.497  13.061  1.00  0.00     0.104 C 
HETATM   17  C   UNL     1     -45.228 -51.431  14.197  1.00  0.00     0.045 C 
HETATM   18  C   UNL     1     -46.589 -51.293  14.889  1.00  0.00     0.004 C 
HETATM   19  C   UNL     1     -46.918 -52.320  15.967  1.00  0.00     0.000 C 
HETATM   20  C   UNL     1     -46.296 -53.707  15.852  1.00  0.00     0.000 C 
HETATM   21  C   UNL     1     -46.332 -54.334  14.463  1.00  0.00     0.004 C 
HETATM   22  C   UNL     1     -45.129 -53.946  13.593  1.00  0.00     0.045 C 
BRANCH  16  23
HETATM   23  C   UNL     1     -46.342 -52.323  12.172  1.00  0.00    -0.046 C 
BRANCH  23  24
HETATM   24  N   UNL     1     -47.354 -52.179  11.433  1.00  0.00    -0.367 N 
ATOM     25  HN2 UNL     1     -46.506 -52.249  11.996  1.00  0.00     0.165 HD
ATOM     26  HN1 UNL     1     -48.173 -52.064  10.837  1.00  0.00     0.165 HD
ENDBRANCH  23  24
ENDBRANCH  16  23
ENDBRANCH   3  16
TORSDOF 6
ENDMDL
MODEL 6
REMARK VINA RESULT:      -6.2      2.046      2.647
REMARK  6 active torsions:
REMARK  status: ('A' for Active; 'I' for Inactive)
REMARK    1  A    between atoms: N_2  and  C_4 
REMARK    2  A    between atoms: N_9  and  C_10 
REMARK    3  A    between atoms: C_10  and  C_11 
REMARK       I    between atoms: C_11  and  N_13 
REMARK    4  A    between atoms: N_13  and  C_14 
REMARK    5  A    between atoms: C_14  and  C_21 
REMARK    6  A    between atoms: C_21  and  N_22 
ROOT
HETATM    1  C   UNL     1     -43.018 -50.258  12.825  1.00  0.00     0.237 C 
HETATM    2  O   UNL     1     -43.571 -49.408  13.521  1.00  0.00    -0.272 OA
HETATM    3  N   UNL     1     -43.527 -51.530  12.636  1.00  0.00    -0.339 N 
HETATM    4  H   UNL     1     -43.144 -52.067  11.858  1.00  0.00     0.164 HD
ENDROOT
BRANCH   1   5
HETATM    5  C   UNL     1     -41.733 -49.932  12.055  1.00  0.00     0.234 C 
BRANCH   5   6
HETATM    6  N   UNL     1     -41.699 -48.542  11.594  1.00  0.00    -0.314 N 
HETATM    7  C   UNL     1     -40.856 -47.660  12.267  1.00  0.00     0.247 A 
HETATM    8  C   UNL     1     -40.887 -46.240  11.809  1.00  0.00     0.077 A 
HETATM    9  O   UNL     1     -40.107 -47.994  13.179  1.00  0.00    -0.268 OA
HETATM   10  C   UNL     1     -41.639 -45.882  10.760  1.00  0.00     0.043 A 
HETATM   11  C   UNL     1     -42.443 -46.870  10.077  1.00  0.00     0.118 A 
HETATM   12  C   UNL     1     -42.472 -48.145  10.503  1.00  0.00     0.130 A 
BRANCH  11  13
HETATM   13  N   UNL     1     -43.256 -46.509   8.918  1.00  0.00    -0.114 N 
HETATM   14  O   UNL     1     -43.618 -47.413   8.153  1.00  0.00    -0.532 OA
HETATM   15  O   UNL     1     -43.545 -45.310   8.786  1.00  0.00    -0.532 OA
ENDBRANCH  11  13
ENDBRANCH   5   6
ENDBRANCH   1   5
BRANCH   3  16
HETATM   16  C   UNL     1     -44.780 -52.027  13.275  1.00  0.00     0.104 C 
HETATM   17  C   UNL     1     -45.059 -51.209  14.576  1.00  0.00     0.045 C 
HETATM   18  C   UNL     1     -46.469 -51.312  15.168  1.00  0.00     0.004 C 
HETATM   19  C   UNL     1     -46.772 -52.548  16.007  1.00  0.00     0.000 C 
HETATM   20  C   UNL     1     -46.019 -53.835  15.689  1.00  0.00     0.000 C 
HETATM   21  C   UNL     1     -45.907 -54.187  14.210  1.00  0.00     0.004 C 
HETATM   22  C   UNL     1     -44.689 -53.547  13.528  1.00  0.00     0.045 C 
BRANCH  16  23
HETATM   23  C   UNL     1     -45.950 -51.781  12.336  1.00  0.00    -0.046 C 
BRANCH  23  24
HETATM   24  N   UNL     1     -46.921 -51.576  11.558  1.00  0.00    -0.367 N 
ATOM     25  HN2 UNL     1     -46.098 -51.750  12.136  1.00  0.00     0.165 HD
ATOM     26  HN1 UNL     1     -47.707 -51.409  10.930  1.00  0.00     0.165 HD
ENDBRANCH  23  24
ENDBRANCH  16  23
ENDBRANCH   3  16
TORSDOF 6
ENDMDL
MODEL 7
REMARK VINA RESULT:      -6.0      2.842      3.527
REMARK  6 active torsions:
REMARK  status: ('A' for Active; 'I' for Inactive)
REMARK    1  A    between atoms: N_2  and  C_4 
REMARK    2  A    between atoms: N_9  and  C_10 
REMARK    3  A    between atoms: C_10  and  C_11 
REMARK       I    between atoms: C_11  and  N_13 
REMARK    4  A    between atoms: N_13  and  C_14 
REMARK    5  A    between atoms: C_14  and  C_21 
REMARK    6  A    between atoms: C_21  and  N_22 
ROOT
HETATM    1  C   UNL     1     -42.024 -54.027  14.104  1.00  0.00     0.237 C 
HETATM    2  O   UNL     1     -42.306 -54.101  12.910  1.00  0.00    -0.272 OA
HETATM    3  N   UNL     1     -42.950 -53.716  15.083  1.00  0.00    -0.339 N 
HETATM    4  H   UNL     1     -42.688 -53.924  16.047  1.00  0.00     0.164 HD
ENDROOT
BRANCH   1   5
HETATM    5  C   UNL     1     -40.609 -54.346  14.601  1.00  0.00     0.234 C 
BRANCH   5   6
HETATM    6  N   UNL     1     -39.802 -53.139  14.792  1.00  0.00    -0.314 N 
HETATM    7  C   UNL     1     -39.753 -52.592  16.073  1.00  0.00     0.247 A 
HETATM    8  C   UNL     1     -38.968 -51.331  16.221  1.00  0.00     0.077 A 
HETATM    9  O   UNL     1     -40.299 -53.094  17.050  1.00  0.00    -0.268 OA
HETATM   10  C   UNL     1     -38.300 -50.822  15.178  1.00  0.00     0.043 A 
HETATM   11  C   UNL     1     -38.354 -51.482  13.893  1.00  0.00     0.118 A 
HETATM   12  C   UNL     1     -39.096 -52.590  13.721  1.00  0.00     0.130 A 
BRANCH  11  13
HETATM   13  N   UNL     1     -37.618 -50.957  12.745  1.00  0.00    -0.114 N 
HETATM   14  O   UNL     1     -36.756 -51.677  12.224  1.00  0.00    -0.532 OA
HETATM   15  O   UNL     1     -37.920 -49.819  12.356  1.00  0.00    -0.532 OA
ENDBRANCH  11  13
ENDBRANCH   5   6
ENDBRANCH   1   5
BRANCH   3  16
HETATM   16  C   UNL     1     -44.382 -53.403  14.803  1.00  0.00     0.104 C 
HETATM   17  C   UNL     1     -44.465 -52.256  13.746  1.00  0.00     0.045 C 
HETATM   18  C   UNL     1     -45.820 -52.047  13.059  1.00  0.00     0.004 C 
HETATM   19  C   UNL     1     -46.870 -51.263  13.838  1.00  0.00     0.000 C 
HETATM   20  C   UNL     1     -46.826 -51.318  15.360  1.00  0.00     0.000 C 
HETATM   21  C   UNL     1     -46.610 -52.700  15.965  1.00  0.00     0.004 C 
HETATM   22  C   UNL     1     -45.127 -53.070  16.113  1.00  0.00     0.045 C 
BRANCH  16  23
HETATM   23  C   UNL     1     -45.047 -54.623  14.188  1.00  0.00    -0.046 C 
BRANCH  23  24
HETATM   24  N   UNL     1     -45.599 -55.635  13.676  1.00  0.00    -0.367 N 
ATOM     25  HN2 UNL     1     -45.211 -54.789  14.092  1.00  0.00     0.165 HD
ATOM     26  HN1 UNL     1     -46.043 -56.455  13.262  1.00  0.00     0.165 HD
ENDBRANCH  23  24
ENDBRANCH  16  23
ENDBRANCH   3  16
TORSDOF 6
ENDMDL
MODEL 8
REMARK VINA RESULT:      -5.9      3.299      4.641
REMARK  6 active torsions:
REMARK  status: ('A' for Active; 'I' for Inactive)
REMARK    1  A    between atoms: N_2  and  C_4 
REMARK    2  A    between atoms: N_9  and  C_10 
REMARK    3  A    between atoms: C_10  and  C_11 
REMARK       I    between atoms: C_11  and  N_13 
REMARK    4  A    between atoms: N_13  and  C_14 
REMARK    5  A    between atoms: C_14  and  C_21 
REMARK    6  A    between atoms: C_21  and  N_22 
ROOT
HETATM    1  C   UNL     1     -42.501 -49.535  13.349  1.00  0.00     0.237 C 
HETATM    2  O   UNL     1     -43.330 -50.192  12.723  1.00  0.00    -0.272 OA
HETATM    3  N   UNL     1     -41.351 -50.082  13.889  1.00  0.00    -0.339 N 
HETATM    4  H   UNL     1     -40.616 -49.430  14.163  1.00  0.00     0.164 HD
ENDROOT
BRANCH   1   5
HETATM    5  C   UNL     1     -42.662 -48.020  13.520  1.00  0.00     0.234 C 
BRANCH   5   6
HETATM    6  N   UNL     1     -42.124 -47.271  12.382  1.00  0.00    -0.314 N 
HETATM    7  C   UNL     1     -40.766 -46.957  12.401  1.00  0.00     0.247 A 
HETATM    8  C   UNL     1     -40.261 -46.145  11.255  1.00  0.00     0.077 A 
HETATM    9  O   UNL     1     -39.996 -47.318  13.284  1.00  0.00    -0.268 OA
HETATM   10  C   UNL     1     -41.078 -45.817  10.245  1.00  0.00     0.043 A 
HETATM   11  C   UNL     1     -42.462 -46.232  10.270  1.00  0.00     0.118 A 
HETATM   12  C   UNL     1     -42.953 -46.919  11.317  1.00  0.00     0.130 A 
BRANCH  11  13
HETATM   13  N   UNL     1     -43.367 -45.904   9.171  1.00  0.00    -0.114 N 
HETATM   14  O   UNL     1     -43.839 -44.760   9.125  1.00  0.00    -0.532 OA
HETATM   15  O   UNL     1     -43.592 -46.798   8.343  1.00  0.00    -0.532 OA
ENDBRANCH  11  13
ENDBRANCH   5   6
ENDBRANCH   1   5
BRANCH   3  16
HETATM   16  C   UNL     1     -41.000 -51.530  13.803  1.00  0.00     0.104 C 
HETATM   17  C   UNL     1     -41.995 -52.356  14.679  1.00  0.00     0.045 C 
HETATM   18  C   UNL     1     -42.036 -53.870  14.435  1.00  0.00     0.004 C 
HETATM   19  C   UNL     1     -40.937 -54.699  15.088  1.00  0.00     0.000 C 
HETATM   20  C   UNL     1     -39.586 -54.037  15.334  1.00  0.00     0.000 C 
HETATM   21  C   UNL     1     -39.037 -53.207  14.179  1.00  0.00     0.004 C 
HETATM   22  C   UNL     1     -39.524 -51.751  14.197  1.00  0.00     0.045 C 
BRANCH  16  23
HETATM   23  C   UNL     1     -41.174 -52.001  12.368  1.00  0.00    -0.046 C 
BRANCH  23  24
HETATM   24  N   UNL     1     -41.318 -52.390  11.178  1.00  0.00    -0.367 N 
ATOM     25  HN2 UNL     1     -41.255 -52.108  12.156  1.00  0.00     0.165 HD
ATOM     26  HN1 UNL     1     -41.433 -52.705  10.215  1.00  0.00     0.165 HD
ENDBRANCH  23  24
ENDBRANCH  16  23
ENDBRANCH   3  16
TORSDOF 6
ENDMDL
MODEL 9
REMARK VINA RESULT:      -5.9      3.560      7.567
REMARK  6 active torsions:
REMARK  status: ('A' for Active; 'I' for Inactive)
REMARK    1  A    between atoms: N_2  and  C_4 
REMARK    2  A    between atoms: N_9  and  C_10 
REMARK    3  A    between atoms: C_10  and  C_11 
REMARK       I    between atoms: C_11  and  N_13 
REMARK    4  A    between atoms: N_13  and  C_14 
REMARK    5  A    between atoms: C_14  and  C_21 
REMARK    6  A    between atoms: C_21  and  N_22 
ROOT
HETATM    1  C   UNL     1     -40.755 -51.998  13.026  1.00  0.00     0.237 C 
HETATM    2  O   UNL     1     -41.213 -51.343  13.960  1.00  0.00    -0.272 OA
HETATM    3  N   UNL     1     -39.794 -51.511  12.159  1.00  0.00    -0.339 N 
HETATM    4  H   UNL     1     -39.301 -52.196  11.586  1.00  0.00     0.164 HD
ENDROOT
BRANCH   1   5
HETATM    5  C   UNL     1     -41.185 -53.451  12.797  1.00  0.00     0.234 C 
BRANCH   5   6
HETATM    6  N   UNL     1     -41.237 -54.219  14.044  1.00  0.00    -0.314 N 
HETATM    7  C   UNL     1     -42.491 -54.613  14.507  1.00  0.00     0.247 A 
HETATM    8  C   UNL     1     -42.513 -55.343  15.808  1.00  0.00     0.077 A 
HETATM    9  O   UNL     1     -43.538 -54.402  13.903  1.00  0.00    -0.268 OA
HETATM   10  C   UNL     1     -41.368 -55.651  16.432  1.00  0.00     0.043 A 
HETATM   11  C   UNL     1     -40.102 -55.257  15.857  1.00  0.00     0.118 A 
HETATM   12  C   UNL     1     -40.059 -54.553  14.712  1.00  0.00     0.130 A 
BRANCH  11  13
HETATM   13  N   UNL     1     -38.840 -55.599  16.508  1.00  0.00    -0.114 N 
HETATM   14  O   UNL     1     -38.766 -55.478  17.738  1.00  0.00    -0.532 OA
HETATM   15  O   UNL     1     -37.923 -56.004  15.779  1.00  0.00    -0.532 OA
ENDBRANCH  11  13
ENDBRANCH   5   6
ENDBRANCH   1   5
BRANCH   3  16
HETATM   16  C   UNL     1     -39.227 -50.133  12.236  1.00  0.00     0.104 C 
HETATM   17  C   UNL     1     -38.645 -49.890  13.664  1.00  0.00     0.045 C 
HETATM   18  C   UNL     1     -37.702 -48.692  13.831  1.00  0.00     0.004 C 
HETATM   19  C   UNL     1     -38.354 -47.322  13.979  1.00  0.00     0.000 C 
HETATM   20  C   UNL     1     -39.710 -47.096  13.319  1.00  0.00     0.000 C 
HETATM   21  C   UNL     1     -39.848 -47.622  11.895  1.00  0.00     0.004 C 
HETATM   22  C   UNL     1     -40.292 -49.090  11.834  1.00  0.00     0.045 C 
BRANCH  16  23
HETATM   23  C   UNL     1     -38.069 -50.015  11.258  1.00  0.00    -0.046 C 
BRANCH  23  24
HETATM   24  N   UNL     1     -37.110 -49.918  10.446  1.00  0.00    -0.367 N 
ATOM     25  HN2 UNL     1     -37.900 -50.053  11.076  1.00  0.00     0.165 HD
ATOM     26  HN1 UNL     1     -36.333 -49.838   9.789  1.00  0.00     0.165 HD
ENDBRANCH  23  24
ENDBRANCH  16  23
ENDBRANCH   3  16
TORSDOF 6
ENDMDL
