MODEL 1
REMARK VINA RESULT:      -6.2      0.000      0.000
REMARK  5 active torsions:
REMARK  status: ('A' for Active; 'I' for Inactive)
REMARK    1  A    between atoms: C_2  and  N_3 
REMARK    2  A    between atoms: C_5  and  N_6 
REMARK       I    between atoms: N_6  and  C_7 
REMARK       I    between atoms: C_7  and  N_9 
REMARK    3  A    between atoms: N_9  and  C_10 
REMARK    4  A    between atoms: C_10  and  C_11 
REMARK    5  A    between atoms: C_11  and  N_13 
ROOT
HETATM    1  N   UNL     1     -41.686 -48.360   9.702  1.00  0.00    -0.306 N 
HETATM    2  C   UNL     1     -41.382 -48.993  10.887  1.00  0.00     0.320 C 
HETATM    3  O   UNL     1     -41.940 -48.815  11.964  1.00  0.00    -0.247 OA
HETATM    4  N   UNL     1     -40.333 -49.888  10.755  1.00  0.00    -0.341 N 
HETATM    5  H   UNL     1     -41.068 -48.484   8.918  1.00  0.00     0.171 HD
HETATM    6  H   UNL     1     -40.282 -50.364   9.866  1.00  0.00     0.164 HD
ENDROOT
BRANCH   1   7
HETATM    7  C   UNL     1     -42.723 -47.447   9.563  1.00  0.00     0.070 A 
HETATM    8  C   UNL     1     -44.007 -47.686   9.141  1.00  0.00     0.141 A 
HETATM    9  N   UNL     1     -44.658 -46.489   9.155  1.00  0.00    -0.302 N 
HETATM   10  N   UNL     1     -43.881 -45.467   9.564  1.00  0.00    -0.308 N 
HETATM   11  C   UNL     1     -42.706 -46.055   9.813  1.00  0.00     0.138 A 
ATOM     12  HN  UNL     1     -44.129 -44.482   9.660  1.00  0.00     0.186 HD
BRANCH   9  13
HETATM   13  C   UNL     1     -46.036 -46.267   8.763  1.00  0.00     0.143 C 
HETATM   14  C   UNL     1     -46.915 -47.464   9.082  1.00  0.00     0.028 C 
ENDBRANCH   9  13
ENDBRANCH   1   7
BRANCH   4  15
HETATM   15  C   UNL     1     -39.991 -50.661  11.944  1.00  0.00     0.159 C 
BRANCH  15  16
HETATM   16  C   UNL     1     -38.513 -50.572  12.404  1.00  0.00     0.236 C 
HETATM   17  C   UNL     1     -37.667 -49.927  11.294  1.00  0.00     0.044 C 
BRANCH  16  18
HETATM   18  N   UNL     1     -38.379 -49.798  13.660  1.00  0.00     0.094 N 
HETATM   19  C   UNL     1     -38.224 -48.351  13.461  1.00  0.00     0.273 C 
HETATM   20  C   UNL     1     -37.383 -47.847  14.630  1.00  0.00     0.032 C 
HETATM   21  C   UNL     1     -37.155 -49.064  15.503  1.00  0.00     0.032 C 
HETATM   22  C   UNL     1     -37.276 -50.219  14.529  1.00  0.00     0.273 C 
ENDBRANCH  16  18
ENDBRANCH  15  16
ENDBRANCH   4  15
TORSDOF 5
ENDMDL
MODEL 2
REMARK VINA RESULT:      -6.1      4.068      6.248
REMARK  5 active torsions:
REMARK  status: ('A' for Active; 'I' for Inactive)
REMARK    1  A    between atoms: C_2  and  N_3 
REMARK    2  A    between atoms: C_5  and  N_6 
REMARK       I    between atoms: N_6  and  C_7 
REMARK       I    between atoms: C_7  and  N_9 
REMARK    3  A    between atoms: N_9  and  C_10 
REMARK    4  A    between atoms: C_10  and  C_11 
REMARK    5  A    between atoms: C_11  and  N_13 
ROOT
HETATM    1  N   UNL     1     -40.983 -50.991  11.212  1.00  0.00    -0.306 N 
HETATM    2  C   UNL     1     -41.429 -51.668  12.326  1.00  0.00     0.320 C 
HETATM    3  O   UNL     1     -41.526 -51.208  13.459  1.00  0.00    -0.247 OA
HETATM    4  N   UNL     1     -41.768 -52.982  12.046  1.00  0.00    -0.341 N 
HETATM    5  H   UNL     1     -40.813 -51.512  10.369  1.00  0.00     0.171 HD
HETATM    6  H   UNL     1     -42.163 -53.139  11.131  1.00  0.00     0.164 HD
ENDROOT
BRANCH   1   7
HETATM    7  C   UNL     1     -40.619 -49.650  11.222  1.00  0.00     0.070 A 
HETATM    8  C   UNL     1     -41.375 -48.569  10.842  1.00  0.00     0.141 A 
HETATM    9  N   UNL     1     -40.597 -47.464  11.014  1.00  0.00    -0.302 N 
HETATM   10  N   UNL     1     -39.368 -47.747  11.489  1.00  0.00    -0.308 N 
HETATM   11  C   UNL     1     -39.388 -49.078  11.616  1.00  0.00     0.138 A 
ATOM     12  HN  UNL     1     -38.606 -47.102  11.700  1.00  0.00     0.186 HD
BRANCH   9  13
HETATM   13  C   UNL     1     -40.984 -46.098  10.718  1.00  0.00     0.143 C 
HETATM   14  C   UNL     1     -39.787 -45.237  10.355  1.00  0.00     0.028 C 
ENDBRANCH   9  13
ENDBRANCH   1   7
BRANCH   4  15
HETATM   15  C   UNL     1     -42.323 -53.754  13.153  1.00  0.00     0.159 C 
BRANCH  15  16
HETATM   16  C   UNL     1     -43.854 -53.992  13.107  1.00  0.00     0.236 C 
HETATM   17  C   UNL     1     -44.270 -54.897  14.277  1.00  0.00     0.044 C 
BRANCH  16  18
HETATM   18  N   UNL     1     -44.607 -52.716  13.159  1.00  0.00     0.094 N 
HETATM   19  C   UNL     1     -44.867 -52.228  14.520  1.00  0.00     0.273 C 
HETATM   20  C   UNL     1     -46.180 -51.453  14.451  1.00  0.00     0.032 C 
HETATM   21  C   UNL     1     -46.576 -51.480  12.989  1.00  0.00     0.032 C 
HETATM   22  C   UNL     1     -45.900 -52.734  12.468  1.00  0.00     0.273 C 
ENDBRANCH  16  18
ENDBRANCH  15  16
ENDBRANCH   4  15
TORSDOF 5
ENDMDL
MODEL 3
REMARK VINA RESULT:      -6.0      1.658      2.400
REMARK  5 active torsions:
REMARK  status: ('A' for Active; 'I' for Inactive)
REMARK    1  A    between atoms: C_2  and  N_3 
REMARK    2  A    between atoms: C_5  and  N_6 
REMARK       I    between atoms: N_6  and  C_7 
REMARK       I    between atoms: C_7  and  N_9 
REMARK    3  A    between atoms: N_9  and  C_10 
REMARK    4  A    between atoms: C_10  and  C_11 
REMARK    5  A    between atoms: C_11  and  N_13 
ROOT
HETATM    1  N   UNL     1     -41.899 -46.746   9.730  1.00  0.00    -0.306 N 
HETATM    2  C   UNL     1     -41.411 -47.381  10.851  1.00  0.00     0.320 C 
HETATM    3  O   UNL     1     -42.083 -47.845  11.767  1.00  0.00    -0.247 OA
HETATM    4  N   UNL     1     -40.028 -47.449  10.863  1.00  0.00    -0.341 N 
HETATM    5  H   UNL     1     -41.248 -46.283   9.119  1.00  0.00     0.171 HD
HETATM    6  H   UNL     1     -39.594 -47.554   9.957  1.00  0.00     0.164 HD
ENDROOT
BRANCH   1   7
HETATM    7  C   UNL     1     -43.252 -46.585   9.465  1.00  0.00     0.070 A 
HETATM    8  C   UNL     1     -44.234 -47.545   9.477  1.00  0.00     0.141 A 
HETATM    9  N   UNL     1     -45.399 -46.923   9.145  1.00  0.00    -0.302 N 
HETATM   10  N   UNL     1     -45.250 -45.604   8.913  1.00  0.00    -0.308 N 
HETATM   11  C   UNL     1     -43.943 -45.403   9.112  1.00  0.00     0.138 A 
ATOM     12  HN  UNL     1     -45.962 -44.923   8.649  1.00  0.00     0.186 HD
BRANCH   9  13
HETATM   13  C   UNL     1     -46.695 -47.560   9.016  1.00  0.00     0.143 C 
HETATM   14  C   UNL     1     -46.611 -48.863   8.240  1.00  0.00     0.028 C 
ENDBRANCH   9  13
ENDBRANCH   1   7
BRANCH   4  15
HETATM   15  C   UNL     1     -39.427 -48.173  11.977  1.00  0.00     0.159 C 
BRANCH  15  16
HETATM   16  C   UNL     1     -39.072 -49.657  11.703  1.00  0.00     0.236 C 
HETATM   17  C   UNL     1     -37.555 -49.794  11.496  1.00  0.00     0.044 C 
BRANCH  16  18
HETATM   18  N   UNL     1     -39.515 -50.538  12.809  1.00  0.00     0.094 N 
HETATM   19  C   UNL     1     -38.416 -51.154  13.564  1.00  0.00     0.273 C 
HETATM   20  C   UNL     1     -38.944 -52.494  14.069  1.00  0.00     0.032 C 
HETATM   21  C   UNL     1     -40.390 -52.540  13.620  1.00  0.00     0.032 C 
HETATM   22  C   UNL     1     -40.409 -51.629  12.408  1.00  0.00     0.273 C 
ENDBRANCH  16  18
ENDBRANCH  15  16
ENDBRANCH   4  15
TORSDOF 5
ENDMDL
MODEL 4
REMARK VINA RESULT:      -5.7      3.961      5.891
REMARK  5 active torsions:
REMARK  status: ('A' for Active; 'I' for Inactive)
REMARK    1  A    between atoms: C_2  and  N_3 
REMARK    2  A    between atoms: C_5  and  N_6 
REMARK       I    between atoms: N_6  and  C_7 
REMARK       I    between atoms: C_7  and  N_9 
REMARK    3  A    between atoms: N_9  and  C_10 
REMARK    4  A    between atoms: C_10  and  C_11 
REMARK    5  A    between atoms: C_11  and  N_13 
ROOT
HETATM    1  N   UNL     1     -41.534 -49.886  11.176  1.00  0.00    -0.306 N 
HETATM    2  C   UNL     1     -41.979 -50.353  12.393  1.00  0.00     0.320 C 
HETATM    3  O   UNL     1     -42.374 -49.665  13.329  1.00  0.00    -0.247 OA
HETATM    4  N   UNL     1     -41.936 -51.735  12.479  1.00  0.00    -0.341 N 
HETATM    5  H   UNL     1     -41.104 -50.536  10.540  1.00  0.00     0.171 HD
HETATM    6  H   UNL     1     -42.123 -52.226  11.618  1.00  0.00     0.164 HD
ENDROOT
BRANCH   1   7
HETATM    7  C   UNL     1     -41.516 -48.542  10.828  1.00  0.00     0.070 A 
HETATM    8  C   UNL     1     -40.650 -47.570  11.263  1.00  0.00     0.141 A 
HETATM    9  N   UNL     1     -41.027 -46.407  10.661  1.00  0.00    -0.302 N 
HETATM   10  N   UNL     1     -42.093 -46.550   9.849  1.00  0.00    -0.308 N 
HETATM   11  C   UNL     1     -42.385 -47.851   9.952  1.00  0.00     0.138 A 
ATOM     12  HN  UNL     1     -42.564 -45.838   9.290  1.00  0.00     0.186 HD
BRANCH   9  13
HETATM   13  C   UNL     1     -40.401 -45.112  10.848  1.00  0.00     0.143 C 
HETATM   14  C   UNL     1     -39.322 -44.851   9.811  1.00  0.00     0.028 C 
ENDBRANCH   9  13
ENDBRANCH   1   7
BRANCH   4  15
HETATM   15  C   UNL     1     -42.462 -52.322  13.707  1.00  0.00     0.159 C 
BRANCH  15  16
HETATM   16  C   UNL     1     -43.471 -53.483  13.520  1.00  0.00     0.236 C 
HETATM   17  C   UNL     1     -43.138 -54.617  14.503  1.00  0.00     0.044 C 
BRANCH  16  18
HETATM   18  N   UNL     1     -44.867 -53.031  13.721  1.00  0.00     0.094 N 
HETATM   19  C   UNL     1     -45.576 -52.698  12.478  1.00  0.00     0.273 C 
HETATM   20  C   UNL     1     -46.584 -51.611  12.839  1.00  0.00     0.032 C 
HETATM   21  C   UNL     1     -46.442 -51.425  14.335  1.00  0.00     0.032 C 
HETATM   22  C   UNL     1     -45.019 -51.874  14.609  1.00  0.00     0.273 C 
ENDBRANCH  16  18
ENDBRANCH  15  16
ENDBRANCH   4  15
TORSDOF 5
ENDMDL
MODEL 5
REMARK VINA RESULT:      -5.7      3.194      6.897
REMARK  5 active torsions:
REMARK  status: ('A' for Active; 'I' for Inactive)
REMARK    1  A    between atoms: C_2  and  N_3 
REMARK    2  A    between atoms: C_5  and  N_6 
REMARK       I    between atoms: N_6  and  C_7 
REMARK       I    between atoms: C_7  and  N_9 
REMARK    3  A    between atoms: N_9  and  C_10 
REMARK    4  A    between atoms: C_10  and  C_11 
REMARK    5  A    between atoms: C_11  and  N_13 
ROOT
HETATM    1  N   UNL     1     -41.375 -51.457  11.336  1.00  0.00    -0.306 N 
HETATM    2  C   UNL     1     -41.045 -50.192  11.770  1.00  0.00     0.320 C 
HETATM    3  O   UNL     1     -40.994 -49.821  12.938  1.00  0.00    -0.247 OA
HETATM    4  N   UNL     1     -40.768 -49.328  10.723  1.00  0.00    -0.341 N 
HETATM    5  H   UNL     1     -41.520 -51.604  10.351  1.00  0.00     0.171 HD
HETATM    6  H   UNL     1     -40.324 -49.750   9.922  1.00  0.00     0.164 HD
ENDROOT
BRANCH   1   7
HETATM    7  C   UNL     1     -41.656 -52.515  12.191  1.00  0.00     0.070 A 
HETATM    8  C   UNL     1     -42.883 -52.922  12.653  1.00  0.00     0.141 A 
HETATM    9  N   UNL     1     -42.663 -53.989  13.471  1.00  0.00    -0.302 N 
HETATM   10  N   UNL     1     -41.360 -54.317  13.578  1.00  0.00    -0.308 N 
HETATM   11  C   UNL     1     -40.752 -53.419  12.795  1.00  0.00     0.138 A 
ATOM     12  HN  UNL     1     -40.938 -55.068  14.124  1.00  0.00     0.186 HD
BRANCH   9  13
HETATM   13  C   UNL     1     -43.678 -54.728  14.196  1.00  0.00     0.143 C 
HETATM   14  C   UNL     1     -45.035 -54.638  13.518  1.00  0.00     0.028 C 
ENDBRANCH   9  13
ENDBRANCH   1   7
BRANCH   4  15
HETATM   15  C   UNL     1     -40.335 -47.985  11.094  1.00  0.00     0.159 C 
BRANCH  15  16
HETATM   16  C   UNL     1     -41.432 -46.890  11.060  1.00  0.00     0.236 C 
HETATM   17  C   UNL     1     -40.816 -45.559  10.599  1.00  0.00     0.044 C 
BRANCH  16  18
HETATM   18  N   UNL     1     -42.553 -47.267  10.168  1.00  0.00     0.094 N 
HETATM   19  C   UNL     1     -42.904 -46.241   9.177  1.00  0.00     0.273 C 
HETATM   20  C   UNL     1     -44.398 -46.399   8.911  1.00  0.00     0.032 C 
HETATM   21  C   UNL     1     -44.820 -47.595   9.739  1.00  0.00     0.032 C 
HETATM   22  C   UNL     1     -43.797 -47.623  10.857  1.00  0.00     0.273 C 
ENDBRANCH  16  18
ENDBRANCH  15  16
ENDBRANCH   4  15
TORSDOF 5
ENDMDL
MODEL 6
REMARK VINA RESULT:      -5.4      4.175      5.619
REMARK  5 active torsions:
REMARK  status: ('A' for Active; 'I' for Inactive)
REMARK    1  A    between atoms: C_2  and  N_3 
REMARK    2  A    between atoms: C_5  and  N_6 
REMARK       I    between atoms: N_6  and  C_7 
REMARK       I    between atoms: C_7  and  N_9 
REMARK    3  A    between atoms: N_9  and  C_10 
REMARK    4  A    between atoms: C_10  and  C_11 
REMARK    5  A    between atoms: C_11  and  N_13 
ROOT
HETATM    1  N   UNL     1     -42.290 -52.897  12.076  1.00  0.00    -0.306 N 
HETATM    2  C   UNL     1     -41.598 -51.742  12.371  1.00  0.00     0.320 C 
HETATM    3  O   UNL     1     -41.648 -51.121  13.427  1.00  0.00    -0.247 OA
HETATM    4  N   UNL     1     -40.806 -51.315  11.317  1.00  0.00    -0.341 N 
HETATM    5  H   UNL     1     -42.277 -53.236  11.129  1.00  0.00     0.171 HD
HETATM    6  H   UNL     1     -40.404 -52.050  10.755  1.00  0.00     0.164 HD
ENDROOT
BRANCH   1   7
HETATM    7  C   UNL     1     -43.120 -53.547  12.979  1.00  0.00     0.070 A 
HETATM    8  C   UNL     1     -44.490 -53.490  13.057  1.00  0.00     0.141 A 
HETATM    9  N   UNL     1     -44.859 -54.280  14.104  1.00  0.00    -0.302 N 
HETATM   10  N   UNL     1     -43.814 -54.862  14.725  1.00  0.00    -0.308 N 
HETATM   11  C   UNL     1     -42.759 -54.415  14.035  1.00  0.00     0.138 A 
ATOM     12  HN  UNL     1     -43.825 -55.492  15.528  1.00  0.00     0.186 HD
BRANCH   9  13
HETATM   13  C   UNL     1     -46.216 -54.500  14.565  1.00  0.00     0.143 C 
HETATM   14  C   UNL     1     -46.965 -53.193  14.760  1.00  0.00     0.028 C 
ENDBRANCH   9  13
ENDBRANCH   1   7
BRANCH   4  15
HETATM   15  C   UNL     1     -39.978 -50.140  11.567  1.00  0.00     0.159 C 
BRANCH  15  16
HETATM   16  C   UNL     1     -38.580 -50.419  12.177  1.00  0.00     0.236 C 
HETATM   17  C   UNL     1     -37.491 -49.893  11.228  1.00  0.00     0.044 C 
BRANCH  16  18
HETATM   18  N   UNL     1     -38.434 -49.796  13.513  1.00  0.00     0.094 N 
HETATM   19  C   UNL     1     -38.178 -48.350  13.478  1.00  0.00     0.273 C 
HETATM   20  C   UNL     1     -37.341 -48.035  14.715  1.00  0.00     0.032 C 
HETATM   21  C   UNL     1     -37.221 -49.351  15.453  1.00  0.00     0.032 C 
HETATM   22  C   UNL     1     -37.387 -50.384  14.355  1.00  0.00     0.273 C 
ENDBRANCH  16  18
ENDBRANCH  15  16
ENDBRANCH   4  15
TORSDOF 5
ENDMDL
MODEL 7
REMARK VINA RESULT:      -5.2      4.707      7.889
REMARK  5 active torsions:
REMARK  status: ('A' for Active; 'I' for Inactive)
REMARK    1  A    between atoms: C_2  and  N_3 
REMARK    2  A    between atoms: C_5  and  N_6 
REMARK       I    between atoms: N_6  and  C_7 
REMARK       I    between atoms: C_7  and  N_9 
REMARK    3  A    between atoms: N_9  and  C_10 
REMARK    4  A    between atoms: C_10  and  C_11 
REMARK    5  A    between atoms: C_11  and  N_13 
ROOT
HETATM    1  N   UNL     1     -40.602 -52.534  12.998  1.00  0.00    -0.306 N 
HETATM    2  C   UNL     1     -41.970 -52.440  12.868  1.00  0.00     0.320 C 
HETATM    3  O   UNL     1     -42.636 -51.415  12.965  1.00  0.00    -0.247 OA
HETATM    4  N   UNL     1     -42.563 -53.666  12.612  1.00  0.00    -0.341 N 
HETATM    5  H   UNL     1     -40.184 -53.448  13.038  1.00  0.00     0.171 HD
HETATM    6  H   UNL     1     -42.014 -54.301  12.051  1.00  0.00     0.164 HD
ENDROOT
BRANCH   1   7
HETATM    7  C   UNL     1     -39.774 -51.441  13.217  1.00  0.00     0.070 A 
HETATM    8  C   UNL     1     -39.337 -50.942  14.419  1.00  0.00     0.141 A 
HETATM    9  N   UNL     1     -38.559 -49.859  14.138  1.00  0.00    -0.302 N 
HETATM   10  N   UNL     1     -38.451 -49.610  12.818  1.00  0.00    -0.308 N 
HETATM   11  C   UNL     1     -39.189 -50.577  12.262  1.00  0.00     0.138 A 
ATOM     12  HN  UNL     1     -37.931 -48.865  12.355  1.00  0.00     0.186 HD
BRANCH   9  13
HETATM   13  C   UNL     1     -37.903 -49.009  15.113  1.00  0.00     0.143 C 
HETATM   14  C   UNL     1     -37.228 -47.816  14.459  1.00  0.00     0.028 C 
ENDBRANCH   9  13
ENDBRANCH   1   7
BRANCH   4  15
HETATM   15  C   UNL     1     -44.004 -53.651  12.383  1.00  0.00     0.159 C 
BRANCH  15  16
HETATM   16  C   UNL     1     -44.856 -54.445  13.406  1.00  0.00     0.236 C 
HETATM   17  C   UNL     1     -43.968 -54.899  14.575  1.00  0.00     0.044 C 
BRANCH  16  18
HETATM   18  N   UNL     1     -45.991 -53.639  13.913  1.00  0.00     0.094 N 
HETATM   19  C   UNL     1     -46.184 -52.363  13.211  1.00  0.00     0.273 C 
HETATM   20  C   UNL     1     -46.780 -51.399  14.232  1.00  0.00     0.032 C 
HETATM   21  C   UNL     1     -46.968 -52.225  15.488  1.00  0.00     0.032 C 
HETATM   22  C   UNL     1     -45.931 -53.321  15.344  1.00  0.00     0.273 C 
ENDBRANCH  16  18
ENDBRANCH  15  16
ENDBRANCH   4  15
TORSDOF 5
ENDMDL
MODEL 8
REMARK VINA RESULT:      -5.1      4.210      5.859
REMARK  5 active torsions:
REMARK  status: ('A' for Active; 'I' for Inactive)
REMARK    1  A    between atoms: C_2  and  N_3 
REMARK    2  A    between atoms: C_5  and  N_6 
REMARK       I    between atoms: N_6  and  C_7 
REMARK       I    between atoms: C_7  and  N_9 
REMARK    3  A    between atoms: N_9  and  C_10 
REMARK    4  A    between atoms: C_10  and  C_11 
REMARK    5  A    between atoms: C_11  and  N_13 
ROOT
HETATM    1  N   UNL     1     -42.617 -49.601  11.707  1.00  0.00    -0.306 N 
HETATM    2  C   UNL     1     -41.792 -50.670  11.979  1.00  0.00     0.320 C 
HETATM    3  O   UNL     1     -40.582 -50.716  11.785  1.00  0.00    -0.247 OA
HETATM    4  N   UNL     1     -42.481 -51.749  12.510  1.00  0.00    -0.341 N 
HETATM    5  H   UNL     1     -43.612 -49.732  11.776  1.00  0.00     0.171 HD
HETATM    6  H   UNL     1     -43.261 -51.511  13.104  1.00  0.00     0.164 HD
ENDROOT
BRANCH   1   7
HETATM    7  C   UNL     1     -42.163 -48.388  11.206  1.00  0.00     0.070 A 
HETATM    8  C   UNL     1     -41.383 -47.453  11.840  1.00  0.00     0.141 A 
HETATM    9  N   UNL     1     -41.205 -46.426  10.962  1.00  0.00    -0.302 N 
HETATM   10  N   UNL     1     -41.820 -46.625   9.780  1.00  0.00    -0.308 N 
HETATM   11  C   UNL     1     -42.399 -47.821   9.932  1.00  0.00     0.138 A 
ATOM     12  HN  UNL     1     -41.840 -46.012   8.965  1.00  0.00     0.186 HD
BRANCH   9  13
HETATM   13  C   UNL     1     -40.459 -45.209  11.218  1.00  0.00     0.143 C 
HETATM   14  C   UNL     1     -39.506 -44.881  10.082  1.00  0.00     0.028 C 
ENDBRANCH   9  13
ENDBRANCH   1   7
BRANCH   4  15
HETATM   15  C   UNL     1     -41.674 -52.900  12.900  1.00  0.00     0.159 C 
BRANCH  15  16
HETATM   16  C   UNL     1     -42.443 -54.063  13.578  1.00  0.00     0.236 C 
HETATM   17  C   UNL     1     -41.673 -54.531  14.824  1.00  0.00     0.044 C 
BRANCH  16  18
HETATM   18  N   UNL     1     -43.819 -53.662  13.952  1.00  0.00     0.094 N 
HETATM   19  C   UNL     1     -44.015 -53.458  15.393  1.00  0.00     0.273 C 
HETATM   20  C   UNL     1     -45.472 -53.809  15.680  1.00  0.00     0.032 C 
HETATM   21  C   UNL     1     -46.070 -54.138  14.328  1.00  0.00     0.032 C 
HETATM   22  C   UNL     1     -44.870 -54.587  13.516  1.00  0.00     0.273 C 
ENDBRANCH  16  18
ENDBRANCH  15  16
ENDBRANCH   4  15
TORSDOF 5
ENDMDL
MODEL 9
REMARK VINA RESULT:      -4.9      4.622      6.060
REMARK  5 active torsions:
REMARK  status: ('A' for Active; 'I' for Inactive)
REMARK    1  A    between atoms: C_2  and  N_3 
REMARK    2  A    between atoms: C_5  and  N_6 
REMARK       I    between atoms: N_6  and  C_7 
REMARK       I    between atoms: C_7  and  N_9 
REMARK    3  A    between atoms: N_9  and  C_10 
REMARK    4  A    between atoms: C_10  and  C_11 
REMARK    5  A    between atoms: C_11  and  N_13 
ROOT
HETATM    1  N   UNL     1     -41.973 -50.371  13.044  1.00  0.00    -0.306 N 
HETATM    2  C   UNL     1     -41.878 -51.732  12.849  1.00  0.00     0.320 C 
HETATM    3  O   UNL     1     -41.797 -52.301  11.766  1.00  0.00    -0.247 OA
HETATM    4  N   UNL     1     -41.891 -52.440  14.040  1.00  0.00    -0.341 N 
HETATM    5  H   UNL     1     -42.176 -50.031  13.968  1.00  0.00     0.171 HD
HETATM    6  H   UNL     1     -41.445 -51.979  14.819  1.00  0.00     0.164 HD
ENDROOT
BRANCH   1   7
HETATM    7  C   UNL     1     -41.942 -49.443  12.012  1.00  0.00     0.070 A 
HETATM    8  C   UNL     1     -42.965 -48.643  11.566  1.00  0.00     0.141 A 
HETATM    9  N   UNL     1     -42.470 -47.908  10.531  1.00  0.00    -0.302 N 
HETATM   10  N   UNL     1     -41.175 -48.171  10.264  1.00  0.00    -0.308 N 
HETATM   11  C   UNL     1     -40.858 -49.103  11.169  1.00  0.00     0.138 A 
ATOM     12  HN  UNL     1     -40.580 -47.758   9.545  1.00  0.00     0.186 HD
BRANCH   9  13
HETATM   13  C   UNL     1     -43.211 -46.940   9.745  1.00  0.00     0.143 C 
HETATM   14  C   UNL     1     -43.657 -47.517   8.413  1.00  0.00     0.028 C 
ENDBRANCH   9  13
ENDBRANCH   1   7
BRANCH   4  15
HETATM   15  C   UNL     1     -41.718 -53.884  13.933  1.00  0.00     0.159 C 
BRANCH  15  16
HETATM   16  C   UNL     1     -42.884 -54.745  14.484  1.00  0.00     0.236 C 
HETATM   17  C   UNL     1     -42.467 -55.382  15.819  1.00  0.00     0.044 C 
BRANCH  16  18
HETATM   18  N   UNL     1     -44.115 -53.942  14.667  1.00  0.00     0.094 N 
HETATM   19  C   UNL     1     -44.570 -53.848  16.061  1.00  0.00     0.273 C 
HETATM   20  C   UNL     1     -46.089 -53.709  16.006  1.00  0.00     0.032 C 
HETATM   21  C   UNL     1     -46.425 -53.656  14.530  1.00  0.00     0.032 C 
HETATM   22  C   UNL     1     -45.269 -54.393  13.882  1.00  0.00     0.273 C 
ENDBRANCH  16  18
ENDBRANCH  15  16
ENDBRANCH   4  15
TORSDOF 5
ENDMDL
