MODEL 1
REMARK VINA RESULT:      -5.9      0.000      0.000
REMARK  6 active torsions:
REMARK  status: ('A' for Active; 'I' for Inactive)
REMARK    1  A    between atoms: C_2  and  N_4 
REMARK       I    between atoms: N_4  and  C_5 
REMARK    2  A    between atoms: C_5  and  C_7 
REMARK    3  A    between atoms: C_7  and  N_8 
REMARK    4  A    between atoms: C_11  and  C_12 
REMARK    5  A    between atoms: C_12  and  N_13 
REMARK    6  A    between atoms: N_17  and  C_18 
ROOT
HETATM    1  N   UNL     1     -44.948 -54.147  14.783  1.00  0.00    -0.256 N 
HETATM    2  C   UNL     1     -45.341 -53.700  13.528  1.00  0.00     0.273 A 
HETATM    3  O   UNL     1     -44.971 -54.218  12.475  1.00  0.00    -0.266 OA
HETATM    4  C   UNL     1     -46.282 -52.566  13.512  1.00  0.00     0.110 A 
HETATM    5  C   UNL     1     -46.781 -52.118  14.666  1.00  0.00     0.123 A 
HETATM    6  N   UNL     1     -46.422 -52.659  15.881  1.00  0.00    -0.303 N 
HETATM    7  C   UNL     1     -45.488 -53.700  15.990  1.00  0.00     0.332 A 
HETATM    8  O   UNL     1     -45.191 -54.214  17.070  1.00  0.00    -0.246 OA
ENDROOT
BRANCH   1   9
HETATM    9  C   UNL     1     -43.904 -55.162  14.832  1.00  0.00     0.239 C 
BRANCH   9  10
HETATM   10  C   UNL     1     -42.533 -54.497  15.016  1.00  0.00     0.236 C 
HETATM   11  N   UNL     1     -41.914 -54.161  13.823  1.00  0.00    -0.356 N 
HETATM   12  H   UNL     1     -42.454 -54.198  12.967  1.00  0.00     0.162 HD
HETATM   13  O   UNL     1     -42.027 -54.292  16.116  1.00  0.00    -0.272 OA
BRANCH  11  14
HETATM   14  C   UNL     1     -40.630 -53.469  13.786  1.00  0.00     0.076 C 
HETATM   15  C   UNL     1     -39.487 -54.481  13.789  1.00  0.00     0.032 C 
HETATM   16  C   UNL     1     -40.537 -52.561  12.561  1.00  0.00     0.032 C 
ENDBRANCH  11  14
ENDBRANCH   9  10
ENDBRANCH   1   9
BRANCH   4  17
HETATM   17  C   UNL     1     -46.677 -51.907  12.201  1.00  0.00    -0.030 C 
BRANCH  17  18
HETATM   18  N   UNL     1     -47.005 -51.361  11.112  1.00  0.00    -0.365 N 
ATOM     19  HN2 UNL     1     -46.776 -51.810  11.999  1.00  0.00     0.165 HD
ATOM     20  HN1 UNL     1     -47.269 -50.920  10.231  1.00  0.00     0.165 HD
ENDBRANCH  17  18
ENDBRANCH   4  17
BRANCH   6  21
HETATM   21  C   UNL     1     -47.120 -52.177  17.054  1.00  0.00     0.094 A 
HETATM   22  C   UNL     1     -48.093 -51.020  17.005  1.00  0.00     0.028 A 
HETATM   23  C   UNL     1     -46.778 -50.858  17.701  1.00  0.00     0.028 A 
ENDBRANCH   6  21
TORSDOF 6
ENDMDL
MODEL 2
REMARK VINA RESULT:      -5.9      1.802      2.493
REMARK  6 active torsions:
REMARK  status: ('A' for Active; 'I' for Inactive)
REMARK    1  A    between atoms: C_2  and  N_4 
REMARK       I    between atoms: N_4  and  C_5 
REMARK    2  A    between atoms: C_5  and  C_7 
REMARK    3  A    between atoms: C_7  and  N_8 
REMARK    4  A    between atoms: C_11  and  C_12 
REMARK    5  A    between atoms: C_12  and  N_13 
REMARK    6  A    between atoms: N_17  and  C_18 
ROOT
HETATM    1  N   UNL     1     -44.161 -52.913  14.381  1.00  0.00    -0.256 N 
HETATM    2  C   UNL     1     -44.860 -52.827  13.183  1.00  0.00     0.273 A 
HETATM    3  O   UNL     1     -44.539 -53.436  12.164  1.00  0.00    -0.266 OA
HETATM    4  C   UNL     1     -46.064 -51.978  13.199  1.00  0.00     0.110 A 
HETATM    5  C   UNL     1     -46.471 -51.447  14.354  1.00  0.00     0.123 A 
HETATM    6  N   UNL     1     -45.786 -51.639  15.533  1.00  0.00    -0.303 N 
HETATM    7  C   UNL     1     -44.599 -52.383  15.596  1.00  0.00     0.332 A 
HETATM    8  O   UNL     1     -44.001 -52.591  16.654  1.00  0.00    -0.246 OA
ENDROOT
BRANCH   1   9
HETATM    9  C   UNL     1     -42.886 -53.619  14.360  1.00  0.00     0.239 C 
BRANCH   9  10
HETATM   10  C   UNL     1     -43.017 -54.961  15.093  1.00  0.00     0.236 C 
HETATM   11  N   UNL     1     -42.040 -55.166  16.054  1.00  0.00    -0.356 N 
HETATM   12  H   UNL     1     -41.455 -54.386  16.328  1.00  0.00     0.162 HD
HETATM   13  O   UNL     1     -43.896 -55.781  14.844  1.00  0.00    -0.272 OA
BRANCH  11  14
HETATM   14  C   UNL     1     -42.024 -56.355  16.900  1.00  0.00     0.076 C 
HETATM   15  C   UNL     1     -40.601 -56.894  17.021  1.00  0.00     0.032 C 
HETATM   16  C   UNL     1     -42.600 -56.048  18.281  1.00  0.00     0.032 C 
ENDBRANCH  11  14
ENDBRANCH   9  10
ENDBRANCH   1   9
BRANCH   4  17
HETATM   17  C   UNL     1     -46.831 -51.701  11.917  1.00  0.00    -0.030 C 
BRANCH  17  18
HETATM   18  N   UNL     1     -47.468 -51.471  10.853  1.00  0.00    -0.365 N 
ATOM     19  HN2 UNL     1     -46.926 -51.674  11.693  1.00  0.00     0.165 HD
ATOM     20  HN1 UNL     1     -47.984 -51.284   9.993  1.00  0.00     0.165 HD
ENDBRANCH  17  18
ENDBRANCH   4  17
BRANCH   6  21
HETATM   21  C   UNL     1     -46.389 -51.120  16.742  1.00  0.00     0.094 A 
HETATM   22  C   UNL     1     -47.158 -51.992  17.710  1.00  0.00     0.028 A 
HETATM   23  C   UNL     1     -47.882 -50.970  16.890  1.00  0.00     0.028 A 
ENDBRANCH   6  21
TORSDOF 6
ENDMDL
MODEL 3
REMARK VINA RESULT:      -5.8      5.081      7.824
REMARK  6 active torsions:
REMARK  status: ('A' for Active; 'I' for Inactive)
REMARK    1  A    between atoms: C_2  and  N_4 
REMARK       I    between atoms: N_4  and  C_5 
REMARK    2  A    between atoms: C_5  and  C_7 
REMARK    3  A    between atoms: C_7  and  N_8 
REMARK    4  A    between atoms: C_11  and  C_12 
REMARK    5  A    between atoms: C_12  and  N_13 
REMARK    6  A    between atoms: N_17  and  C_18 
ROOT
HETATM    1  N   UNL     1     -41.984 -48.688  12.289  1.00  0.00    -0.256 N 
HETATM    2  C   UNL     1     -40.631 -48.564  11.998  1.00  0.00     0.273 A 
HETATM    3  O   UNL     1     -40.036 -47.488  11.977  1.00  0.00    -0.266 OA
HETATM    4  C   UNL     1     -39.908 -49.823  11.744  1.00  0.00     0.110 A 
HETATM    5  C   UNL     1     -40.542 -50.985  11.916  1.00  0.00     0.123 A 
HETATM    6  N   UNL     1     -41.865 -51.050  12.294  1.00  0.00    -0.303 N 
HETATM    7  C   UNL     1     -42.644 -49.901  12.498  1.00  0.00     0.332 A 
HETATM    8  O   UNL     1     -43.817 -49.952  12.873  1.00  0.00    -0.246 OA
ENDROOT
BRANCH   1   9
HETATM    9  C   UNL     1     -42.758 -47.459  12.394  1.00  0.00     0.239 C 
BRANCH   9  10
HETATM   10  C   UNL     1     -43.136 -46.956  10.994  1.00  0.00     0.236 C 
HETATM   11  N   UNL     1     -44.082 -47.743  10.357  1.00  0.00    -0.356 N 
HETATM   12  H   UNL     1     -44.574 -48.445  10.897  1.00  0.00     0.162 HD
HETATM   13  O   UNL     1     -42.638 -45.957  10.481  1.00  0.00    -0.272 OA
BRANCH  11  14
HETATM   14  C   UNL     1     -44.615 -47.401   9.043  1.00  0.00     0.076 C 
HETATM   15  C   UNL     1     -43.664 -47.882   7.950  1.00  0.00     0.032 C 
HETATM   16  C   UNL     1     -46.005 -48.004   8.846  1.00  0.00     0.032 C 
ENDBRANCH  11  14
ENDBRANCH   9  10
ENDBRANCH   1   9
BRANCH   4  17
HETATM   17  C   UNL     1     -38.460 -49.803  11.284  1.00  0.00    -0.030 C 
BRANCH  17  18
HETATM   18  N   UNL     1     -37.257 -49.787  10.903  1.00  0.00    -0.365 N 
ATOM     19  HN2 UNL     1     -38.217 -49.799  11.247  1.00  0.00     0.165 HD
ATOM     20  HN1 UNL     1     -36.285 -49.774  10.594  1.00  0.00     0.165 HD
ENDBRANCH  17  18
ENDBRANCH   4  17
BRANCH   6  21
HETATM   21  C   UNL     1     -42.412 -52.362  12.571  1.00  0.00     0.094 A 
HETATM   22  C   UNL     1     -42.382 -52.983  13.949  1.00  0.00     0.028 A 
HETATM   23  C   UNL     1     -41.529 -53.550  12.858  1.00  0.00     0.028 A 
ENDBRANCH   6  21
TORSDOF 6
ENDMDL
MODEL 4
REMARK VINA RESULT:      -5.8      3.704      6.149
REMARK  6 active torsions:
REMARK  status: ('A' for Active; 'I' for Inactive)
REMARK    1  A    between atoms: C_2  and  N_4 
REMARK       I    between atoms: N_4  and  C_5 
REMARK    2  A    between atoms: C_5  and  C_7 
REMARK    3  A    between atoms: C_7  and  N_8 
REMARK    4  A    between atoms: C_11  and  C_12 
REMARK    5  A    between atoms: C_12  and  N_13 
REMARK    6  A    between atoms: N_17  and  C_18 
ROOT
HETATM    1  N   UNL     1     -42.292 -50.980  13.357  1.00  0.00    -0.256 N 
HETATM    2  C   UNL     1     -41.145 -51.733  13.574  1.00  0.00     0.273 A 
HETATM    3  O   UNL     1     -40.058 -51.245  13.878  1.00  0.00    -0.266 OA
HETATM    4  C   UNL     1     -41.302 -53.194  13.458  1.00  0.00     0.110 A 
HETATM    5  C   UNL     1     -42.520 -53.706  13.272  1.00  0.00     0.123 A 
HETATM    6  N   UNL     1     -43.639 -52.912  13.153  1.00  0.00    -0.303 N 
HETATM    7  C   UNL     1     -43.572 -51.512  13.191  1.00  0.00     0.332 A 
HETATM    8  O   UNL     1     -44.574 -50.797  13.122  1.00  0.00    -0.246 OA
ENDROOT
BRANCH   1   9
HETATM    9  C   UNL     1     -42.139 -49.532  13.313  1.00  0.00     0.239 C 
BRANCH   9  10
HETATM   10  C   UNL     1     -42.099 -49.053  11.855  1.00  0.00     0.236 C 
HETATM   11  N   UNL     1     -43.204 -48.302  11.487  1.00  0.00    -0.356 N 
HETATM   12  H   UNL     1     -43.834 -47.976  12.209  1.00  0.00     0.162 HD
HETATM   13  O   UNL     1     -41.181 -49.320  11.084  1.00  0.00    -0.272 OA
BRANCH  11  14
HETATM   14  C   UNL     1     -43.327 -47.707  10.160  1.00  0.00     0.076 C 
HETATM   15  C   UNL     1     -44.799 -47.583   9.775  1.00  0.00     0.032 C 
HETATM   16  C   UNL     1     -42.645 -46.341  10.112  1.00  0.00     0.032 C 
ENDBRANCH  11  14
ENDBRANCH   9  10
ENDBRANCH   1   9
BRANCH   4  17
HETATM   17  C   UNL     1     -40.092 -54.110  13.541  1.00  0.00    -0.030 C 
BRANCH  17  18
HETATM   18  N   UNL     1     -39.087 -54.870  13.610  1.00  0.00    -0.365 N 
ATOM     19  HN2 UNL     1     -39.899 -54.252  13.592  1.00  0.00     0.165 HD
ATOM     20  HN1 UNL     1     -38.275 -55.484  13.665  1.00  0.00     0.165 HD
ENDBRANCH  17  18
ENDBRANCH   4  17
BRANCH   6  21
HETATM   21  C   UNL     1     -44.921 -53.581  13.079  1.00  0.00     0.094 A 
HETATM   22  C   UNL     1     -45.813 -53.769  14.286  1.00  0.00     0.028 A 
HETATM   23  C   UNL     1     -45.142 -54.953  13.664  1.00  0.00     0.028 A 
ENDBRANCH   6  21
TORSDOF 6
ENDMDL
MODEL 5
REMARK VINA RESULT:      -5.7      8.280     10.388
REMARK  6 active torsions:
REMARK  status: ('A' for Active; 'I' for Inactive)
REMARK    1  A    between atoms: C_2  and  N_4 
REMARK       I    between atoms: N_4  and  C_5 
REMARK    2  A    between atoms: C_5  and  C_7 
REMARK    3  A    between atoms: C_7  and  N_8 
REMARK    4  A    between atoms: C_11  and  C_12 
REMARK    5  A    between atoms: C_12  and  N_13 
REMARK    6  A    between atoms: N_17  and  C_18 
ROOT
HETATM    1  N   UNL     1     -41.892 -45.377  10.636  1.00  0.00    -0.256 N 
HETATM    2  C   UNL     1     -41.253 -46.535  11.062  1.00  0.00     0.273 A 
HETATM    3  O   UNL     1     -40.345 -46.544  11.890  1.00  0.00    -0.266 OA
HETATM    4  C   UNL     1     -41.753 -47.796  10.486  1.00  0.00     0.110 A 
HETATM    5  C   UNL     1     -42.833 -47.772   9.703  1.00  0.00     0.123 A 
HETATM    6  N   UNL     1     -43.484 -46.600   9.385  1.00  0.00    -0.303 N 
HETATM    7  C   UNL     1     -43.039 -45.349   9.840  1.00  0.00     0.332 A 
HETATM    8  O   UNL     1     -43.637 -44.301   9.590  1.00  0.00    -0.246 OA
ENDROOT
BRANCH   1   9
HETATM    9  C   UNL     1     -41.325 -44.106  11.065  1.00  0.00     0.239 C 
BRANCH   9  10
HETATM   10  C   UNL     1     -42.254 -43.435  12.086  1.00  0.00     0.236 C 
HETATM   11  N   UNL     1     -42.724 -42.196  11.679  1.00  0.00    -0.356 N 
HETATM   12  H   UNL     1     -42.587 -41.916  10.716  1.00  0.00     0.162 HD
HETATM   13  O   UNL     1     -42.545 -43.941  13.167  1.00  0.00    -0.272 OA
BRANCH  11  14
HETATM   14  C   UNL     1     -43.664 -41.423  12.483  1.00  0.00     0.076 C 
HETATM   15  C   UNL     1     -42.911 -40.416  13.350  1.00  0.00     0.032 C 
HETATM   16  C   UNL     1     -44.681 -40.709  11.595  1.00  0.00     0.032 C 
ENDBRANCH  11  14
ENDBRANCH   9  10
ENDBRANCH   1   9
BRANCH   4  17
HETATM   17  C   UNL     1     -41.046 -49.110  10.774  1.00  0.00    -0.030 C 
BRANCH  17  18
HETATM   18  N   UNL     1     -40.459 -50.201  11.012  1.00  0.00    -0.365 N 
ATOM     19  HN2 UNL     1     -40.905 -49.309  10.797  1.00  0.00     0.165 HD
ATOM     20  HN1 UNL     1     -39.986 -51.084  11.204  1.00  0.00     0.165 HD
ENDBRANCH  17  18
ENDBRANCH   4  17
BRANCH   6  21
HETATM   21  C   UNL     1     -44.714 -46.708   8.631  1.00  0.00     0.094 A 
HETATM   22  C   UNL     1     -46.058 -46.925   9.290  1.00  0.00     0.028 A 
HETATM   23  C   UNL     1     -45.443 -48.019   8.475  1.00  0.00     0.028 A 
ENDBRANCH   6  21
TORSDOF 6
ENDMDL
MODEL 6
REMARK VINA RESULT:      -5.7      5.270      8.363
REMARK  6 active torsions:
REMARK  status: ('A' for Active; 'I' for Inactive)
REMARK    1  A    between atoms: C_2  and  N_4 
REMARK       I    between atoms: N_4  and  C_5 
REMARK    2  A    between atoms: C_5  and  C_7 
REMARK    3  A    between atoms: C_7  and  N_8 
REMARK    4  A    between atoms: C_11  and  C_12 
REMARK    5  A    between atoms: C_12  and  N_13 
REMARK    6  A    between atoms: N_17  and  C_18 
ROOT
HETATM    1  N   UNL     1     -41.699 -48.375  12.426  1.00  0.00    -0.256 N 
HETATM    2  C   UNL     1     -42.398 -49.570  12.313  1.00  0.00     0.273 A 
HETATM    3  O   UNL     1     -43.613 -49.633  12.136  1.00  0.00    -0.266 OA
HETATM    4  C   UNL     1     -41.588 -50.800  12.379  1.00  0.00     0.110 A 
HETATM    5  C   UNL     1     -40.258 -50.701  12.425  1.00  0.00     0.123 A 
HETATM    6  N   UNL     1     -39.612 -49.485  12.444  1.00  0.00    -0.303 N 
HETATM    7  C   UNL     1     -40.307 -48.267  12.445  1.00  0.00     0.332 A 
HETATM    8  O   UNL     1     -39.735 -47.176  12.424  1.00  0.00    -0.246 OA
ENDROOT
BRANCH   1   9
HETATM    9  C   UNL     1     -42.483 -47.151  12.518  1.00  0.00     0.239 C 
BRANCH   9  10
HETATM   10  C   UNL     1     -42.788 -46.615  11.112  1.00  0.00     0.236 C 
HETATM   11  N   UNL     1     -43.901 -47.196  10.525  1.00  0.00    -0.356 N 
HETATM   12  H   UNL     1     -44.515 -47.761  11.100  1.00  0.00     0.162 HD
HETATM   13  O   UNL     1     -42.103 -45.762  10.554  1.00  0.00    -0.272 OA
BRANCH  11  14
HETATM   14  C   UNL     1     -44.389 -46.782   9.215  1.00  0.00     0.076 C 
HETATM   15  C   UNL     1     -43.694 -47.585   8.118  1.00  0.00     0.032 C 
HETATM   16  C   UNL     1     -45.904 -46.949   9.120  1.00  0.00     0.032 C 
ENDBRANCH  11  14
ENDBRANCH   9  10
ENDBRANCH   1   9
BRANCH   4  17
HETATM   17  C   UNL     1     -42.255 -52.165  12.403  1.00  0.00    -0.030 C 
BRANCH  17  18
HETATM   18  N   UNL     1     -42.809 -53.298  12.421  1.00  0.00    -0.365 N 
ATOM     19  HN2 UNL     1     -42.373 -52.377  12.371  1.00  0.00     0.165 HD
ATOM     20  HN1 UNL     1     -43.257 -54.214  12.437  1.00  0.00     0.165 HD
ENDBRANCH  17  18
ENDBRANCH   4  17
BRANCH   6  21
HETATM   21  C   UNL     1     -38.166 -49.501  12.368  1.00  0.00     0.094 A 
HETATM   22  C   UNL     1     -37.420 -49.869  11.104  1.00  0.00     0.028 A 
HETATM   23  C   UNL     1     -37.384 -50.788  12.284  1.00  0.00     0.028 A 
ENDBRANCH   6  21
TORSDOF 6
ENDMDL
MODEL 7
REMARK VINA RESULT:      -5.6      2.633      5.159
REMARK  6 active torsions:
REMARK  status: ('A' for Active; 'I' for Inactive)
REMARK    1  A    between atoms: C_2  and  N_4 
REMARK       I    between atoms: N_4  and  C_5 
REMARK    2  A    between atoms: C_5  and  C_7 
REMARK    3  A    between atoms: C_7  and  N_8 
REMARK    4  A    between atoms: C_11  and  C_12 
REMARK    5  A    between atoms: C_12  and  N_13 
REMARK    6  A    between atoms: N_17  and  C_18 
ROOT
HETATM    1  N   UNL     1     -41.927 -53.607  13.224  1.00  0.00    -0.256 N 
HETATM    2  C   UNL     1     -41.371 -54.210  14.345  1.00  0.00     0.273 A 
HETATM    3  O   UNL     1     -40.190 -54.090  14.666  1.00  0.00    -0.266 OA
HETATM    4  C   UNL     1     -42.297 -54.993  15.182  1.00  0.00     0.110 A 
HETATM    5  C   UNL     1     -43.600 -54.987  14.894  1.00  0.00     0.123 A 
HETATM    6  N   UNL     1     -44.110 -54.296  13.817  1.00  0.00    -0.303 N 
HETATM    7  C   UNL     1     -43.292 -53.575  12.934  1.00  0.00     0.332 A 
HETATM    8  O   UNL     1     -43.746 -52.924  11.991  1.00  0.00    -0.246 OA
ENDROOT
BRANCH   1   9
HETATM    9  C   UNL     1     -41.013 -52.955  12.296  1.00  0.00     0.239 C 
BRANCH   9  10
HETATM   10  C   UNL     1     -40.935 -51.453  12.603  1.00  0.00     0.236 C 
HETATM   11  N   UNL     1     -41.687 -50.670  11.742  1.00  0.00    -0.356 N 
HETATM   12  H   UNL     1     -42.350 -51.124  11.125  1.00  0.00     0.162 HD
HETATM   13  O   UNL     1     -40.260 -50.988  13.517  1.00  0.00    -0.272 OA
BRANCH  11  14
HETATM   14  C   UNL     1     -41.791 -49.224  11.902  1.00  0.00     0.076 C 
HETATM   15  C   UNL     1     -41.546 -48.528  10.566  1.00  0.00     0.032 C 
HETATM   16  C   UNL     1     -43.156 -48.835  12.466  1.00  0.00     0.032 C 
ENDBRANCH  11  14
ENDBRANCH   9  10
ENDBRANCH   1   9
BRANCH   4  17
HETATM   17  C   UNL     1     -41.777 -55.806  16.357  1.00  0.00    -0.030 C 
BRANCH  17  18
HETATM   18  N   UNL     1     -41.346 -56.479  17.332  1.00  0.00    -0.365 N 
ATOM     19  HN2 UNL     1     -41.691 -55.904  16.565  1.00  0.00     0.165 HD
ATOM     20  HN1 UNL     1     -40.997 -57.025  18.120  1.00  0.00     0.165 HD
ENDBRANCH  17  18
ENDBRANCH   4  17
BRANCH   6  21
HETATM   21  C   UNL     1     -45.550 -54.260  13.675  1.00  0.00     0.094 A 
HETATM   22  C   UNL     1     -46.405 -53.183  14.306  1.00  0.00     0.028 A 
HETATM   23  C   UNL     1     -46.475 -54.587  14.820  1.00  0.00     0.028 A 
ENDBRANCH   6  21
TORSDOF 6
ENDMDL
MODEL 8
REMARK VINA RESULT:      -5.6      1.904      5.534
REMARK  6 active torsions:
REMARK  status: ('A' for Active; 'I' for Inactive)
REMARK    1  A    between atoms: C_2  and  N_4 
REMARK       I    between atoms: N_4  and  C_5 
REMARK    2  A    between atoms: C_5  and  C_7 
REMARK    3  A    between atoms: C_7  and  N_8 
REMARK    4  A    between atoms: C_11  and  C_12 
REMARK    5  A    between atoms: C_12  and  N_13 
REMARK    6  A    between atoms: N_17  and  C_18 
ROOT
HETATM    1  N   UNL     1     -43.470 -54.274  14.105  1.00  0.00    -0.256 N 
HETATM    2  C   UNL     1     -43.132 -53.290  13.184  1.00  0.00     0.273 A 
HETATM    3  O   UNL     1     -43.960 -52.631  12.559  1.00  0.00    -0.266 OA
HETATM    4  C   UNL     1     -41.691 -53.036  13.013  1.00  0.00     0.110 A 
HETATM    5  C   UNL     1     -40.820 -53.660  13.808  1.00  0.00     0.123 A 
HETATM    6  N   UNL     1     -41.219 -54.563  14.768  1.00  0.00    -0.303 N 
HETATM    7  C   UNL     1     -42.565 -54.909  14.958  1.00  0.00     0.332 A 
HETATM    8  O   UNL     1     -42.933 -55.688  15.839  1.00  0.00    -0.246 OA
ENDROOT
BRANCH   1   9
HETATM    9  C   UNL     1     -44.873 -54.657  14.186  1.00  0.00     0.239 C 
BRANCH   9  10
HETATM   10  C   UNL     1     -45.527 -53.996  15.408  1.00  0.00     0.236 C 
HETATM   11  N   UNL     1     -45.484 -52.611  15.380  1.00  0.00    -0.356 N 
HETATM   12  H   UNL     1     -45.214 -52.150  14.520  1.00  0.00     0.162 HD
HETATM   13  O   UNL     1     -46.029 -54.634  16.330  1.00  0.00    -0.272 OA
BRANCH  11  14
HETATM   14  C   UNL     1     -46.102 -51.797  16.421  1.00  0.00     0.076 C 
HETATM   15  C   UNL     1     -45.285 -50.528  16.649  1.00  0.00     0.032 C 
HETATM   16  C   UNL     1     -47.543 -51.447  16.055  1.00  0.00     0.032 C 
ENDBRANCH  11  14
ENDBRANCH   9  10
ENDBRANCH   1   9
BRANCH   4  17
HETATM   17  C   UNL     1     -41.197 -52.079  11.940  1.00  0.00    -0.030 C 
BRANCH  17  18
HETATM   18  N   UNL     1     -40.788 -51.285  11.049  1.00  0.00    -0.365 N 
ATOM     19  HN2 UNL     1     -41.151 -51.907  11.772  1.00  0.00     0.165 HD
ATOM     20  HN1 UNL     1     -40.457 -50.643  10.329  1.00  0.00     0.165 HD
ENDBRANCH  17  18
ENDBRANCH   4  17
BRANCH   6  21
HETATM   21  C   UNL     1     -40.199 -55.084  15.654  1.00  0.00     0.094 A 
HETATM   22  C   UNL     1     -39.863 -54.438  16.980  1.00  0.00     0.028 A 
HETATM   23  C   UNL     1     -38.879 -54.382  15.853  1.00  0.00     0.028 A 
ENDBRANCH   6  21
TORSDOF 6
ENDMDL
MODEL 9
REMARK VINA RESULT:      -5.6      2.950      5.100
REMARK  6 active torsions:
REMARK  status: ('A' for Active; 'I' for Inactive)
REMARK    1  A    between atoms: C_2  and  N_4 
REMARK       I    between atoms: N_4  and  C_5 
REMARK    2  A    between atoms: C_5  and  C_7 
REMARK    3  A    between atoms: C_7  and  N_8 
REMARK    4  A    between atoms: C_11  and  C_12 
REMARK    5  A    between atoms: C_12  and  N_13 
REMARK    6  A    between atoms: N_17  and  C_18 
ROOT
HETATM    1  N   UNL     1     -41.730 -53.719  13.403  1.00  0.00    -0.256 N 
HETATM    2  C   UNL     1     -43.100 -53.864  13.225  1.00  0.00     0.273 A 
HETATM    3  O   UNL     1     -43.685 -53.567  12.185  1.00  0.00    -0.266 OA
HETATM    4  C   UNL     1     -43.840 -54.445  14.359  1.00  0.00     0.110 A 
HETATM    5  C   UNL     1     -43.162 -54.894  15.418  1.00  0.00     0.123 A 
HETATM    6  N   UNL     1     -41.790 -54.805  15.503  1.00  0.00    -0.303 N 
HETATM    7  C   UNL     1     -41.014 -54.212  14.496  1.00  0.00     0.332 A 
HETATM    8  O   UNL     1     -39.784 -54.163  14.548  1.00  0.00    -0.246 OA
ENDROOT
BRANCH   1   9
HETATM    9  C   UNL     1     -40.994 -53.010  12.365  1.00  0.00     0.239 C 
BRANCH   9  10
HETATM   10  C   UNL     1     -40.973 -51.506  12.671  1.00  0.00     0.236 C 
HETATM   11  N   UNL     1     -41.773 -50.755  11.824  1.00  0.00    -0.356 N 
HETATM   12  H   UNL     1     -42.427 -51.236  11.219  1.00  0.00     0.162 HD
HETATM   13  O   UNL     1     -40.301 -51.012  13.573  1.00  0.00    -0.272 OA
BRANCH  11  14
HETATM   14  C   UNL     1     -41.933 -49.314  11.986  1.00  0.00     0.076 C 
HETATM   15  C   UNL     1     -41.754 -48.611  10.643  1.00  0.00     0.032 C 
HETATM   16  C   UNL     1     -43.297 -48.983  12.586  1.00  0.00     0.032 C 
ENDBRANCH  11  14
ENDBRANCH   9  10
ENDBRANCH   1   9
BRANCH   4  17
HETATM   17  C   UNL     1     -45.357 -54.527  14.331  1.00  0.00    -0.030 C 
BRANCH  17  18
HETATM   18  N   UNL     1     -46.616 -54.596  14.307  1.00  0.00    -0.365 N 
ATOM     19  HN2 UNL     1     -45.601 -54.503  14.326  1.00  0.00     0.165 HD
ATOM     20  HN1 UNL     1     -47.635 -54.653  14.287  1.00  0.00     0.165 HD
ENDBRANCH  17  18
ENDBRANCH   4  17
BRANCH   6  21
HETATM   21  C   UNL     1     -41.154 -55.436  16.640  1.00  0.00     0.094 A 
HETATM   22  C   UNL     1     -40.888 -56.923  16.703  1.00  0.00     0.028 A 
HETATM   23  C   UNL     1     -41.920 -56.312  17.599  1.00  0.00     0.028 A 
ENDBRANCH   6  21
TORSDOF 6
ENDMDL
