MODEL 1
REMARK VINA RESULT:      -5.4      0.000      0.000
REMARK  4 active torsions:
REMARK  status: ('A' for Active; 'I' for Inactive)
REMARK    1  A    between atoms: C_2  and  C_3 
REMARK    2  A    between atoms: C_2  and  N_12 
REMARK       I    between atoms: C_3  and  N_5 
REMARK    3  A    between atoms: N_5  and  C_6 
REMARK    4  A    between atoms: C_6  and  C_7 
ROOT
HETATM    1  C   UNL     1     -41.994 -48.961  11.755  1.00  0.00     0.242 C 
HETATM    2  O   UNL     1     -42.447 -48.647  12.851  1.00  0.00    -0.271 OA
HETATM    3  N   UNL     1     -41.673 -50.272  11.441  1.00  0.00    -0.359 N 
HETATM    4  H   UNL     1     -41.367 -50.485  10.495  1.00  0.00     0.162 HD
ENDROOT
BRANCH   1   5
HETATM    5  C   UNL     1     -41.692 -47.947  10.659  1.00  0.00     0.195 C 
HETATM    6  C   UNL     1     -41.261 -46.595  11.219  1.00  0.00     0.044 C 
BRANCH   5   7
HETATM    7  N   UNL     1     -42.834 -47.800   9.762  1.00  0.00    -0.290 N 
HETATM    8  C   UNL     1     -44.107 -47.425  10.087  1.00  0.00     0.112 A 
HETATM    9  C   UNL     1     -44.809 -47.384   8.907  1.00  0.00     0.037 A 
HETATM   10  C   UNL     1     -43.880 -47.776   7.926  1.00  0.00     0.108 A 
HETATM   11  N   UNL     1     -42.684 -48.065   8.447  1.00  0.00    -0.309 N 
ATOM     12  HN  UNL     1     -41.853 -48.406   7.965  1.00  0.00     0.186 HD
ENDBRANCH   5   7
ENDBRANCH   1   5
BRANCH   3  13
HETATM   13  C   UNL     1     -41.890 -51.361  12.371  1.00  0.00     0.129 C 
BRANCH  13  14
HETATM   14  C   UNL     1     -40.732 -52.353  12.406  1.00  0.00     0.029 C 
HETATM   15  C   UNL     1     -41.138 -53.720  12.928  1.00  0.00     0.034 C 
HETATM   16  C   UNL     1     -39.910 -54.228  13.664  1.00  0.00     0.168 C 
HETATM   17  O   UNL     1     -38.947 -53.170  13.691  1.00  0.00    -0.391 OA
HETATM   18  C   UNL     1     -39.623 -51.955  13.361  1.00  0.00     0.173 C 
ENDBRANCH  13  14
ENDBRANCH   3  13
TORSDOF 4
ENDMDL
MODEL 2
REMARK VINA RESULT:      -5.3      2.209      6.335
REMARK  4 active torsions:
REMARK  status: ('A' for Active; 'I' for Inactive)
REMARK    1  A    between atoms: C_2  and  C_3 
REMARK    2  A    between atoms: C_2  and  N_12 
REMARK       I    between atoms: C_3  and  N_5 
REMARK    3  A    between atoms: N_5  and  C_6 
REMARK    4  A    between atoms: C_6  and  C_7 
ROOT
HETATM    1  C   UNL     1     -41.507 -49.155  11.953  1.00  0.00     0.242 C 
HETATM    2  O   UNL     1     -40.993 -48.289  12.654  1.00  0.00    -0.271 OA
HETATM    3  N   UNL     1     -42.698 -48.940  11.275  1.00  0.00    -0.359 N 
HETATM    4  H   UNL     1     -43.041 -49.667  10.653  1.00  0.00     0.162 HD
ENDROOT
BRANCH   1   5
HETATM    5  C   UNL     1     -40.926 -50.554  11.800  1.00  0.00     0.195 C 
HETATM    6  C   UNL     1     -41.537 -51.549  12.781  1.00  0.00     0.044 C 
BRANCH   5   7
HETATM    7  N   UNL     1     -39.472 -50.526  11.921  1.00  0.00    -0.290 N 
HETATM    8  C   UNL     1     -38.705 -51.101  12.895  1.00  0.00     0.112 A 
HETATM    9  C   UNL     1     -37.398 -50.844  12.557  1.00  0.00     0.037 A 
HETATM   10  C   UNL     1     -37.478 -50.085  11.375  1.00  0.00     0.108 A 
HETATM   11  N   UNL     1     -38.742 -49.858  11.004  1.00  0.00    -0.309 N 
ATOM     12  HN  UNL     1     -39.076 -49.309  10.212  1.00  0.00     0.186 HD
ENDBRANCH   5   7
ENDBRANCH   1   5
BRANCH   3  13
HETATM   13  C   UNL     1     -43.388 -47.668  11.317  1.00  0.00     0.129 C 
BRANCH  13  14
HETATM   14  C   UNL     1     -43.915 -47.231   9.954  1.00  0.00     0.029 C 
HETATM   15  C   UNL     1     -45.315 -47.744   9.666  1.00  0.00     0.034 C 
HETATM   16  C   UNL     1     -45.334 -47.980   8.166  1.00  0.00     0.168 C 
HETATM   17  O   UNL     1     -44.008 -47.771   7.672  1.00  0.00    -0.391 OA
HETATM   18  C   UNL     1     -43.117 -47.788   8.790  1.00  0.00     0.173 C 
ENDBRANCH  13  14
ENDBRANCH   3  13
TORSDOF 4
ENDMDL
MODEL 3
REMARK VINA RESULT:      -5.3      3.477      5.460
REMARK  4 active torsions:
REMARK  status: ('A' for Active; 'I' for Inactive)
REMARK    1  A    between atoms: C_2  and  C_3 
REMARK    2  A    between atoms: C_2  and  N_12 
REMARK       I    between atoms: C_3  and  N_5 
REMARK    3  A    between atoms: N_5  and  C_6 
REMARK    4  A    between atoms: C_6  and  C_7 
ROOT
HETATM    1  C   UNL     1     -42.704 -52.270  12.441  1.00  0.00     0.242 C 
HETATM    2  O   UNL     1     -42.970 -51.221  13.021  1.00  0.00    -0.271 OA
HETATM    3  N   UNL     1     -43.681 -53.201  12.124  1.00  0.00    -0.359 N 
HETATM    4  H   UNL     1     -43.416 -54.019  11.582  1.00  0.00     0.162 HD
ENDROOT
BRANCH   1   5
HETATM    5  C   UNL     1     -41.286 -52.674  12.062  1.00  0.00     0.195 C 
HETATM    6  C   UNL     1     -40.740 -53.786  12.952  1.00  0.00     0.044 C 
BRANCH   5   7
HETATM    7  N   UNL     1     -40.398 -51.516  12.070  1.00  0.00    -0.290 N 
HETATM    8  C   UNL     1     -39.374 -51.257  12.936  1.00  0.00     0.112 A 
HETATM    9  C   UNL     1     -38.804 -50.079  12.515  1.00  0.00     0.037 A 
HETATM   10  C   UNL     1     -39.571 -49.690  11.401  1.00  0.00     0.108 A 
HETATM   11  N   UNL     1     -40.566 -50.544  11.149  1.00  0.00    -0.309 N 
ATOM     12  HN  UNL     1     -41.284 -50.478  10.428  1.00  0.00     0.186 HD
ENDBRANCH   5   7
ENDBRANCH   1   5
BRANCH   3  13
HETATM   13  C   UNL     1     -45.081 -52.978  12.419  1.00  0.00     0.129 C 
BRANCH  13  14
HETATM   14  C   UNL     1     -45.599 -53.863  13.549  1.00  0.00     0.029 C 
HETATM   15  C   UNL     1     -46.253 -53.073  14.669  1.00  0.00     0.034 C 
HETATM   16  C   UNL     1     -45.932 -53.860  15.928  1.00  0.00     0.168 C 
HETATM   17  O   UNL     1     -45.039 -54.918  15.568  1.00  0.00    -0.391 OA
HETATM   18  C   UNL     1     -44.504 -54.619  14.276  1.00  0.00     0.173 C 
ENDBRANCH  13  14
ENDBRANCH   3  13
TORSDOF 4
ENDMDL
MODEL 4
REMARK VINA RESULT:      -5.3      2.896      3.393
REMARK  4 active torsions:
REMARK  status: ('A' for Active; 'I' for Inactive)
REMARK    1  A    between atoms: C_2  and  C_3 
REMARK    2  A    between atoms: C_2  and  N_12 
REMARK       I    between atoms: C_3  and  N_5 
REMARK    3  A    between atoms: N_5  and  C_6 
REMARK    4  A    between atoms: C_6  and  C_7 
ROOT
HETATM    1  C   UNL     1     -42.607 -48.573  12.203  1.00  0.00     0.242 C 
HETATM    2  O   UNL     1     -42.862 -47.739  13.067  1.00  0.00    -0.271 OA
HETATM    3  N   UNL     1     -43.031 -49.890  12.306  1.00  0.00    -0.359 N 
HETATM    4  H   UNL     1     -42.852 -50.520  11.529  1.00  0.00     0.162 HD
ENDROOT
BRANCH   1   5
HETATM    5  C   UNL     1     -41.767 -48.265  10.971  1.00  0.00     0.195 C 
HETATM    6  C   UNL     1     -40.526 -47.442  11.304  1.00  0.00     0.044 C 
BRANCH   5   7
HETATM    7  N   UNL     1     -42.572 -47.605   9.948  1.00  0.00    -0.290 N 
HETATM    8  C   UNL     1     -43.153 -46.369  10.013  1.00  0.00     0.112 A 
HETATM    9  C   UNL     1     -43.762 -46.167   8.798  1.00  0.00     0.037 A 
HETATM   10  C   UNL     1     -43.515 -47.349   8.074  1.00  0.00     0.108 A 
HETATM   11  N   UNL     1     -42.821 -48.242   8.785  1.00  0.00    -0.309 N 
ATOM     12  HN  UNL     1     -42.543 -49.184   8.513  1.00  0.00     0.186 HD
ENDBRANCH   5   7
ENDBRANCH   1   5
BRANCH   3  13
HETATM   13  C   UNL     1     -43.834 -50.355  13.417  1.00  0.00     0.129 C 
BRANCH  13  14
HETATM   14  C   UNL     1     -44.972 -51.273  12.986  1.00  0.00     0.029 C 
HETATM   15  C   UNL     1     -46.034 -51.446  14.057  1.00  0.00     0.034 C 
HETATM   16  C   UNL     1     -46.530 -52.870  13.876  1.00  0.00     0.168 C 
HETATM   17  O   UNL     1     -45.707 -53.500  12.892  1.00  0.00    -0.391 OA
HETATM   18  C   UNL     1     -44.531 -52.702  12.729  1.00  0.00     0.173 C 
ENDBRANCH  13  14
ENDBRANCH   3  13
TORSDOF 4
ENDMDL
MODEL 5
REMARK VINA RESULT:      -5.1      3.321      5.399
REMARK  4 active torsions:
REMARK  status: ('A' for Active; 'I' for Inactive)
REMARK    1  A    between atoms: C_2  and  C_3 
REMARK    2  A    between atoms: C_2  and  N_12 
REMARK       I    between atoms: C_3  and  N_5 
REMARK    3  A    between atoms: N_5  and  C_6 
REMARK    4  A    between atoms: C_6  and  C_7 
ROOT
HETATM    1  C   UNL     1     -41.762 -51.415  12.186  1.00  0.00     0.242 C 
HETATM    2  O   UNL     1     -41.103 -52.337  11.716  1.00  0.00    -0.271 OA
HETATM    3  N   UNL     1     -43.090 -51.574  12.551  1.00  0.00    -0.359 N 
HETATM    4  H   UNL     1     -43.567 -50.796  13.000  1.00  0.00     0.162 HD
ENDROOT
BRANCH   1   5
HETATM    5  C   UNL     1     -41.211 -50.007  12.367  1.00  0.00     0.195 C 
HETATM    6  C   UNL     1     -41.823 -49.013  11.385  1.00  0.00     0.044 C 
BRANCH   5   7
HETATM    7  N   UNL     1     -39.755 -50.005  12.272  1.00  0.00    -0.290 N 
HETATM    8  C   UNL     1     -38.853 -50.022  13.299  1.00  0.00     0.112 A 
HETATM    9  C   UNL     1     -37.609 -50.062  12.716  1.00  0.00     0.037 A 
HETATM   10  C   UNL     1     -37.863 -50.042  11.332  1.00  0.00     0.108 A 
HETATM   11  N   UNL     1     -39.168 -49.971  11.058  1.00  0.00    -0.309 N 
ATOM     12  HN  UNL     1     -39.616 -49.906  10.144  1.00  0.00     0.186 HD
ENDBRANCH   5   7
ENDBRANCH   1   5
BRANCH   3  13
HETATM   13  C   UNL     1     -43.772 -52.846  12.439  1.00  0.00     0.129 C 
BRANCH  13  14
HETATM   14  C   UNL     1     -45.259 -52.755  12.765  1.00  0.00     0.029 C 
HETATM   15  C   UNL     1     -45.669 -51.392  13.294  1.00  0.00     0.034 C 
HETATM   16  C   UNL     1     -46.782 -51.686  14.284  1.00  0.00     0.168 C 
HETATM   17  O   UNL     1     -46.883 -53.106  14.422  1.00  0.00    -0.391 OA
HETATM   18  C   UNL     1     -45.691 -53.684  13.884  1.00  0.00     0.173 C 
ENDBRANCH  13  14
ENDBRANCH   3  13
TORSDOF 4
ENDMDL
MODEL 6
REMARK VINA RESULT:      -5.1      4.543      5.742
REMARK  4 active torsions:
REMARK  status: ('A' for Active; 'I' for Inactive)
REMARK    1  A    between atoms: C_2  and  C_3 
REMARK    2  A    between atoms: C_2  and  N_12 
REMARK       I    between atoms: C_3  and  N_5 
REMARK    3  A    between atoms: N_5  and  C_6 
REMARK    4  A    between atoms: C_6  and  C_7 
ROOT
HETATM    1  C   UNL     1     -39.595 -52.955  13.986  1.00  0.00     0.242 C 
HETATM    2  O   UNL     1     -38.969 -53.942  13.612  1.00  0.00    -0.271 OA
HETATM    3  N   UNL     1     -40.981 -52.920  13.987  1.00  0.00    -0.359 N 
HETATM    4  H   UNL     1     -41.447 -52.103  14.373  1.00  0.00     0.162 HD
ENDROOT
BRANCH   1   5
HETATM    5  C   UNL     1     -38.921 -51.664  14.433  1.00  0.00     0.195 C 
HETATM    6  C   UNL     1     -39.775 -50.872  15.417  1.00  0.00     0.044 C 
BRANCH   5   7
HETATM    7  N   UNL     1     -38.557 -50.845  13.281  1.00  0.00    -0.290 N 
HETATM    8  C   UNL     1     -39.211 -49.746  12.799  1.00  0.00     0.112 A 
HETATM    9  C   UNL     1     -38.466 -49.292  11.737  1.00  0.00     0.037 A 
HETATM   10  C   UNL     1     -37.394 -50.197  11.640  1.00  0.00     0.108 A 
HETATM   11  N   UNL     1     -37.465 -51.166  12.556  1.00  0.00    -0.309 N 
ATOM     12  HN  UNL     1     -36.840 -51.962  12.680  1.00  0.00     0.186 HD
ENDBRANCH   5   7
ENDBRANCH   1   5
BRANCH   3  13
HETATM   13  C   UNL     1     -41.779 -54.060  13.586  1.00  0.00     0.129 C 
BRANCH  13  14
HETATM   14  C   UNL     1     -43.275 -53.837  13.782  1.00  0.00     0.029 C 
HETATM   15  C   UNL     1     -43.965 -55.007  14.462  1.00  0.00     0.034 C 
HETATM   16  C   UNL     1     -45.354 -55.038  13.849  1.00  0.00     0.168 C 
HETATM   17  O   UNL     1     -45.392 -54.069  12.797  1.00  0.00    -0.391 OA
HETATM   18  C   UNL     1     -44.044 -53.715  12.480  1.00  0.00     0.173 C 
ENDBRANCH  13  14
ENDBRANCH   3  13
TORSDOF 4
ENDMDL
MODEL 7
REMARK VINA RESULT:      -5.0      5.116      7.247
REMARK  4 active torsions:
REMARK  status: ('A' for Active; 'I' for Inactive)
REMARK    1  A    between atoms: C_2  and  C_3 
REMARK    2  A    between atoms: C_2  and  N_12 
REMARK       I    between atoms: C_3  and  N_5 
REMARK    3  A    between atoms: N_5  and  C_6 
REMARK    4  A    between atoms: C_6  and  C_7 
ROOT
HETATM    1  C   UNL     1     -45.304 -52.282  13.308  1.00  0.00     0.242 C 
HETATM    2  O   UNL     1     -45.018 -51.158  12.907  1.00  0.00    -0.271 OA
HETATM    3  N   UNL     1     -46.234 -52.488  14.316  1.00  0.00    -0.359 N 
HETATM    4  H   UNL     1     -46.484 -53.443  14.559  1.00  0.00     0.162 HD
ENDROOT
BRANCH   1   5
HETATM    5  C   UNL     1     -44.639 -53.547  12.782  1.00  0.00     0.195 C 
HETATM    6  C   UNL     1     -45.007 -54.781  13.599  1.00  0.00     0.044 C 
BRANCH   5   7
HETATM    7  N   UNL     1     -43.191 -53.379  12.712  1.00  0.00    -0.290 N 
HETATM    8  C   UNL     1     -42.240 -54.023  13.453  1.00  0.00     0.112 A 
HETATM    9  C   UNL     1     -41.026 -53.569  12.997  1.00  0.00     0.037 A 
HETATM   10  C   UNL     1     -41.348 -52.634  11.996  1.00  0.00     0.108 A 
HETATM   11  N   UNL     1     -42.667 -52.489  11.844  1.00  0.00    -0.309 N 
ATOM     12  HN  UNL     1     -43.162 -51.854  11.218  1.00  0.00     0.186 HD
ENDBRANCH   5   7
ENDBRANCH   1   5
BRANCH   3  13
HETATM   13  C   UNL     1     -46.956 -51.394  14.932  1.00  0.00     0.129 C 
BRANCH  13  14
HETATM   14  C   UNL     1     -46.745 -51.316  16.440  1.00  0.00     0.029 C 
HETATM   15  C   UNL     1     -46.216 -52.610  17.033  1.00  0.00     0.034 C 
HETATM   16  C   UNL     1     -46.838 -52.677  18.417  1.00  0.00     0.168 C 
HETATM   17  O   UNL     1     -47.765 -51.594  18.534  1.00  0.00    -0.391 OA
HETATM   18  C   UNL     1     -48.028 -51.098  17.220  1.00  0.00     0.173 C 
ENDBRANCH  13  14
ENDBRANCH   3  13
TORSDOF 4
ENDMDL
MODEL 8
REMARK VINA RESULT:      -5.0      3.721      6.112
REMARK  4 active torsions:
REMARK  status: ('A' for Active; 'I' for Inactive)
REMARK    1  A    between atoms: C_2  and  C_3 
REMARK    2  A    between atoms: C_2  and  N_12 
REMARK       I    between atoms: C_3  and  N_5 
REMARK    3  A    between atoms: N_5  and  C_6 
REMARK    4  A    between atoms: C_6  and  C_7 
ROOT
HETATM    1  C   UNL     1     -42.323 -53.995  13.317  1.00  0.00     0.242 C 
HETATM    2  O   UNL     1     -42.520 -54.631  14.348  1.00  0.00    -0.271 OA
HETATM    3  N   UNL     1     -43.366 -53.533  12.528  1.00  0.00    -0.359 N 
HETATM    4  H   UNL     1     -43.146 -52.952  11.723  1.00  0.00     0.162 HD
ENDROOT
BRANCH   1   5
HETATM    5  C   UNL     1     -40.930 -53.697  12.777  1.00  0.00     0.195 C 
HETATM    6  C   UNL     1     -39.829 -54.300  13.643  1.00  0.00     0.044 C 
BRANCH   5   7
HETATM    7  N   UNL     1     -40.737 -52.260  12.610  1.00  0.00    -0.290 N 
HETATM    8  C   UNL     1     -40.518 -51.330  13.587  1.00  0.00     0.112 A 
HETATM    9  C   UNL     1     -40.350 -50.129  12.941  1.00  0.00     0.037 A 
HETATM   10  C   UNL     1     -40.509 -50.431  11.577  1.00  0.00     0.108 A 
HETATM   11  N   UNL     1     -40.781 -51.723  11.373  1.00  0.00    -0.309 N 
ATOM     12  HN  UNL     1     -40.975 -52.194  10.490  1.00  0.00     0.186 HD
ENDBRANCH   5   7
ENDBRANCH   1   5
BRANCH   3  13
HETATM   13  C   UNL     1     -44.752 -53.735  12.891  1.00  0.00     0.129 C 
BRANCH  13  14
HETATM   14  C   UNL     1     -45.265 -52.698  13.885  1.00  0.00     0.029 C 
HETATM   15  C   UNL     1     -46.072 -53.308  15.017  1.00  0.00     0.034 C 
HETATM   16  C   UNL     1     -47.121 -52.260  15.346  1.00  0.00     0.168 C 
HETATM   17  O   UNL     1     -47.016 -51.214  14.375  1.00  0.00    -0.391 OA
HETATM   18  C   UNL     1     -46.245 -51.711  13.278  1.00  0.00     0.173 C 
ENDBRANCH  13  14
ENDBRANCH   3  13
TORSDOF 4
ENDMDL
MODEL 9
REMARK VINA RESULT:      -5.0      2.840      6.098
REMARK  4 active torsions:
REMARK  status: ('A' for Active; 'I' for Inactive)
REMARK    1  A    between atoms: C_2  and  C_3 
REMARK    2  A    between atoms: C_2  and  N_12 
REMARK       I    between atoms: C_3  and  N_5 
REMARK    3  A    between atoms: N_5  and  C_6 
REMARK    4  A    between atoms: C_6  and  C_7 
ROOT
HETATM    1  C   UNL     1     -42.660 -49.866  12.869  1.00  0.00     0.242 C 
HETATM    2  O   UNL     1     -42.812 -48.881  13.586  1.00  0.00    -0.271 OA
HETATM    3  N   UNL     1     -42.154 -49.766  11.582  1.00  0.00    -0.359 N 
HETATM    4  H   UNL     1     -41.983 -50.621  11.059  1.00  0.00     0.162 HD
ENDROOT
BRANCH   1   5
HETATM    5  C   UNL     1     -43.055 -51.274  13.295  1.00  0.00     0.195 C 
HETATM    6  C   UNL     1     -42.540 -52.339  12.333  1.00  0.00     0.044 C 
BRANCH   5   7
HETATM    7  N   UNL     1     -44.501 -51.377  13.463  1.00  0.00    -0.290 N 
HETATM    8  C   UNL     1     -45.219 -51.226  14.616  1.00  0.00     0.112 A 
HETATM    9  C   UNL     1     -46.540 -51.365  14.266  1.00  0.00     0.037 A 
HETATM   10  C   UNL     1     -46.518 -51.622  12.883  1.00  0.00     0.108 A 
HETATM   11  N   UNL     1     -45.274 -51.666  12.397  1.00  0.00    -0.309 N 
ATOM     12  HN  UNL     1     -44.979 -51.869  11.442  1.00  0.00     0.186 HD
ENDBRANCH   5   7
ENDBRANCH   1   5
BRANCH   3  13
HETATM   13  C   UNL     1     -41.735 -48.501  11.016  1.00  0.00     0.129 C 
BRANCH  13  14
HETATM   14  C   UNL     1     -42.898 -47.676  10.475  1.00  0.00     0.029 C 
HETATM   15  C   UNL     1     -43.036 -47.764   8.965  1.00  0.00     0.034 C 
HETATM   16  C   UNL     1     -43.551 -46.397   8.549  1.00  0.00     0.168 C 
HETATM   17  O   UNL     1     -43.551 -45.557   9.707  1.00  0.00    -0.391 OA
HETATM   18  C   UNL     1     -42.740 -46.185  10.703  1.00  0.00     0.173 C 
ENDBRANCH  13  14
ENDBRANCH   3  13
TORSDOF 4
ENDMDL
