MODEL 1
REMARK VINA RESULT:      -6.0      0.000      0.000
REMARK  5 active torsions:
REMARK  status: ('A' for Active; 'I' for Inactive)
REMARK    1  A    between atoms: C_5  and  C_6 
REMARK    2  A    between atoms: C_6  and  C_7 
REMARK    3  A    between atoms: C_7  and  N_8 
REMARK       I    between atoms: N_8  and  C_9 
REMARK       I    between atoms: C_9  and  N_11 
REMARK    4  A    between atoms: N_11  and  C_12 
REMARK    5  A    between atoms: C_12  and  C_13 
ROOT
HETATM    1  N   UNL     1     -41.675 -51.501  11.663  1.00  0.00    -0.343 N 
HETATM    2  C   UNL     1     -42.272 -52.442  12.457  1.00  0.00     0.316 C 
HETATM    3  O   UNL     1     -41.801 -52.845  13.511  1.00  0.00    -0.247 OA
HETATM    4  N   UNL     1     -43.476 -52.852  11.952  1.00  0.00    -0.343 N 
HETATM    5  H   UNL     1     -41.897 -51.514  10.678  1.00  0.00     0.164 HD
HETATM    6  H   UNL     1     -43.879 -52.299  11.209  1.00  0.00     0.164 HD
ENDROOT
BRANCH   1   7
HETATM    7  C   UNL     1     -40.396 -50.916  12.035  1.00  0.00     0.130 C 
BRANCH   7   8
HETATM    8  C   UNL     1     -40.038 -49.655  11.243  1.00  0.00     0.077 C 
BRANCH   8   9
HETATM    9  C   UNL     1     -41.207 -48.743  11.035  1.00  0.00     0.018 A 
HETATM   10  N   UNL     1     -41.685 -48.548   9.748  1.00  0.00    -0.357 N 
HETATM   11  C   UNL     1     -42.721 -47.736   9.766  1.00  0.00     0.046 A 
ATOM     12  HN  UNL     1     -41.291 -48.972   8.909  1.00  0.00     0.166 HD
HETATM   13  C   UNL     1     -43.484 -47.314   8.560  1.00  0.00     0.076 C 
HETATM   14  S   UNL     1     -43.174 -47.152  11.317  1.00  0.00    -0.087 SA
HETATM   15  C   UNL     1     -41.900 -48.059  12.016  1.00  0.00     0.076 A 
ENDBRANCH   8   9
ENDBRANCH   7   8
ENDBRANCH   1   7
BRANCH   4  16
HETATM   16  C   UNL     1     -44.323 -53.790  12.666  1.00  0.00     0.131 C 
BRANCH  16  17
HETATM   17  C   UNL     1     -45.653 -53.214  13.151  1.00  0.00     0.029 C 
HETATM   18  C   UNL     1     -45.701 -51.702  13.274  1.00  0.00     0.034 C 
HETATM   19  C   UNL     1     -46.729 -51.450  14.365  1.00  0.00     0.168 C 
HETATM   20  O   UNL     1     -47.134 -52.722  14.883  1.00  0.00    -0.391 OA
HETATM   21  C   UNL     1     -46.124 -53.673  14.517  1.00  0.00     0.173 C 
ENDBRANCH  16  17
ENDBRANCH   4  16
TORSDOF 5
ENDMDL
MODEL 2
REMARK VINA RESULT:      -5.8      1.650      2.129
REMARK  5 active torsions:
REMARK  status: ('A' for Active; 'I' for Inactive)
REMARK    1  A    between atoms: C_5  and  C_6 
REMARK    2  A    between atoms: C_6  and  C_7 
REMARK    3  A    between atoms: C_7  and  N_8 
REMARK       I    between atoms: N_8  and  C_9 
REMARK       I    between atoms: C_9  and  N_11 
REMARK    4  A    between atoms: N_11  and  C_12 
REMARK    5  A    between atoms: C_12  and  C_13 
ROOT
HETATM    1  N   UNL     1     -40.834 -50.854  11.103  1.00  0.00    -0.343 N 
HETATM    2  C   UNL     1     -40.885 -51.662  12.205  1.00  0.00     0.316 C 
HETATM    3  O   UNL     1     -40.277 -51.441  13.243  1.00  0.00    -0.247 OA
HETATM    4  N   UNL     1     -41.726 -52.727  12.025  1.00  0.00    -0.343 N 
HETATM    5  H   UNL     1     -41.019 -51.278  10.205  1.00  0.00     0.164 HD
HETATM    6  H   UNL     1     -42.350 -52.694  11.231  1.00  0.00     0.164 HD
ENDROOT
BRANCH   1   7
HETATM    7  C   UNL     1     -40.015 -49.651  11.098  1.00  0.00     0.130 C 
BRANCH   7   8
HETATM    8  C   UNL     1     -40.692 -48.440  11.745  1.00  0.00     0.077 C 
BRANCH   8   9
HETATM    9  C   UNL     1     -41.626 -47.726  10.818  1.00  0.00     0.018 A 
HETATM   10  N   UNL     1     -41.985 -48.336   9.625  1.00  0.00    -0.357 N 
HETATM   11  C   UNL     1     -42.822 -47.572   8.957  1.00  0.00     0.046 A 
ATOM     12  HN  UNL     1     -41.648 -49.246   9.311  1.00  0.00     0.166 HD
HETATM   13  C   UNL     1     -43.414 -47.921   7.637  1.00  0.00     0.076 C 
HETATM   14  S   UNL     1     -43.219 -46.079   9.709  1.00  0.00    -0.087 SA
HETATM   15  C   UNL     1     -42.207 -46.490  11.028  1.00  0.00     0.076 A 
ENDBRANCH   8   9
ENDBRANCH   7   8
ENDBRANCH   1   7
BRANCH   4  16
HETATM   16  C   UNL     1     -41.995 -53.675  13.090  1.00  0.00     0.131 C 
BRANCH  16  17
HETATM   17  C   UNL     1     -43.447 -53.714  13.563  1.00  0.00     0.029 C 
HETATM   18  C   UNL     1     -43.884 -55.011  14.220  1.00  0.00     0.034 C 
HETATM   19  C   UNL     1     -45.376 -55.084  13.944  1.00  0.00     0.168 C 
HETATM   20  O   UNL     1     -45.719 -53.974  13.106  1.00  0.00    -0.391 OA
HETATM   21  C   UNL     1     -44.505 -53.510  12.496  1.00  0.00     0.173 C 
ENDBRANCH  16  17
ENDBRANCH   4  16
TORSDOF 5
ENDMDL
MODEL 3
REMARK VINA RESULT:      -5.8      2.155      2.726
REMARK  5 active torsions:
REMARK  status: ('A' for Active; 'I' for Inactive)
REMARK    1  A    between atoms: C_5  and  C_6 
REMARK    2  A    between atoms: C_6  and  C_7 
REMARK    3  A    between atoms: C_7  and  N_8 
REMARK       I    between atoms: N_8  and  C_9 
REMARK       I    between atoms: C_9  and  N_11 
REMARK    4  A    between atoms: N_11  and  C_12 
REMARK    5  A    between atoms: C_12  and  C_13 
ROOT
HETATM    1  N   UNL     1     -40.818 -51.185  11.196  1.00  0.00    -0.343 N 
HETATM    2  C   UNL     1     -41.080 -51.850  12.362  1.00  0.00     0.316 C 
HETATM    3  O   UNL     1     -40.974 -51.349  13.473  1.00  0.00    -0.247 OA
HETATM    4  N   UNL     1     -41.510 -53.130  12.140  1.00  0.00    -0.343 N 
HETATM    5  H   UNL     1     -40.548 -51.738  10.395  1.00  0.00     0.164 HD
HETATM    6  H   UNL     1     -41.782 -53.370  11.198  1.00  0.00     0.164 HD
ENDROOT
BRANCH   1   7
HETATM    7  C   UNL     1     -40.372 -49.800  11.211  1.00  0.00     0.130 C 
BRANCH   7   8
HETATM    8  C   UNL     1     -41.516 -48.782  11.213  1.00  0.00     0.077 C 
BRANCH   8   9
HETATM    9  C   UNL     1     -41.044 -47.371  11.380  1.00  0.00     0.018 A 
HETATM   10  N   UNL     1     -40.338 -46.773  10.347  1.00  0.00    -0.357 N 
HETATM   11  C   UNL     1     -40.027 -45.535  10.666  1.00  0.00     0.046 A 
ATOM     12  HN  UNL     1     -40.094 -47.228   9.467  1.00  0.00     0.166 HD
HETATM   13  C   UNL     1     -39.274 -44.600   9.786  1.00  0.00     0.076 C 
HETATM   14  S   UNL     1     -40.551 -45.020  12.218  1.00  0.00    -0.087 SA
HETATM   15  C   UNL     1     -41.253 -46.560  12.479  1.00  0.00     0.076 A 
ENDBRANCH   8   9
ENDBRANCH   7   8
ENDBRANCH   1   7
BRANCH   4  16
HETATM   16  C   UNL     1     -41.920 -53.997  13.230  1.00  0.00     0.131 C 
BRANCH  16  17
HETATM   17  C   UNL     1     -43.396 -53.896  13.611  1.00  0.00     0.029 C 
HETATM   18  C   UNL     1     -43.983 -55.128  14.276  1.00  0.00     0.034 C 
HETATM   19  C   UNL     1     -45.457 -55.083  13.907  1.00  0.00     0.168 C 
HETATM   20  O   UNL     1     -45.649 -53.977  13.017  1.00  0.00    -0.391 OA
HETATM   21  C   UNL     1     -44.365 -53.639  12.473  1.00  0.00     0.173 C 
ENDBRANCH  16  17
ENDBRANCH   4  16
TORSDOF 5
ENDMDL
MODEL 4
REMARK VINA RESULT:      -5.5      3.245      6.655
REMARK  5 active torsions:
REMARK  status: ('A' for Active; 'I' for Inactive)
REMARK    1  A    between atoms: C_5  and  C_6 
REMARK    2  A    between atoms: C_6  and  C_7 
REMARK    3  A    between atoms: C_7  and  N_8 
REMARK       I    between atoms: N_8  and  C_9 
REMARK       I    between atoms: C_9  and  N_11 
REMARK    4  A    between atoms: N_11  and  C_12 
REMARK    5  A    between atoms: C_12  and  C_13 
ROOT
HETATM    1  N   UNL     1     -42.280 -51.291  11.988  1.00  0.00    -0.343 N 
HETATM    2  C   UNL     1     -42.709 -50.107  12.521  1.00  0.00     0.316 C 
HETATM    3  O   UNL     1     -43.220 -50.000  13.627  1.00  0.00    -0.247 OA
HETATM    4  N   UNL     1     -42.465 -49.049  11.688  1.00  0.00    -0.343 N 
HETATM    5  H   UNL     1     -42.248 -51.364  10.982  1.00  0.00     0.164 HD
HETATM    6  H   UNL     1     -41.839 -49.206  10.911  1.00  0.00     0.164 HD
ENDROOT
BRANCH   1   7
HETATM    7  C   UNL     1     -42.424 -52.536  12.728  1.00  0.00     0.130 C 
BRANCH   7   8
HETATM    8  C   UNL     1     -43.602 -53.397  12.266  1.00  0.00     0.077 C 
BRANCH   8   9
HETATM    9  C   UNL     1     -44.706 -53.471  13.275  1.00  0.00     0.018 A 
HETATM   10  N   UNL     1     -45.266 -52.292  13.743  1.00  0.00    -0.357 N 
HETATM   11  C   UNL     1     -46.228 -52.556  14.601  1.00  0.00     0.046 A 
ATOM     12  HN  UNL     1     -44.975 -51.356  13.462  1.00  0.00     0.166 HD
HETATM   13  C   UNL     1     -47.047 -51.524  15.294  1.00  0.00     0.076 C 
HETATM   14  S   UNL     1     -46.509 -54.223  14.905  1.00  0.00    -0.087 SA
HETATM   15  C   UNL     1     -45.262 -54.621  13.801  1.00  0.00     0.076 A 
ENDBRANCH   8   9
ENDBRANCH   7   8
ENDBRANCH   1   7
BRANCH   4  16
HETATM   16  C   UNL     1     -42.766 -47.684  12.080  1.00  0.00     0.131 C 
BRANCH  16  17
HETATM   17  C   UNL     1     -43.263 -46.785  10.948  1.00  0.00     0.029 C 
HETATM   18  C   UNL     1     -44.150 -47.464   9.920  1.00  0.00     0.034 C 
HETATM   19  C   UNL     1     -43.916 -46.670   8.645  1.00  0.00     0.168 C 
HETATM   20  O   UNL     1     -42.897 -45.701   8.917  1.00  0.00    -0.391 OA
HETATM   21  C   UNL     1     -42.194 -46.138  10.089  1.00  0.00     0.173 C 
ENDBRANCH  16  17
ENDBRANCH   4  16
TORSDOF 5
ENDMDL
MODEL 5
REMARK VINA RESULT:      -5.3      1.661      2.031
REMARK  5 active torsions:
REMARK  status: ('A' for Active; 'I' for Inactive)
REMARK    1  A    between atoms: C_5  and  C_6 
REMARK    2  A    between atoms: C_6  and  C_7 
REMARK    3  A    between atoms: C_7  and  N_8 
REMARK       I    between atoms: N_8  and  C_9 
REMARK       I    between atoms: C_9  and  N_11 
REMARK    4  A    between atoms: N_11  and  C_12 
REMARK    5  A    between atoms: C_12  and  C_13 
ROOT
HETATM    1  N   UNL     1     -42.927 -50.888  12.391  1.00  0.00    -0.343 N 
HETATM    2  C   UNL     1     -44.000 -50.783  13.234  1.00  0.00     0.316 C 
HETATM    3  O   UNL     1     -44.004 -50.109  14.254  1.00  0.00    -0.247 OA
HETATM    4  N   UNL     1     -45.081 -51.490  12.781  1.00  0.00    -0.343 N 
HETATM    5  H   UNL     1     -42.856 -51.724  11.829  1.00  0.00     0.164 HD
HETATM    6  H   UNL     1     -45.052 -51.819  11.827  1.00  0.00     0.164 HD
ENDROOT
BRANCH   1   7
HETATM    7  C   UNL     1     -41.683 -50.189  12.679  1.00  0.00     0.130 C 
BRANCH   7   8
HETATM    8  C   UNL     1     -40.942 -49.707  11.429  1.00  0.00     0.077 C 
BRANCH   8   9
HETATM    9  C   UNL     1     -41.445 -48.392  10.919  1.00  0.00     0.018 A 
HETATM   10  N   UNL     1     -42.421 -48.384   9.933  1.00  0.00    -0.357 N 
HETATM   11  C   UNL     1     -42.750 -47.147   9.629  1.00  0.00     0.046 A 
ATOM     12  HN  UNL     1     -42.825 -49.218   9.506  1.00  0.00     0.166 HD
HETATM   13  C   UNL     1     -43.771 -46.770   8.614  1.00  0.00     0.076 C 
HETATM   14  S   UNL     1     -41.906 -45.926  10.494  1.00  0.00    -0.087 SA
HETATM   15  C   UNL     1     -41.047 -47.140  11.344  1.00  0.00     0.076 A 
ENDBRANCH   8   9
ENDBRANCH   7   8
ENDBRANCH   1   7
BRANCH   4  16
HETATM   16  C   UNL     1     -46.355 -51.462  13.475  1.00  0.00     0.131 C 
BRANCH  16  17
HETATM   17  C   UNL     1     -46.605 -52.644  14.409  1.00  0.00     0.029 C 
HETATM   18  C   UNL     1     -46.237 -52.413  15.864  1.00  0.00     0.034 C 
HETATM   19  C   UNL     1     -45.893 -53.799  16.385  1.00  0.00     0.168 C 
HETATM   20  O   UNL     1     -45.956 -54.707  15.280  1.00  0.00    -0.391 OA
HETATM   21  C   UNL     1     -45.865 -53.926  14.080  1.00  0.00     0.173 C 
ENDBRANCH  16  17
ENDBRANCH   4  16
TORSDOF 5
ENDMDL
MODEL 6
REMARK VINA RESULT:      -5.3      1.825      2.082
REMARK  5 active torsions:
REMARK  status: ('A' for Active; 'I' for Inactive)
REMARK    1  A    between atoms: C_5  and  C_6 
REMARK    2  A    between atoms: C_6  and  C_7 
REMARK    3  A    between atoms: C_7  and  N_8 
REMARK       I    between atoms: N_8  and  C_9 
REMARK       I    between atoms: C_9  and  N_11 
REMARK    4  A    between atoms: N_11  and  C_12 
REMARK    5  A    between atoms: C_12  and  C_13 
ROOT
HETATM    1  N   UNL     1     -42.539 -50.755  12.378  1.00  0.00    -0.343 N 
HETATM    2  C   UNL     1     -42.561 -52.122  12.423  1.00  0.00     0.316 C 
HETATM    3  O   UNL     1     -41.561 -52.819  12.511  1.00  0.00    -0.247 OA
HETATM    4  N   UNL     1     -43.837 -52.618  12.395  1.00  0.00    -0.343 N 
HETATM    5  H   UNL     1     -43.313 -50.291  11.924  1.00  0.00     0.164 HD
HETATM    6  H   UNL     1     -44.591 -51.965  12.554  1.00  0.00     0.164 HD
ENDROOT
BRANCH   1   7
HETATM    7  C   UNL     1     -41.279 -50.029  12.423  1.00  0.00     0.130 C 
BRANCH   7   8
HETATM    8  C   UNL     1     -40.806 -49.528  11.056  1.00  0.00     0.077 C 
BRANCH   8   9
HETATM    9  C   UNL     1     -41.161 -48.095  10.801  1.00  0.00     0.018 A 
HETATM   10  N   UNL     1     -40.149 -47.148  10.777  1.00  0.00    -0.357 N 
HETATM   11  C   UNL     1     -40.648 -45.957  10.520  1.00  0.00     0.046 A 
ATOM     12  HN  UNL     1     -39.161 -47.345  10.935  1.00  0.00     0.166 HD
HETATM   13  C   UNL     1     -39.842 -44.710  10.416  1.00  0.00     0.076 C 
HETATM   14  S   UNL     1     -42.351 -45.901  10.305  1.00  0.00    -0.087 SA
HETATM   15  C   UNL     1     -42.426 -47.593  10.562  1.00  0.00     0.076 A 
ENDBRANCH   8   9
ENDBRANCH   7   8
ENDBRANCH   1   7
BRANCH   4  16
HETATM   16  C   UNL     1     -44.105 -54.040  12.510  1.00  0.00     0.131 C 
BRANCH  16  17
HETATM   17  C   UNL     1     -44.854 -54.452  13.776  1.00  0.00     0.029 C 
HETATM   18  C   UNL     1     -45.997 -53.539  14.183  1.00  0.00     0.034 C 
HETATM   19  C   UNL     1     -46.081 -53.698  15.692  1.00  0.00     0.168 C 
HETATM   20  O   UNL     1     -45.000 -54.543  16.101  1.00  0.00    -0.391 OA
HETATM   21  C   UNL     1     -44.028 -54.535  15.045  1.00  0.00     0.173 C 
ENDBRANCH  16  17
ENDBRANCH   4  16
TORSDOF 5
ENDMDL
MODEL 7
REMARK VINA RESULT:      -5.2      3.348      6.774
REMARK  5 active torsions:
REMARK  status: ('A' for Active; 'I' for Inactive)
REMARK    1  A    between atoms: C_5  and  C_6 
REMARK    2  A    between atoms: C_6  and  C_7 
REMARK    3  A    between atoms: C_7  and  N_8 
REMARK       I    between atoms: N_8  and  C_9 
REMARK       I    between atoms: C_9  and  N_11 
REMARK    4  A    between atoms: N_11  and  C_12 
REMARK    5  A    between atoms: C_12  and  C_13 
ROOT
HETATM    1  N   UNL     1     -40.457 -51.359  11.860  1.00  0.00    -0.343 N 
HETATM    2  C   UNL     1     -41.012 -50.130  12.091  1.00  0.00     0.316 C 
HETATM    3  O   UNL     1     -42.215 -49.926  12.162  1.00  0.00    -0.247 OA
HETATM    4  N   UNL     1     -40.062 -49.161  12.271  1.00  0.00    -0.343 N 
HETATM    5  H   UNL     1     -39.541 -51.384  11.436  1.00  0.00     0.164 HD
HETATM    6  H   UNL     1     -39.111 -49.467  12.422  1.00  0.00     0.164 HD
ENDROOT
BRANCH   1   7
HETATM    7  C   UNL     1     -41.297 -52.531  11.668  1.00  0.00     0.130 C 
BRANCH   7   8
HETATM    8  C   UNL     1     -41.667 -53.247  12.969  1.00  0.00     0.077 C 
BRANCH   8   9
HETATM    9  C   UNL     1     -43.145 -53.403  13.153  1.00  0.00     0.018 A 
HETATM   10  N   UNL     1     -43.999 -52.556  12.462  1.00  0.00    -0.357 N 
HETATM   11  C   UNL     1     -45.252 -52.856  12.733  1.00  0.00     0.046 A 
ATOM     12  HN  UNL     1     -43.700 -51.811  11.834  1.00  0.00     0.166 HD
HETATM   13  C   UNL     1     -46.431 -52.151  12.159  1.00  0.00     0.076 C 
HETATM   14  S   UNL     1     -45.479 -54.153  13.835  1.00  0.00    -0.087 SA
HETATM   15  C   UNL     1     -43.779 -54.336  13.949  1.00  0.00     0.076 A 
ENDBRANCH   8   9
ENDBRANCH   7   8
ENDBRANCH   1   7
BRANCH   4  16
HETATM   16  C   UNL     1     -40.420 -47.795  12.605  1.00  0.00     0.131 C 
BRANCH  16  17
HETATM   17  C   UNL     1     -40.238 -46.787  11.471  1.00  0.00     0.029 C 
HETATM   18  C   UNL     1     -39.790 -45.401  11.897  1.00  0.00     0.034 C 
HETATM   19  C   UNL     1     -40.352 -44.482  10.826  1.00  0.00     0.168 C 
HETATM   20  O   UNL     1     -41.144 -45.281   9.939  1.00  0.00    -0.391 OA
HETATM   21  C   UNL     1     -41.468 -46.495  10.633  1.00  0.00     0.173 C 
ENDBRANCH  16  17
ENDBRANCH   4  16
TORSDOF 5
ENDMDL
MODEL 8
REMARK VINA RESULT:      -5.0      2.668      3.810
REMARK  5 active torsions:
REMARK  status: ('A' for Active; 'I' for Inactive)
REMARK    1  A    between atoms: C_5  and  C_6 
REMARK    2  A    between atoms: C_6  and  C_7 
REMARK    3  A    between atoms: C_7  and  N_8 
REMARK       I    between atoms: N_8  and  C_9 
REMARK       I    between atoms: C_9  and  N_11 
REMARK    4  A    between atoms: N_11  and  C_12 
REMARK    5  A    between atoms: C_12  and  C_13 
ROOT
HETATM    1  N   UNL     1     -41.950 -49.212  11.136  1.00  0.00    -0.343 N 
HETATM    2  C   UNL     1     -42.812 -49.334  12.192  1.00  0.00     0.316 C 
HETATM    3  O   UNL     1     -43.380 -48.390  12.722  1.00  0.00    -0.247 OA
HETATM    4  N   UNL     1     -42.992 -50.639  12.561  1.00  0.00    -0.343 N 
HETATM    5  H   UNL     1     -41.250 -49.931  11.020  1.00  0.00     0.164 HD
HETATM    6  H   UNL     1     -42.665 -51.350  11.922  1.00  0.00     0.164 HD
ENDROOT
BRANCH   1   7
HETATM    7  C   UNL     1     -41.642 -47.906  10.573  1.00  0.00     0.130 C 
BRANCH   7   8
HETATM    8  C   UNL     1     -40.512 -47.171  11.299  1.00  0.00     0.077 C 
BRANCH   8   9
HETATM    9  C   UNL     1     -39.526 -48.099  11.940  1.00  0.00     0.018 A 
HETATM   10  N   UNL     1     -38.808 -48.973  11.138  1.00  0.00    -0.357 N 
HETATM   11  C   UNL     1     -37.983 -49.689  11.873  1.00  0.00     0.046 A 
ATOM     12  HN  UNL     1     -38.904 -49.049  10.126  1.00  0.00     0.166 HD
HETATM   13  C   UNL     1     -37.056 -50.722  11.336  1.00  0.00     0.076 C 
HETATM   14  S   UNL     1     -38.027 -49.367  13.559  1.00  0.00    -0.087 SA
HETATM   15  C   UNL     1     -39.228 -48.177  13.287  1.00  0.00     0.076 A 
ENDBRANCH   8   9
ENDBRANCH   7   8
ENDBRANCH   1   7
BRANCH   4  16
HETATM   16  C   UNL     1     -43.924 -51.014  13.609  1.00  0.00     0.131 C 
BRANCH  16  17
HETATM   17  C   UNL     1     -44.774 -52.245  13.303  1.00  0.00     0.029 C 
HETATM   18  C   UNL     1     -45.184 -53.070  14.510  1.00  0.00     0.034 C 
HETATM   19  C   UNL     1     -45.345 -54.478  13.961  1.00  0.00     0.168 C 
HETATM   20  O   UNL     1     -44.948 -54.457  12.585  1.00  0.00    -0.391 OA
HETATM   21  C   UNL     1     -44.148 -53.282  12.390  1.00  0.00     0.173 C 
ENDBRANCH  16  17
ENDBRANCH   4  16
TORSDOF 5
ENDMDL
MODEL 9
REMARK VINA RESULT:      -5.0      2.067      2.477
REMARK  5 active torsions:
REMARK  status: ('A' for Active; 'I' for Inactive)
REMARK    1  A    between atoms: C_5  and  C_6 
REMARK    2  A    between atoms: C_6  and  C_7 
REMARK    3  A    between atoms: C_7  and  N_8 
REMARK       I    between atoms: N_8  and  C_9 
REMARK       I    between atoms: C_9  and  N_11 
REMARK    4  A    between atoms: N_11  and  C_12 
REMARK    5  A    between atoms: C_12  and  C_13 
ROOT
HETATM    1  N   UNL     1     -40.662 -50.549  13.439  1.00  0.00    -0.343 N 
HETATM    2  C   UNL     1     -40.538 -51.911  13.455  1.00  0.00     0.316 C 
HETATM    3  O   UNL     1     -39.874 -52.547  12.648  1.00  0.00    -0.247 OA
HETATM    4  N   UNL     1     -41.215 -52.477  14.501  1.00  0.00    -0.343 N 
HETATM    5  H   UNL     1     -41.493 -50.152  13.851  1.00  0.00     0.164 HD
HETATM    6  H   UNL     1     -41.535 -51.860  15.233  1.00  0.00     0.164 HD
ENDROOT
BRANCH   1   7
HETATM    7  C   UNL     1     -39.996 -49.753  12.419  1.00  0.00     0.130 C 
BRANCH   7   8
HETATM    8  C   UNL     1     -40.739 -49.716  11.081  1.00  0.00     0.077 C 
BRANCH   8   9
HETATM    9  C   UNL     1     -41.303 -48.367  10.759  1.00  0.00     0.018 A 
HETATM   10  N   UNL     1     -42.385 -48.280   9.895  1.00  0.00    -0.357 N 
HETATM   11  C   UNL     1     -42.751 -47.025   9.751  1.00  0.00     0.046 A 
ATOM     12  HN  UNL     1     -42.831 -49.075   9.438  1.00  0.00     0.166 HD
HETATM   13  C   UNL     1     -43.883 -46.569   8.898  1.00  0.00     0.076 C 
HETATM   14  S   UNL     1     -41.820 -45.879  10.628  1.00  0.00    -0.087 SA
HETATM   15  C   UNL     1     -40.864 -47.154  11.255  1.00  0.00     0.076 A 
ENDBRANCH   8   9
ENDBRANCH   7   8
ENDBRANCH   1   7
BRANCH   4  16
HETATM   16  C   UNL     1     -41.161 -53.904  14.761  1.00  0.00     0.131 C 
BRANCH  16  17
HETATM   17  C   UNL     1     -42.488 -54.640  14.580  1.00  0.00     0.029 C 
HETATM   18  C   UNL     1     -43.324 -54.193  13.394  1.00  0.00     0.034 C 
HETATM   19  C   UNL     1     -44.753 -54.490  13.814  1.00  0.00     0.168 C 
HETATM   20  O   UNL     1     -44.721 -54.960  15.167  1.00  0.00    -0.391 OA
HETATM   21  C   UNL     1     -43.469 -54.546  15.732  1.00  0.00     0.173 C 
ENDBRANCH  16  17
ENDBRANCH   4  16
TORSDOF 5
ENDMDL
