MODEL 1
REMARK VINA RESULT:      -6.5      0.000      0.000
REMARK  4 active torsions:
REMARK  status: ('A' for Active; 'I' for Inactive)
REMARK    1  A    between atoms: C_2  and  O_3 
REMARK    2  A    between atoms: O_3  and  C_4 
REMARK    3  A    between atoms: C_10  and  N_11 
REMARK       I    between atoms: N_11  and  C_12 
REMARK       I    between atoms: C_12  and  N_14 
REMARK    4  A    between atoms: N_14  and  C_15 
ROOT
HETATM    1  N   UNL     1     -42.434 -48.182   9.414  1.00  0.00    -0.305 N 
HETATM    2  C   UNL     1     -41.854 -48.356  10.653  1.00  0.00     0.321 C 
HETATM    3  O   UNL     1     -42.268 -47.892  11.710  1.00  0.00    -0.247 OA
HETATM    4  N   UNL     1     -40.707 -49.113  10.636  1.00  0.00    -0.330 N 
HETATM    5  H   UNL     1     -41.890 -48.416   8.595  1.00  0.00     0.171 HD
HETATM    6  H   UNL     1     -40.380 -49.555   9.785  1.00  0.00     0.165 HD
ENDROOT
BRANCH   1   7
HETATM    7  C   UNL     1     -43.627 -47.447   9.180  1.00  0.00     0.087 A 
HETATM    8  C   UNL     1     -43.647 -46.047   9.225  1.00  0.00     0.169 A 
HETATM    9  N   UNL     1     -44.783 -45.303   9.148  1.00  0.00    -0.345 N 
HETATM   10  C   UNL     1     -45.941 -45.957   8.949  1.00  0.00     0.090 A 
ATOM     11  HN  UNL     1     -44.757 -44.288   9.238  1.00  0.00     0.167 HD
HETATM   12  C   UNL     1     -46.021 -47.321   8.780  1.00  0.00     0.019 A 
HETATM   13  C   UNL     1     -44.847 -48.067   8.889  1.00  0.00     0.035 A 
BRANCH   8  14
HETATM   14  O   UNL     1     -42.449 -45.360   9.370  1.00  0.00    -0.334 OA
BRANCH  14  15
HETATM   15  C   UNL     1     -42.421 -44.663  10.629  1.00  0.00     0.173 C 
HETATM   16  C   UNL     1     -41.005 -44.623  11.173  1.00  0.00     0.034 C 
ENDBRANCH  14  15
ENDBRANCH   8  14
ENDBRANCH   1   7
BRANCH   4  17
HETATM   17  C   UNL     1     -40.065 -49.499  11.903  1.00  0.00     0.172 C 
HETATM   18  C   UNL     1     -38.562 -49.228  11.843  1.00  0.00     0.034 C 
HETATM   19  C   UNL     1     -37.921 -49.217  13.228  1.00  0.00     0.004 C 
HETATM   20  C   UNL     1     -37.550 -50.587  13.782  1.00  0.00     0.015 C 
HETATM   21  C   UNL     1     -38.493 -51.747  13.497  1.00  0.00     0.095 C 
HETATM   22  N   UNL     1     -39.908 -51.443  13.449  1.00  0.00    -0.261 NA
HETATM   23  C   UNL     1     -40.424 -50.948  12.269  1.00  0.00     0.220 C 
HETATM   24  H   UNL     1     -40.450 -52.267  13.687  1.00  0.00     0.130 HD
HETATM   25  O   UNL     1     -41.210 -51.635  11.617  1.00  0.00    -0.278 OA
ENDBRANCH   4  17
TORSDOF 4
ENDMDL
MODEL 2
REMARK VINA RESULT:      -6.3      4.330      6.344
REMARK  4 active torsions:
REMARK  status: ('A' for Active; 'I' for Inactive)
REMARK    1  A    between atoms: C_2  and  O_3 
REMARK    2  A    between atoms: O_3  and  C_4 
REMARK    3  A    between atoms: C_10  and  N_11 
REMARK       I    between atoms: N_11  and  C_12 
REMARK       I    between atoms: C_12  and  N_14 
REMARK    4  A    between atoms: N_14  and  C_15 
ROOT
HETATM    1  N   UNL     1     -44.026 -51.888  12.580  1.00  0.00    -0.305 N 
HETATM    2  C   UNL     1     -42.855 -51.305  13.019  1.00  0.00     0.321 C 
HETATM    3  O   UNL     1     -42.597 -50.999  14.178  1.00  0.00    -0.247 OA
HETATM    4  N   UNL     1     -41.942 -51.058  12.022  1.00  0.00    -0.330 N 
HETATM    5  H   UNL     1     -44.216 -51.888  11.588  1.00  0.00     0.171 HD
HETATM    6  H   UNL     1     -42.109 -51.356  11.069  1.00  0.00     0.165 HD
ENDROOT
BRANCH   1   7
HETATM    7  C   UNL     1     -45.112 -52.245  13.423  1.00  0.00     0.087 A 
HETATM    8  C   UNL     1     -45.363 -53.578  13.773  1.00  0.00     0.169 A 
HETATM    9  N   UNL     1     -46.464 -53.987  14.458  1.00  0.00    -0.345 N 
HETATM   10  C   UNL     1     -47.321 -53.039  14.879  1.00  0.00     0.090 A 
ATOM     11  HN  UNL     1     -46.634 -54.975  14.646  1.00  0.00     0.167 HD
HETATM   12  C   UNL     1     -47.114 -51.692  14.686  1.00  0.00     0.019 A 
HETATM   13  C   UNL     1     -45.991 -51.297  13.958  1.00  0.00     0.035 A 
BRANCH   8  14
HETATM   14  O   UNL     1     -44.453 -54.557  13.395  1.00  0.00    -0.334 OA
BRANCH  14  15
HETATM   15  C   UNL     1     -43.795 -55.102  14.554  1.00  0.00     0.173 C 
HETATM   16  C   UNL     1     -42.350 -54.644  14.600  1.00  0.00     0.034 C 
ENDBRANCH  14  15
ENDBRANCH   8  14
ENDBRANCH   1   7
BRANCH   4  17
HETATM   17  C   UNL     1     -40.595 -50.574  12.367  1.00  0.00     0.172 C 
HETATM   18  C   UNL     1     -40.090 -49.603  11.300  1.00  0.00     0.034 C 
HETATM   19  C   UNL     1     -38.909 -48.769  11.790  1.00  0.00     0.004 C 
HETATM   20  C   UNL     1     -37.547 -49.443  11.679  1.00  0.00     0.015 C 
HETATM   21  C   UNL     1     -37.469 -50.936  11.965  1.00  0.00     0.095 C 
HETATM   22  N   UNL     1     -38.351 -51.453  12.990  1.00  0.00    -0.261 NA
HETATM   23  C   UNL     1     -39.649 -51.756  12.633  1.00  0.00     0.220 C 
HETATM   24  H   UNL     1     -37.954 -52.290  13.402  1.00  0.00     0.130 HD
HETATM   25  O   UNL     1     -40.018 -52.930  12.635  1.00  0.00    -0.278 OA
ENDBRANCH   4  17
TORSDOF 4
ENDMDL
MODEL 3
REMARK VINA RESULT:      -6.3      3.868      6.734
REMARK  4 active torsions:
REMARK  status: ('A' for Active; 'I' for Inactive)
REMARK    1  A    between atoms: C_2  and  O_3 
REMARK    2  A    between atoms: O_3  and  C_4 
REMARK    3  A    between atoms: C_10  and  N_11 
REMARK       I    between atoms: N_11  and  C_12 
REMARK       I    between atoms: C_12  and  N_14 
REMARK    4  A    between atoms: N_14  and  C_15 
ROOT
HETATM    1  N   UNL     1     -42.853 -52.384  12.217  1.00  0.00    -0.305 N 
HETATM    2  C   UNL     1     -42.747 -51.043  12.526  1.00  0.00     0.321 C 
HETATM    3  O   UNL     1     -43.286 -50.481  13.473  1.00  0.00    -0.247 OA
HETATM    4  N   UNL     1     -41.967 -50.325  11.651  1.00  0.00    -0.330 N 
HETATM    5  H   UNL     1     -42.555 -52.687  11.299  1.00  0.00     0.171 HD
HETATM    6  H   UNL     1     -41.465 -50.778  10.898  1.00  0.00     0.165 HD
ENDROOT
BRANCH   1   7
HETATM    7  C   UNL     1     -43.595 -53.328  12.975  1.00  0.00     0.087 A 
HETATM    8  C   UNL     1     -44.973 -53.502  12.785  1.00  0.00     0.169 A 
HETATM    9  N   UNL     1     -45.753 -54.286  13.575  1.00  0.00    -0.345 N 
HETATM   10  C   UNL     1     -45.145 -54.984  14.550  1.00  0.00     0.090 A 
ATOM     11  HN  UNL     1     -46.761 -54.342  13.433  1.00  0.00     0.167 HD
HETATM   12  C   UNL     1     -43.783 -54.973  14.753  1.00  0.00     0.019 A 
HETATM   13  C   UNL     1     -43.005 -54.141  13.948  1.00  0.00     0.035 A 
BRANCH   8  14
HETATM   14  O   UNL     1     -45.599 -52.831  11.742  1.00  0.00    -0.334 OA
BRANCH  14  15
HETATM   15  C   UNL     1     -46.595 -51.928  12.256  1.00  0.00     0.173 C 
HETATM   16  C   UNL     1     -47.531 -51.494  11.143  1.00  0.00     0.034 C 
ENDBRANCH  14  15
ENDBRANCH   8  14
ENDBRANCH   1   7
BRANCH   4  17
HETATM   17  C   UNL     1     -41.650 -48.916  11.941  1.00  0.00     0.172 C 
HETATM   18  C   UNL     1     -42.552 -47.990  11.128  1.00  0.00     0.034 C 
HETATM   19  C   UNL     1     -42.560 -46.564  11.674  1.00  0.00     0.004 C 
HETATM   20  C   UNL     1     -41.406 -45.685  11.208  1.00  0.00     0.015 C 
HETATM   21  C   UNL     1     -40.036 -46.331  11.059  1.00  0.00     0.095 C 
HETATM   22  N   UNL     1     -39.698 -47.373  12.006  1.00  0.00    -0.261 NA
HETATM   23  C   UNL     1     -40.148 -48.652  11.749  1.00  0.00     0.220 C 
HETATM   24  H   UNL     1     -38.692 -47.430  12.118  1.00  0.00     0.130 HD
HETATM   25  O   UNL     1     -39.335 -49.535  11.475  1.00  0.00    -0.278 OA
ENDBRANCH   4  17
TORSDOF 4
ENDMDL
MODEL 4
REMARK VINA RESULT:      -6.3      3.120      4.594
REMARK  4 active torsions:
REMARK  status: ('A' for Active; 'I' for Inactive)
REMARK    1  A    between atoms: C_2  and  O_3 
REMARK    2  A    between atoms: O_3  and  C_4 
REMARK    3  A    between atoms: C_10  and  N_11 
REMARK       I    between atoms: N_11  and  C_12 
REMARK       I    between atoms: C_12  and  N_14 
REMARK    4  A    between atoms: N_14  and  C_15 
ROOT
HETATM    1  N   UNL     1     -41.884 -49.432  11.025  1.00  0.00    -0.305 N 
HETATM    2  C   UNL     1     -41.974 -50.121  12.217  1.00  0.00     0.321 C 
HETATM    3  O   UNL     1     -41.751 -49.660  13.331  1.00  0.00    -0.247 OA
HETATM    4  N   UNL     1     -42.338 -51.439  12.078  1.00  0.00    -0.330 N 
HETATM    5  H   UNL     1     -41.869 -49.964  10.166  1.00  0.00     0.171 HD
HETATM    6  H   UNL     1     -42.584 -51.826  11.175  1.00  0.00     0.165 HD
ENDROOT
BRANCH   1   7
HETATM    7  C   UNL     1     -41.534 -48.060  10.914  1.00  0.00     0.087 A 
HETATM    8  C   UNL     1     -42.410 -47.123  10.349  1.00  0.00     0.169 A 
HETATM    9  N   UNL     1     -42.073 -45.831  10.092  1.00  0.00    -0.345 N 
HETATM   10  C   UNL     1     -40.849 -45.422  10.469  1.00  0.00     0.090 A 
ATOM     11  HN  UNL     1     -42.724 -45.196   9.631  1.00  0.00     0.167 HD
HETATM   12  C   UNL     1     -39.951 -46.229  11.132  1.00  0.00     0.019 A 
HETATM   13  C   UNL     1     -40.307 -47.558  11.361  1.00  0.00     0.035 A 
BRANCH   8  14
HETATM   14  O   UNL     1     -43.697 -47.521  10.012  1.00  0.00    -0.334 OA
BRANCH  14  15
HETATM   15  C   UNL     1     -44.047 -47.027   8.706  1.00  0.00     0.173 C 
HETATM   16  C   UNL     1     -43.501 -47.951   7.634  1.00  0.00     0.034 C 
ENDBRANCH  14  15
ENDBRANCH   8  14
ENDBRANCH   1   7
BRANCH   4  17
HETATM   17  C   UNL     1     -42.613 -52.253  13.274  1.00  0.00     0.172 C 
HETATM   18  C   UNL     1     -42.026 -53.654  13.111  1.00  0.00     0.034 C 
HETATM   19  C   UNL     1     -41.917 -54.394  14.442  1.00  0.00     0.004 C 
HETATM   20  C   UNL     1     -43.191 -55.090  14.903  1.00  0.00     0.015 C 
HETATM   21  C   UNL     1     -44.517 -54.392  14.639  1.00  0.00     0.095 C 
HETATM   22  N   UNL     1     -44.522 -52.947  14.713  1.00  0.00    -0.261 NA
HETATM   23  C   UNL     1     -44.115 -52.240  13.600  1.00  0.00     0.220 C 
HETATM   24  H   UNL     1     -45.449 -52.612  14.954  1.00  0.00     0.130 HD
HETATM   25  O   UNL     1     -44.936 -51.564  12.980  1.00  0.00    -0.278 OA
ENDBRANCH   4  17
TORSDOF 4
ENDMDL
MODEL 5
REMARK VINA RESULT:      -6.1      3.998      5.581
REMARK  4 active torsions:
REMARK  status: ('A' for Active; 'I' for Inactive)
REMARK    1  A    between atoms: C_2  and  O_3 
REMARK    2  A    between atoms: O_3  and  C_4 
REMARK    3  A    between atoms: C_10  and  N_11 
REMARK       I    between atoms: N_11  and  C_12 
REMARK       I    between atoms: C_12  and  N_14 
REMARK    4  A    between atoms: N_14  and  C_15 
ROOT
HETATM    1  N   UNL     1     -41.766 -49.741  11.967  1.00  0.00    -0.305 N 
HETATM    2  C   UNL     1     -42.975 -49.931  12.604  1.00  0.00     0.321 C 
HETATM    3  O   UNL     1     -43.673 -49.050  13.094  1.00  0.00    -0.247 OA
HETATM    4  N   UNL     1     -43.373 -51.244  12.676  1.00  0.00    -0.330 N 
HETATM    5  H   UNL     1     -41.180 -50.549  11.807  1.00  0.00     0.171 HD
HETATM    6  H   UNL     1     -42.843 -51.981  12.227  1.00  0.00     0.165 HD
ENDROOT
BRANCH   1   7
HETATM    7  C   UNL     1     -41.154 -48.476  11.764  1.00  0.00     0.087 A 
HETATM    8  C   UNL     1     -41.414 -47.710  10.619  1.00  0.00     0.169 A 
HETATM    9  N   UNL     1     -40.752 -46.564  10.309  1.00  0.00    -0.345 N 
HETATM   10  C   UNL     1     -39.846 -46.111  11.193  1.00  0.00     0.090 A 
ATOM     11  HN  UNL     1     -40.936 -46.066   9.438  1.00  0.00     0.167 HD
HETATM   12  C   UNL     1     -39.593 -46.725  12.400  1.00  0.00     0.019 A 
HETATM   13  C   UNL     1     -40.264 -47.914  12.686  1.00  0.00     0.035 A 
BRANCH   8  14
HETATM   14  O   UNL     1     -42.391 -48.138   9.730  1.00  0.00    -0.334 OA
BRANCH  14  15
HETATM   15  C   UNL     1     -43.592 -47.363   9.896  1.00  0.00     0.173 C 
HETATM   16  C   UNL     1     -43.844 -46.518   8.662  1.00  0.00     0.034 C 
ENDBRANCH  14  15
ENDBRANCH   8  14
ENDBRANCH   1   7
BRANCH   4  17
HETATM   17  C   UNL     1     -44.709 -51.577  13.199  1.00  0.00     0.172 C 
HETATM   18  C   UNL     1     -44.767 -51.330  14.706  1.00  0.00     0.034 C 
HETATM   19  C   UNL     1     -46.200 -51.261  15.225  1.00  0.00     0.004 C 
HETATM   20  C   UNL     1     -46.849 -52.608  15.522  1.00  0.00     0.015 C 
HETATM   21  C   UNL     1     -46.538 -53.767  14.586  1.00  0.00     0.095 C 
HETATM   22  N   UNL     1     -46.352 -53.446  13.187  1.00  0.00    -0.261 NA
HETATM   23  C   UNL     1     -45.110 -53.002  12.784  1.00  0.00     0.220 C 
HETATM   24  H   UNL     1     -46.580 -54.250  12.611  1.00  0.00     0.130 HD
HETATM   25  O   UNL     1     -44.425 -53.709  12.045  1.00  0.00    -0.278 OA
ENDBRANCH   4  17
TORSDOF 4
ENDMDL
MODEL 6
REMARK VINA RESULT:      -5.8      2.204      3.964
REMARK  4 active torsions:
REMARK  status: ('A' for Active; 'I' for Inactive)
REMARK    1  A    between atoms: C_2  and  O_3 
REMARK    2  A    between atoms: O_3  and  C_4 
REMARK    3  A    between atoms: C_10  and  N_11 
REMARK       I    between atoms: N_11  and  C_12 
REMARK       I    between atoms: C_12  and  N_14 
REMARK    4  A    between atoms: N_14  and  C_15 
ROOT
HETATM    1  N   UNL     1     -41.084 -48.929  10.616  1.00  0.00    -0.305 N 
HETATM    2  C   UNL     1     -41.267 -49.928  11.549  1.00  0.00     0.321 C 
HETATM    3  O   UNL     1     -41.670 -49.772  12.697  1.00  0.00    -0.247 OA
HETATM    4  N   UNL     1     -40.938 -51.185  11.100  1.00  0.00    -0.330 N 
HETATM    5  H   UNL     1     -40.540 -49.140   9.791  1.00  0.00     0.171 HD
HETATM    6  H   UNL     1     -40.660 -51.344  10.139  1.00  0.00     0.165 HD
ENDROOT
BRANCH   1   7
HETATM    7  C   UNL     1     -41.361 -47.554  10.844  1.00  0.00     0.087 A 
HETATM    8  C   UNL     1     -42.634 -47.014  10.616  1.00  0.00     0.169 A 
HETATM    9  N   UNL     1     -42.916 -45.686  10.683  1.00  0.00    -0.345 N 
HETATM   10  C   UNL     1     -41.925 -44.859  11.059  1.00  0.00     0.090 A 
ATOM     11  HN  UNL     1     -43.844 -45.330  10.457  1.00  0.00     0.167 HD
HETATM   12  C   UNL     1     -40.668 -45.296  11.414  1.00  0.00     0.019 A 
HETATM   13  C   UNL     1     -40.392 -46.660  11.312  1.00  0.00     0.035 A 
BRANCH   8  14
HETATM   14  O   UNL     1     -43.678 -47.868  10.285  1.00  0.00    -0.334 OA
BRANCH  14  15
HETATM   15  C   UNL     1     -44.371 -47.383   9.120  1.00  0.00     0.173 C 
HETATM   16  C   UNL     1     -45.855 -47.674   9.235  1.00  0.00     0.034 C 
ENDBRANCH  14  15
ENDBRANCH   8  14
ENDBRANCH   1   7
BRANCH   4  17
HETATM   17  C   UNL     1     -41.221 -52.360  11.940  1.00  0.00     0.172 C 
HETATM   18  C   UNL     1     -42.623 -52.259  12.541  1.00  0.00     0.034 C 
HETATM   19  C   UNL     1     -43.123 -53.601  13.070  1.00  0.00     0.004 C 
HETATM   20  C   UNL     1     -42.654 -53.959  14.475  1.00  0.00     0.015 C 
HETATM   21  C   UNL     1     -41.235 -53.578  14.869  1.00  0.00     0.095 C 
HETATM   22  N   UNL     1     -40.229 -53.639  13.830  1.00  0.00    -0.261 NA
HETATM   23  C   UNL     1     -40.108 -52.558  12.981  1.00  0.00     0.220 C 
HETATM   24  H   UNL     1     -39.314 -53.798  14.239  1.00  0.00     0.130 HD
HETATM   25  O   UNL     1     -39.092 -51.865  13.025  1.00  0.00    -0.278 OA
ENDBRANCH   4  17
TORSDOF 4
ENDMDL
MODEL 7
REMARK VINA RESULT:      -5.8      3.206      6.971
REMARK  4 active torsions:
REMARK  status: ('A' for Active; 'I' for Inactive)
REMARK    1  A    between atoms: C_2  and  O_3 
REMARK    2  A    between atoms: O_3  and  C_4 
REMARK    3  A    between atoms: C_10  and  N_11 
REMARK       I    between atoms: N_11  and  C_12 
REMARK       I    between atoms: C_12  and  N_14 
REMARK    4  A    between atoms: N_14  and  C_15 
ROOT
HETATM    1  N   UNL     1     -42.325 -52.056  12.064  1.00  0.00    -0.305 N 
HETATM    2  C   UNL     1     -42.399 -50.690  12.244  1.00  0.00     0.321 C 
HETATM    3  O   UNL     1     -43.062 -50.114  13.100  1.00  0.00    -0.247 OA
HETATM    4  N   UNL     1     -41.654 -49.964  11.345  1.00  0.00    -0.330 N 
HETATM    5  H   UNL     1     -41.935 -52.403  11.199  1.00  0.00     0.171 HD
HETATM    6  H   UNL     1     -41.054 -50.419  10.669  1.00  0.00     0.165 HD
ENDROOT
BRANCH   1   7
HETATM    7  C   UNL     1     -42.999 -53.011  12.872  1.00  0.00     0.087 A 
HETATM    8  C   UNL     1     -42.413 -53.536  14.032  1.00  0.00     0.169 A 
HETATM    9  N   UNL     1     -42.951 -54.549  14.760  1.00  0.00    -0.345 N 
HETATM   10  C   UNL     1     -44.150 -55.022  14.375  1.00  0.00     0.090 A 
ATOM     11  HN  UNL     1     -42.465 -54.937  15.568  1.00  0.00     0.167 HD
HETATM   12  C   UNL     1     -44.864 -54.503  13.317  1.00  0.00     0.019 A 
HETATM   13  C   UNL     1     -44.280 -53.482  12.568  1.00  0.00     0.035 A 
BRANCH   8  14
HETATM   14  O   UNL     1     -41.203 -53.013  14.471  1.00  0.00    -0.334 OA
BRANCH  14  15
HETATM   15  C   UNL     1     -40.364 -54.062  14.990  1.00  0.00     0.173 C 
HETATM   16  C   UNL     1     -39.369 -54.505  13.934  1.00  0.00     0.034 C 
ENDBRANCH  14  15
ENDBRANCH   8  14
ENDBRANCH   1   7
BRANCH   4  17
HETATM   17  C   UNL     1     -41.526 -48.506  11.510  1.00  0.00     0.172 C 
HETATM   18  C   UNL     1     -42.222 -47.778  10.360  1.00  0.00     0.034 C 
HETATM   19  C   UNL     1     -42.477 -46.307  10.679  1.00  0.00     0.004 C 
HETATM   20  C   UNL     1     -41.299 -45.374  10.425  1.00  0.00     0.015 C 
HETATM   21  C   UNL     1     -39.904 -45.889  10.745  1.00  0.00     0.095 C 
HETATM   22  N   UNL     1     -39.779 -46.774  11.884  1.00  0.00    -0.261 NA
HETATM   23  C   UNL     1     -40.052 -48.114  11.697  1.00  0.00     0.220 C 
HETATM   24  H   UNL     1     -38.843 -46.714  12.272  1.00  0.00     0.130 HD
HETATM   25  O   UNL     1     -39.138 -48.934  11.779  1.00  0.00    -0.278 OA
ENDBRANCH   4  17
TORSDOF 4
ENDMDL
MODEL 8
REMARK VINA RESULT:      -5.7      1.610      2.122
REMARK  4 active torsions:
REMARK  status: ('A' for Active; 'I' for Inactive)
REMARK    1  A    between atoms: C_2  and  O_3 
REMARK    2  A    between atoms: O_3  and  C_4 
REMARK    3  A    between atoms: C_10  and  N_11 
REMARK       I    between atoms: N_11  and  C_12 
REMARK       I    between atoms: C_12  and  N_14 
REMARK    4  A    between atoms: N_14  and  C_15 
ROOT
HETATM    1  N   UNL     1     -41.255 -48.635  10.254  1.00  0.00    -0.305 N 
HETATM    2  C   UNL     1     -41.305 -49.326  11.447  1.00  0.00     0.321 C 
HETATM    3  O   UNL     1     -42.120 -49.147  12.346  1.00  0.00    -0.247 OA
HETATM    4  N   UNL     1     -40.323 -50.277  11.588  1.00  0.00    -0.330 N 
HETATM    5  H   UNL     1     -40.417 -48.710   9.694  1.00  0.00     0.171 HD
HETATM    6  H   UNL     1     -39.677 -50.483  10.835  1.00  0.00     0.165 HD
ENDROOT
BRANCH   1   7
HETATM    7  C   UNL     1     -42.168 -47.613   9.878  1.00  0.00     0.087 A 
HETATM    8  C   UNL     1     -42.113 -46.334  10.447  1.00  0.00     0.169 A 
HETATM    9  N   UNL     1     -43.043 -45.367  10.228  1.00  0.00    -0.345 N 
HETATM   10  C   UNL     1     -44.031 -45.643   9.358  1.00  0.00     0.090 A 
ATOM     11  HN  UNL     1     -42.994 -44.468  10.705  1.00  0.00     0.167 HD
HETATM   12  C   UNL     1     -44.117 -46.826   8.659  1.00  0.00     0.019 A 
HETATM   13  C   UNL     1     -43.167 -47.814   8.920  1.00  0.00     0.035 A 
BRANCH   8  14
HETATM   14  O   UNL     1     -41.063 -46.021  11.300  1.00  0.00    -0.334 OA
BRANCH  14  15
HETATM   15  C   UNL     1     -40.531 -44.721  10.982  1.00  0.00     0.173 C 
HETATM   16  C   UNL     1     -39.435 -44.846   9.940  1.00  0.00     0.034 C 
ENDBRANCH  14  15
ENDBRANCH   8  14
ENDBRANCH   1   7
BRANCH   4  17
HETATM   17  C   UNL     1     -40.344 -51.187  12.745  1.00  0.00     0.172 C 
HETATM   18  C   UNL     1     -38.935 -51.365  13.308  1.00  0.00     0.034 C 
HETATM   19  C   UNL     1     -38.945 -51.948  14.719  1.00  0.00     0.004 C 
HETATM   20  C   UNL     1     -39.059 -53.465  14.793  1.00  0.00     0.015 C 
HETATM   21  C   UNL     1     -39.960 -54.160  13.782  1.00  0.00     0.095 C 
HETATM   22  N   UNL     1     -41.156 -53.453  13.378  1.00  0.00    -0.261 NA
HETATM   23  C   UNL     1     -41.043 -52.506  12.380  1.00  0.00     0.220 C 
HETATM   24  H   UNL     1     -41.868 -54.112  13.081  1.00  0.00     0.130 HD
HETATM   25  O   UNL     1     -41.576 -52.710  11.290  1.00  0.00    -0.278 OA
ENDBRANCH   4  17
TORSDOF 4
ENDMDL
MODEL 9
REMARK VINA RESULT:      -5.6      3.807      6.626
REMARK  4 active torsions:
REMARK  status: ('A' for Active; 'I' for Inactive)
REMARK    1  A    between atoms: C_2  and  O_3 
REMARK    2  A    between atoms: O_3  and  C_4 
REMARK    3  A    between atoms: C_10  and  N_11 
REMARK       I    between atoms: N_11  and  C_12 
REMARK       I    between atoms: C_12  and  N_14 
REMARK    4  A    between atoms: N_14  and  C_15 
ROOT
HETATM    1  N   UNL     1     -40.674 -50.271  13.773  1.00  0.00    -0.305 N 
HETATM    2  C   UNL     1     -41.791 -51.004  13.430  1.00  0.00     0.321 C 
HETATM    3  O   UNL     1     -41.948 -51.627  12.386  1.00  0.00    -0.247 OA
HETATM    4  N   UNL     1     -42.788 -50.985  14.377  1.00  0.00    -0.330 N 
HETATM    5  H   UNL     1     -40.746 -49.624  14.546  1.00  0.00     0.171 HD
HETATM    6  H   UNL     1     -42.657 -50.527  15.270  1.00  0.00     0.165 HD
ENDROOT
BRANCH   1   7
HETATM    7  C   UNL     1     -39.514 -50.147  12.963  1.00  0.00     0.087 A 
HETATM    8  C   UNL     1     -39.431 -49.193  11.940  1.00  0.00     0.169 A 
HETATM    9  N   UNL     1     -38.407 -49.124  11.049  1.00  0.00    -0.345 N 
HETATM   10  C   UNL     1     -37.385 -49.984  11.210  1.00  0.00     0.090 A 
ATOM     11  HN  UNL     1     -38.413 -48.447  10.287  1.00  0.00     0.167 HD
HETATM   12  C   UNL     1     -37.312 -50.887  12.247  1.00  0.00     0.019 A 
HETATM   13  C   UNL     1     -38.387 -50.958  13.134  1.00  0.00     0.035 A 
BRANCH   8  14
HETATM   14  O   UNL     1     -40.453 -48.262  11.803  1.00  0.00    -0.334 OA
BRANCH  14  15
HETATM   15  C   UNL     1     -41.292 -48.602  10.683  1.00  0.00     0.173 C 
HETATM   16  C   UNL     1     -42.274 -47.479  10.406  1.00  0.00     0.034 C 
ENDBRANCH  14  15
ENDBRANCH   8  14
ENDBRANCH   1   7
BRANCH   4  17
HETATM   17  C   UNL     1     -43.975 -51.840  14.207  1.00  0.00     0.172 C 
HETATM   18  C   UNL     1     -45.242 -51.068  14.571  1.00  0.00     0.034 C 
HETATM   19  C   UNL     1     -46.503 -51.743  14.037  1.00  0.00     0.004 C 
HETATM   20  C   UNL     1     -47.056 -52.865  14.906  1.00  0.00     0.015 C 
HETATM   21  C   UNL     1     -46.061 -53.780  15.604  1.00  0.00     0.095 C 
HETATM   22  N   UNL     1     -44.833 -54.073  14.895  1.00  0.00    -0.261 NA
HETATM   23  C   UNL     1     -43.803 -53.158  14.979  1.00  0.00     0.220 C 
HETATM   24  H   UNL     1     -44.461 -54.967  15.196  1.00  0.00     0.130 HD
HETATM   25  O   UNL     1     -42.770 -53.464  15.574  1.00  0.00    -0.278 OA
ENDBRANCH   4  17
TORSDOF 4
ENDMDL
