MODEL 1
REMARK VINA RESULT:      -6.7      0.000      0.000
REMARK  4 active torsions:
REMARK  status: ('A' for Active; 'I' for Inactive)
REMARK    1  A    between atoms: O_1  and  C_2 
REMARK    2  A    between atoms: C_2  and  C_3 
REMARK    3  A    between atoms: C_2  and  C_14 
REMARK    4  A    between atoms: C_3  and  N_4 
ROOT
HETATM    1  C   UNL     1     -40.775 -53.437  12.916  1.00  0.00     0.172 C 
ENDROOT
BRANCH   1   2
HETATM    2  O   UNL     1     -40.565 -53.482  11.500  1.00  0.00    -0.389 OA
HETATM    3  H   UNL     1     -41.436 -53.556  11.073  1.00  0.00     0.210 HD
ENDBRANCH   1   2
BRANCH   1   4
HETATM    4  C   UNL     1     -40.396 -52.059  13.494  1.00  0.00     0.166 C 
BRANCH   4   5
HETATM    5  N   UNL     1     -40.326 -50.983  12.522  1.00  0.00    -0.338 N 
HETATM    6  C   UNL     1     -39.222 -50.673  11.771  1.00  0.00     0.184 A 
HETATM    7  N   UNL     1     -39.439 -49.650  10.979  1.00  0.00    -0.350 N 
HETATM    8  C   UNL     1     -40.727 -49.260  11.245  1.00  0.00     0.060 A 
ATOM      9  HN  UNL     1     -38.791 -49.235  10.311  1.00  0.00     0.166 HD
HETATM   10  C   UNL     1     -41.465 -48.206  10.688  1.00  0.00     0.032 A 
HETATM   11  C   UNL     1     -41.309 -50.070  12.220  1.00  0.00     0.062 A 
HETATM   12  C   UNL     1     -42.769 -47.984  11.140  1.00  0.00     0.002 A 
HETATM   13  C   UNL     1     -43.331 -48.798  12.124  1.00  0.00     0.002 A 
HETATM   14  C   UNL     1     -42.616 -49.865  12.683  1.00  0.00     0.032 A 
ENDBRANCH   4   5
ENDBRANCH   1   4
BRANCH   1  15
HETATM   15  C   UNL     1     -42.189 -53.853  13.253  1.00  0.00     0.011 A 
HETATM   16  C   UNL     1     -43.290 -53.446  12.485  1.00  0.00     0.016 A 
HETATM   17  C   UNL     1     -44.586 -53.802  12.866  1.00  0.00     0.043 A 
HETATM   18  C   UNL     1     -44.782 -54.570  14.008  1.00  0.00     0.119 A 
HETATM   19  F   UNL     1     -46.026 -54.905  14.372  1.00  0.00    -0.206 F 
HETATM   20  C   UNL     1     -43.708 -54.991  14.780  1.00  0.00     0.085 A 
HETATM   21  C   UNL     1     -42.424 -54.624  14.398  1.00  0.00     0.128 A 
HETATM   22  F   UNL     1     -41.388 -55.008  15.159  1.00  0.00    -0.205 F 
ENDBRANCH   1  15
TORSDOF 4
ENDMDL
MODEL 2
REMARK VINA RESULT:      -6.4      2.733      5.230
REMARK  4 active torsions:
REMARK  status: ('A' for Active; 'I' for Inactive)
REMARK    1  A    between atoms: O_1  and  C_2 
REMARK    2  A    between atoms: C_2  and  C_3 
REMARK    3  A    between atoms: C_2  and  C_14 
REMARK    4  A    between atoms: C_3  and  N_4 
ROOT
HETATM    1  C   UNL     1     -41.766 -52.954  12.449  1.00  0.00     0.172 C 
ENDROOT
BRANCH   1   2
HETATM    2  O   UNL     1     -41.360 -52.577  11.129  1.00  0.00    -0.389 OA
HETATM    3  H   UNL     1     -40.462 -52.922  10.984  1.00  0.00     0.210 HD
ENDBRANCH   1   2
BRANCH   1   4
HETATM    4  C   UNL     1     -40.716 -52.538  13.498  1.00  0.00     0.166 C 
BRANCH   4   5
HETATM    5  N   UNL     1     -40.165 -53.628  14.282  1.00  0.00    -0.338 N 
HETATM    6  C   UNL     1     -38.879 -54.092  14.189  1.00  0.00     0.184 A 
HETATM    7  N   UNL     1     -38.656 -55.090  15.010  1.00  0.00    -0.350 N 
HETATM    8  C   UNL     1     -39.853 -55.304  15.645  1.00  0.00     0.060 A 
ATOM      9  HN  UNL     1     -37.782 -55.597  15.147  1.00  0.00     0.166 HD
HETATM   10  C   UNL     1     -40.181 -56.260  16.616  1.00  0.00     0.032 A 
HETATM   11  C   UNL     1     -40.827 -54.409  15.200  1.00  0.00     0.062 A 
HETATM   12  C   UNL     1     -41.491 -56.302  17.105  1.00  0.00     0.002 A 
HETATM   13  C   UNL     1     -42.453 -55.406  16.641  1.00  0.00     0.002 A 
HETATM   14  C   UNL     1     -42.143 -54.434  15.682  1.00  0.00     0.032 A 
ENDBRANCH   4   5
ENDBRANCH   1   4
BRANCH   1  15
HETATM   15  C   UNL     1     -43.148 -52.419  12.748  1.00  0.00     0.011 A 
HETATM   16  C   UNL     1     -43.357 -51.116  13.226  1.00  0.00     0.016 A 
HETATM   17  C   UNL     1     -44.644 -50.680  13.548  1.00  0.00     0.043 A 
HETATM   18  C   UNL     1     -45.723 -51.542  13.388  1.00  0.00     0.119 A 
HETATM   19  F   UNL     1     -46.955 -51.122  13.702  1.00  0.00    -0.206 F 
HETATM   20  C   UNL     1     -45.543 -52.833  12.910  1.00  0.00     0.085 A 
HETATM   21  C   UNL     1     -44.258 -53.259  12.601  1.00  0.00     0.128 A 
HETATM   22  F   UNL     1     -44.081 -54.516  12.165  1.00  0.00    -0.205 F 
ENDBRANCH   1  15
TORSDOF 4
ENDMDL
MODEL 3
REMARK VINA RESULT:      -6.2      1.585      2.652
REMARK  4 active torsions:
REMARK  status: ('A' for Active; 'I' for Inactive)
REMARK    1  A    between atoms: O_1  and  C_2 
REMARK    2  A    between atoms: C_2  and  C_3 
REMARK    3  A    between atoms: C_2  and  C_14 
REMARK    4  A    between atoms: C_3  and  N_4 
ROOT
HETATM    1  C   UNL     1     -41.327 -52.738  12.554  1.00  0.00     0.172 C 
ENDROOT
BRANCH   1   2
HETATM    2  O   UNL     1     -40.680 -53.446  11.492  1.00  0.00    -0.389 OA
HETATM    3  H   UNL     1     -39.773 -53.651  11.779  1.00  0.00     0.210 HD
ENDBRANCH   1   2
BRANCH   1   4
HETATM    4  C   UNL     1     -41.576 -51.265  12.174  1.00  0.00     0.166 C 
BRANCH   4   5
HETATM    5  N   UNL     1     -40.399 -50.416  12.205  1.00  0.00    -0.338 N 
HETATM    6  C   UNL     1     -39.926 -49.689  11.144  1.00  0.00     0.184 A 
HETATM    7  N   UNL     1     -38.843 -49.017  11.453  1.00  0.00    -0.350 N 
HETATM    8  C   UNL     1     -38.583 -49.341  12.760  1.00  0.00     0.060 A 
ATOM      9  HN  UNL     1     -38.309 -48.390  10.851  1.00  0.00     0.166 HD
HETATM   10  C   UNL     1     -37.534 -48.912  13.586  1.00  0.00     0.032 A 
HETATM   11  C   UNL     1     -39.536 -50.229  13.259  1.00  0.00     0.062 A 
HETATM   12  C   UNL     1     -37.462 -49.404  14.893  1.00  0.00     0.002 A 
HETATM   13  C   UNL     1     -38.419 -50.299  15.371  1.00  0.00     0.002 A 
HETATM   14  C   UNL     1     -39.483 -50.728  14.568  1.00  0.00     0.032 A 
ENDBRANCH   4   5
ENDBRANCH   1   4
BRANCH   1  15
HETATM   15  C   UNL     1     -42.585 -53.461  12.979  1.00  0.00     0.011 A 
HETATM   16  C   UNL     1     -43.829 -53.213  12.377  1.00  0.00     0.016 A 
HETATM   17  C   UNL     1     -44.978 -53.858  12.841  1.00  0.00     0.043 A 
HETATM   18  C   UNL     1     -44.885 -54.753  13.900  1.00  0.00     0.119 A 
HETATM   19  F   UNL     1     -45.990 -55.366  14.344  1.00  0.00    -0.206 F 
HETATM   20  C   UNL     1     -43.666 -55.020  14.507  1.00  0.00     0.085 A 
HETATM   21  C   UNL     1     -42.531 -54.367  14.044  1.00  0.00     0.128 A 
HETATM   22  F   UNL     1     -41.357 -54.605  14.649  1.00  0.00    -0.205 F 
ENDBRANCH   1  15
TORSDOF 4
ENDMDL
MODEL 4
REMARK VINA RESULT:      -6.2      2.382      2.982
REMARK  4 active torsions:
REMARK  status: ('A' for Active; 'I' for Inactive)
REMARK    1  A    between atoms: O_1  and  C_2 
REMARK    2  A    between atoms: C_2  and  C_3 
REMARK    3  A    between atoms: C_2  and  C_14 
REMARK    4  A    between atoms: C_3  and  N_4 
ROOT
HETATM    1  C   UNL     1     -44.025 -54.030  13.543  1.00  0.00     0.172 C 
ENDROOT
BRANCH   1   2
HETATM    2  O   UNL     1     -44.243 -54.088  12.130  1.00  0.00    -0.389 OA
HETATM    3  H   UNL     1     -45.090 -54.542  11.978  1.00  0.00     0.210 HD
ENDBRANCH   1   2
BRANCH   1   4
HETATM    4  C   UNL     1     -42.604 -53.529  13.870  1.00  0.00     0.166 C 
BRANCH   4   5
HETATM    5  N   UNL     1     -42.115 -52.466  13.012  1.00  0.00    -0.338 N 
HETATM    6  C   UNL     1     -41.294 -52.643  11.930  1.00  0.00     0.184 A 
HETATM    7  N   UNL     1     -41.005 -51.507  11.341  1.00  0.00    -0.350 N 
HETATM    8  C   UNL     1     -41.641 -50.547  12.086  1.00  0.00     0.060 A 
ATOM      9  HN  UNL     1     -40.431 -51.368  10.510  1.00  0.00     0.166 HD
HETATM   10  C   UNL     1     -41.657 -49.156  11.909  1.00  0.00     0.032 A 
HETATM   11  C   UNL     1     -42.338 -51.116  13.153  1.00  0.00     0.062 A 
HETATM   12  C   UNL     1     -42.365 -48.369  12.823  1.00  0.00     0.002 A 
HETATM   13  C   UNL     1     -43.048 -48.955  13.889  1.00  0.00     0.002 A 
HETATM   14  C   UNL     1     -43.056 -50.343  14.076  1.00  0.00     0.032 A 
ENDBRANCH   4   5
ENDBRANCH   1   4
BRANCH   1  15
HETATM   15  C   UNL     1     -45.109 -53.214  14.211  1.00  0.00     0.011 A 
HETATM   16  C   UNL     1     -45.855 -52.251  13.515  1.00  0.00     0.016 A 
HETATM   17  C   UNL     1     -46.805 -51.476  14.183  1.00  0.00     0.043 A 
HETATM   18  C   UNL     1     -47.016 -51.667  15.544  1.00  0.00     0.119 A 
HETATM   19  F   UNL     1     -47.925 -50.919  16.182  1.00  0.00    -0.206 F 
HETATM   20  C   UNL     1     -46.296 -52.618  16.253  1.00  0.00     0.085 A 
HETATM   21  C   UNL     1     -45.346 -53.377  15.581  1.00  0.00     0.128 A 
HETATM   22  F   UNL     1     -44.632 -54.278  16.273  1.00  0.00    -0.205 F 
ENDBRANCH   1  15
TORSDOF 4
ENDMDL
MODEL 5
REMARK VINA RESULT:      -6.2      3.330      5.714
REMARK  4 active torsions:
REMARK  status: ('A' for Active; 'I' for Inactive)
REMARK    1  A    between atoms: O_1  and  C_2 
REMARK    2  A    between atoms: C_2  and  C_3 
REMARK    3  A    between atoms: C_2  and  C_14 
REMARK    4  A    between atoms: C_3  and  N_4 
ROOT
HETATM    1  C   UNL     1     -41.038 -52.520  12.291  1.00  0.00     0.172 C 
ENDROOT
BRANCH   1   2
HETATM    2  O   UNL     1     -40.512 -53.440  11.328  1.00  0.00    -0.389 OA
HETATM    3  H   UNL     1     -40.782 -54.336  11.593  1.00  0.00     0.210 HD
ENDBRANCH   1   2
BRANCH   1   4
HETATM    4  C   UNL     1     -41.642 -53.261  13.500  1.00  0.00     0.166 C 
BRANCH   4   5
HETATM    5  N   UNL     1     -42.697 -52.545  14.194  1.00  0.00    -0.338 N 
HETATM    6  C   UNL     1     -42.571 -51.960  15.427  1.00  0.00     0.184 A 
HETATM    7  N   UNL     1     -43.685 -51.387  15.815  1.00  0.00    -0.350 N 
HETATM    8  C   UNL     1     -44.582 -51.633  14.807  1.00  0.00     0.060 A 
ATOM      9  HN  UNL     1     -43.849 -50.872  16.679  1.00  0.00     0.166 HD
HETATM   10  C   UNL     1     -45.930 -51.257  14.711  1.00  0.00     0.032 A 
HETATM   11  C   UNL     1     -43.996 -52.370  13.777  1.00  0.00     0.062 A 
HETATM   12  C   UNL     1     -46.660 -51.647  13.584  1.00  0.00     0.002 A 
HETATM   13  C   UNL     1     -46.058 -52.393  12.569  1.00  0.00     0.002 A 
HETATM   14  C   UNL     1     -44.710 -52.767  12.639  1.00  0.00     0.032 A 
ENDBRANCH   4   5
ENDBRANCH   1   4
BRANCH   1  15
HETATM   15  C   UNL     1     -39.986 -51.507  12.682  1.00  0.00     0.011 A 
HETATM   16  C   UNL     1     -39.173 -51.674  13.813  1.00  0.00     0.016 A 
HETATM   17  C   UNL     1     -38.254 -50.685  14.175  1.00  0.00     0.043 A 
HETATM   18  C   UNL     1     -38.143 -49.534  13.403  1.00  0.00     0.119 A 
HETATM   19  F   UNL     1     -37.264 -48.587  13.755  1.00  0.00    -0.206 F 
HETATM   20  C   UNL     1     -38.930 -49.350  12.275  1.00  0.00     0.085 A 
HETATM   21  C   UNL     1     -39.847 -50.335  11.930  1.00  0.00     0.128 A 
HETATM   22  F   UNL     1     -40.626 -50.144  10.855  1.00  0.00    -0.205 F 
ENDBRANCH   1  15
TORSDOF 4
ENDMDL
MODEL 6
REMARK VINA RESULT:      -6.1      3.912      6.752
REMARK  4 active torsions:
REMARK  status: ('A' for Active; 'I' for Inactive)
REMARK    1  A    between atoms: O_1  and  C_2 
REMARK    2  A    between atoms: C_2  and  C_3 
REMARK    3  A    between atoms: C_2  and  C_14 
REMARK    4  A    between atoms: C_3  and  N_4 
ROOT
HETATM    1  C   UNL     1     -41.121 -49.430  11.407  1.00  0.00     0.172 C 
ENDROOT
BRANCH   1   2
HETATM    2  O   UNL     1     -40.428 -50.008  10.296  1.00  0.00    -0.389 OA
HETATM    3  H   UNL     1     -39.538 -50.258  10.598  1.00  0.00     0.210 HD
ENDBRANCH   1   2
BRANCH   1   4
HETATM    4  C   UNL     1     -40.999 -50.313  12.664  1.00  0.00     0.166 C 
BRANCH   4   5
HETATM    5  N   UNL     1     -41.771 -51.542  12.629  1.00  0.00    -0.338 N 
HETATM    6  C   UNL     1     -41.277 -52.772  12.281  1.00  0.00     0.184 A 
HETATM    7  N   UNL     1     -42.198 -53.703  12.330  1.00  0.00    -0.350 N 
HETATM    8  C   UNL     1     -43.347 -53.050  12.698  1.00  0.00     0.060 A 
ATOM      9  HN  UNL     1     -42.086 -54.698  12.136  1.00  0.00     0.166 HD
HETATM   10  C   UNL     1     -44.636 -53.567  12.888  1.00  0.00     0.032 A 
HETATM   11  C   UNL     1     -43.115 -51.686  12.882  1.00  0.00     0.062 A 
HETATM   12  C   UNL     1     -45.667 -52.691  13.244  1.00  0.00     0.002 A 
HETATM   13  C   UNL     1     -45.418 -51.329  13.414  1.00  0.00     0.002 A 
HETATM   14  C   UNL     1     -44.135 -50.795  13.243  1.00  0.00     0.032 A 
ENDBRANCH   4   5
ENDBRANCH   1   4
BRANCH   1  15
HETATM   15  C   UNL     1     -40.659 -48.008  11.635  1.00  0.00     0.011 A 
HETATM   16  C   UNL     1     -39.820 -47.658  12.703  1.00  0.00     0.016 A 
HETATM   17  C   UNL     1     -39.465 -46.323  12.914  1.00  0.00     0.043 A 
HETATM   18  C   UNL     1     -39.942 -45.340  12.054  1.00  0.00     0.119 A 
HETATM   19  F   UNL     1     -39.604 -44.062  12.262  1.00  0.00    -0.206 F 
HETATM   20  C   UNL     1     -40.768 -45.663  10.986  1.00  0.00     0.085 A 
HETATM   21  C   UNL     1     -41.122 -46.992  10.791  1.00  0.00     0.128 A 
HETATM   22  F   UNL     1     -41.941 -47.299   9.774  1.00  0.00    -0.205 F 
ENDBRANCH   1  15
TORSDOF 4
ENDMDL
MODEL 7
REMARK VINA RESULT:      -6.0      2.252      3.332
REMARK  4 active torsions:
REMARK  status: ('A' for Active; 'I' for Inactive)
REMARK    1  A    between atoms: O_1  and  C_2 
REMARK    2  A    between atoms: C_2  and  C_3 
REMARK    3  A    between atoms: C_2  and  C_14 
REMARK    4  A    between atoms: C_3  and  N_4 
ROOT
HETATM    1  C   UNL     1     -40.851 -53.176  12.811  1.00  0.00     0.172 C 
ENDROOT
BRANCH   1   2
HETATM    2  O   UNL     1     -40.557 -53.445  11.436  1.00  0.00    -0.389 OA
HETATM    3  H   UNL     1     -39.731 -53.959  11.404  1.00  0.00     0.210 HD
ENDBRANCH   1   2
BRANCH   1   4
HETATM    4  C   UNL     1     -40.682 -51.679  13.137  1.00  0.00     0.166 C 
BRANCH   4   5
HETATM    5  N   UNL     1     -39.660 -51.376  14.122  1.00  0.00    -0.338 N 
HETATM    6  C   UNL     1     -39.306 -52.192  15.164  1.00  0.00     0.184 A 
HETATM    7  N   UNL     1     -38.358 -51.664  15.901  1.00  0.00    -0.350 N 
HETATM    8  C   UNL     1     -38.102 -50.442  15.332  1.00  0.00     0.060 A 
ATOM      9  HN  UNL     1     -37.908 -52.074  16.719  1.00  0.00     0.166 HD
HETATM   10  C   UNL     1     -37.186 -49.457  15.726  1.00  0.00     0.032 A 
HETATM   11  C   UNL     1     -38.914 -50.225  14.218  1.00  0.00     0.062 A 
HETATM   12  C   UNL     1     -37.121 -48.267  14.996  1.00  0.00     0.002 A 
HETATM   13  C   UNL     1     -37.947 -48.063  13.890  1.00  0.00     0.002 A 
HETATM   14  C   UNL     1     -38.859 -49.040  13.471  1.00  0.00     0.032 A 
ENDBRANCH   4   5
ENDBRANCH   1   4
BRANCH   1  15
HETATM   15  C   UNL     1     -42.219 -53.710  13.171  1.00  0.00     0.011 A 
HETATM   16  C   UNL     1     -43.373 -53.350  12.458  1.00  0.00     0.016 A 
HETATM   17  C   UNL     1     -44.626 -53.817  12.861  1.00  0.00     0.043 A 
HETATM   18  C   UNL     1     -44.727 -54.649  13.970  1.00  0.00     0.119 A 
HETATM   19  F   UNL     1     -45.931 -55.091  14.355  1.00  0.00    -0.206 F 
HETATM   20  C   UNL     1     -43.600 -55.026  14.687  1.00  0.00     0.085 A 
HETATM   21  C   UNL     1     -42.359 -54.548  14.284  1.00  0.00     0.128 A 
HETATM   22  F   UNL     1     -41.273 -54.891  14.993  1.00  0.00    -0.205 F 
ENDBRANCH   1  15
TORSDOF 4
ENDMDL
MODEL 8
REMARK VINA RESULT:      -5.9      1.509      2.169
REMARK  4 active torsions:
REMARK  status: ('A' for Active; 'I' for Inactive)
REMARK    1  A    between atoms: O_1  and  C_2 
REMARK    2  A    between atoms: C_2  and  C_3 
REMARK    3  A    between atoms: C_2  and  C_14 
REMARK    4  A    between atoms: C_3  and  N_4 
ROOT
HETATM    1  C   UNL     1     -41.113 -52.213  12.209  1.00  0.00     0.172 C 
ENDROOT
BRANCH   1   2
HETATM    2  O   UNL     1     -41.234 -52.772  10.897  1.00  0.00    -0.389 OA
HETATM    3  H   UNL     1     -41.462 -52.051  10.286  1.00  0.00     0.210 HD
ENDBRANCH   1   2
BRANCH   1   4
HETATM    4  C   UNL     1     -41.898 -50.891  12.328  1.00  0.00     0.166 C 
BRANCH   4   5
HETATM    5  N   UNL     1     -41.177 -49.708  11.895  1.00  0.00    -0.338 N 
HETATM    6  C   UNL     1     -39.813 -49.574  11.894  1.00  0.00     0.184 A 
HETATM    7  N   UNL     1     -39.435 -48.397  11.458  1.00  0.00    -0.350 N 
HETATM    8  C   UNL     1     -40.601 -47.725  11.189  1.00  0.00     0.060 A 
ATOM      9  HN  UNL     1     -38.482 -48.054  11.343  1.00  0.00     0.166 HD
HETATM   10  C   UNL     1     -40.779 -46.419  10.710  1.00  0.00     0.032 A 
HETATM   11  C   UNL     1     -41.715 -48.517  11.466  1.00  0.00     0.062 A 
HETATM   12  C   UNL     1     -42.080 -45.938  10.535  1.00  0.00     0.002 A 
HETATM   13  C   UNL     1     -43.182 -46.742  10.827  1.00  0.00     0.002 A 
HETATM   14  C   UNL     1     -43.026 -48.053  11.293  1.00  0.00     0.032 A 
ENDBRANCH   4   5
ENDBRANCH   1   4
BRANCH   1  15
HETATM   15  C   UNL     1     -41.507 -53.231  13.255  1.00  0.00     0.011 A 
HETATM   16  C   UNL     1     -42.818 -53.717  13.369  1.00  0.00     0.016 A 
HETATM   17  C   UNL     1     -43.155 -54.611  14.388  1.00  0.00     0.043 A 
HETATM   18  C   UNL     1     -42.180 -55.026  15.288  1.00  0.00     0.119 A 
HETATM   19  F   UNL     1     -42.507 -55.880  16.266  1.00  0.00    -0.206 F 
HETATM   20  C   UNL     1     -40.874 -54.566  15.193  1.00  0.00     0.085 A 
HETATM   21  C   UNL     1     -40.553 -53.670  14.181  1.00  0.00     0.128 A 
HETATM   22  F   UNL     1     -39.296 -53.204  14.105  1.00  0.00    -0.205 F 
ENDBRANCH   1  15
TORSDOF 4
ENDMDL
MODEL 9
REMARK VINA RESULT:      -5.9      2.690      3.865
REMARK  4 active torsions:
REMARK  status: ('A' for Active; 'I' for Inactive)
REMARK    1  A    between atoms: O_1  and  C_2 
REMARK    2  A    between atoms: C_2  and  C_3 
REMARK    3  A    between atoms: C_2  and  C_14 
REMARK    4  A    between atoms: C_3  and  N_4 
ROOT
HETATM    1  C   UNL     1     -40.802 -50.064  11.708  1.00  0.00     0.172 C 
ENDROOT
BRANCH   1   2
HETATM    2  O   UNL     1     -40.366 -50.237  10.355  1.00  0.00    -0.389 OA
HETATM    3  H   UNL     1     -39.507 -50.693  10.375  1.00  0.00     0.210 HD
ENDBRANCH   1   2
BRANCH   1   4
HETATM    4  C   UNL     1     -41.987 -49.082  11.793  1.00  0.00     0.166 C 
BRANCH   4   5
HETATM    5  N   UNL     1     -41.756 -47.785  11.182  1.00  0.00    -0.338 N 
HETATM    6  C   UNL     1     -42.286 -47.372   9.988  1.00  0.00     0.184 A 
HETATM    7  N   UNL     1     -41.904 -46.157   9.676  1.00  0.00    -0.350 N 
HETATM    8  C   UNL     1     -41.069 -45.772  10.694  1.00  0.00     0.060 A 
ATOM      9  HN  UNL     1     -42.170 -45.616   8.853  1.00  0.00     0.166 HD
HETATM   10  C   UNL     1     -40.372 -44.567  10.859  1.00  0.00     0.032 A 
HETATM   11  C   UNL     1     -40.945 -46.779  11.652  1.00  0.00     0.062 A 
HETATM   12  C   UNL     1     -39.552 -44.411  11.981  1.00  0.00     0.002 A 
HETATM   13  C   UNL     1     -39.432 -45.433  12.923  1.00  0.00     0.002 A 
HETATM   14  C   UNL     1     -40.131 -46.639  12.784  1.00  0.00     0.032 A 
ENDBRANCH   4   5
ENDBRANCH   1   4
BRANCH   1  15
HETATM   15  C   UNL     1     -41.096 -51.404  12.342  1.00  0.00     0.011 A 
HETATM   16  C   UNL     1     -42.380 -51.970  12.332  1.00  0.00     0.016 A 
HETATM   17  C   UNL     1     -42.623 -53.181  12.983  1.00  0.00     0.043 A 
HETATM   18  C   UNL     1     -41.582 -53.832  13.637  1.00  0.00     0.119 A 
HETATM   19  F   UNL     1     -41.820 -54.991  14.264  1.00  0.00    -0.206 F 
HETATM   20  C   UNL     1     -40.302 -53.297  13.655  1.00  0.00     0.085 A 
HETATM   21  C   UNL     1     -40.074 -52.086  13.012  1.00  0.00     0.128 A 
HETATM   22  F   UNL     1     -38.842 -51.556  13.053  1.00  0.00    -0.205 F 
ENDBRANCH   1  15
TORSDOF 4
ENDMDL
