MODEL 1
REMARK VINA RESULT:      -6.5      0.000      0.000
REMARK  3 active torsions:
REMARK  status: ('A' for Active; 'I' for Inactive)
REMARK    1  A    between atoms: C_8  and  N_9 
REMARK       I    between atoms: N_9  and  C_10 
REMARK       I    between atoms: C_10  and  N_12 
REMARK    2  A    between atoms: N_12  and  C_13 
REMARK    3  A    between atoms: N_16  and  S_19 
ROOT
HETATM    1  N   UNL     1     -41.944 -49.251  10.991  1.00  0.00    -0.294 N 
HETATM    2  C   UNL     1     -41.875 -49.844  12.232  1.00  0.00     0.322 C 
HETATM    3  O   UNL     1     -41.513 -49.299  13.265  1.00  0.00    -0.247 OA
HETATM    4  N   UNL     1     -42.301 -51.155  12.177  1.00  0.00    -0.338 N 
HETATM    5  H   UNL     1     -41.534 -49.802  10.253  1.00  0.00     0.172 HD
HETATM    6  H   UNL     1     -42.270 -51.568  11.256  1.00  0.00     0.164 HD
ENDROOT
BRANCH   1   7
HETATM    7  C   UNL     1     -41.664 -47.896  10.783  1.00  0.00     0.114 A 
HETATM    8  C   UNL     1     -42.605 -46.964  10.332  1.00  0.00    -0.018 A 
HETATM    9  C   UNL     1     -44.011 -47.314   9.942  1.00  0.00     0.052 C 
HETATM   10  C   UNL     1     -42.175 -45.636  10.194  1.00  0.00     0.012 A 
HETATM   11  C   UNL     1     -40.855 -45.296  10.466  1.00  0.00     0.018 A 
HETATM   12  C   UNL     1     -39.993 -46.305  10.849  1.00  0.00     0.089 A 
HETATM   13  N   UNL     1     -40.359 -47.597  10.985  1.00  0.00    -0.352 N 
ATOM     14  HN  UNL     1     -39.681 -48.318  11.229  1.00  0.00     0.166 HD
ENDBRANCH   1   7
BRANCH   4  15
HETATM   15  C   UNL     1     -42.260 -52.066  13.325  1.00  0.00     0.089 C 
HETATM   16  C   UNL     1     -42.474 -53.510  12.852  1.00  0.00     0.045 C 
HETATM   17  C   UNL     1     -43.916 -53.745  12.410  1.00  0.00     0.137 C 
HETATM   18  N   UNL     1     -44.896 -53.390  13.463  1.00  0.00    -0.311 N 
HETATM   19  C   UNL     1     -44.716 -51.982  13.931  1.00  0.00     0.137 C 
HETATM   20  C   UNL     1     -43.292 -51.744  14.417  1.00  0.00     0.045 C 
BRANCH  18  21
HETATM   21  S   UNL     1     -45.249 -54.517  14.684  1.00  0.00     0.224 S 
HETATM   22  O   UNL     1     -46.139 -55.512  14.133  1.00  0.00    -0.206 OA
HETATM   23  O   UNL     1     -43.999 -54.901  15.303  1.00  0.00    -0.206 OA
HETATM   24  C   UNL     1     -46.164 -53.554  15.873  1.00  0.00     0.186 C 
ENDBRANCH  18  21
ENDBRANCH   4  15
TORSDOF 3
ENDMDL
MODEL 2
REMARK VINA RESULT:      -6.3      3.319      7.979
REMARK  3 active torsions:
REMARK  status: ('A' for Active; 'I' for Inactive)
REMARK    1  A    between atoms: C_8  and  N_9 
REMARK       I    between atoms: N_9  and  C_10 
REMARK       I    between atoms: C_10  and  N_12 
REMARK    2  A    between atoms: N_12  and  C_13 
REMARK    3  A    between atoms: N_16  and  S_19 
ROOT
HETATM    1  N   UNL     1     -44.758 -51.189  12.845  1.00  0.00    -0.294 N 
HETATM    2  C   UNL     1     -43.453 -50.766  12.955  1.00  0.00     0.322 C 
HETATM    3  O   UNL     1     -42.564 -51.344  13.563  1.00  0.00    -0.247 OA
HETATM    4  N   UNL     1     -43.253 -49.595  12.254  1.00  0.00    -0.338 N 
HETATM    5  H   UNL     1     -45.437 -50.465  13.021  1.00  0.00     0.172 HD
HETATM    6  H   UNL     1     -44.093 -49.068  12.069  1.00  0.00     0.164 HD
ENDROOT
BRANCH   1   7
HETATM    7  C   UNL     1     -45.209 -52.402  13.378  1.00  0.00     0.114 A 
HETATM    8  C   UNL     1     -46.225 -52.504  14.336  1.00  0.00    -0.018 A 
HETATM    9  C   UNL     1     -46.903 -51.325  14.968  1.00  0.00     0.052 C 
HETATM   10  C   UNL     1     -46.580 -53.795  14.755  1.00  0.00     0.012 A 
HETATM   11  C   UNL     1     -45.911 -54.904  14.251  1.00  0.00     0.018 A 
HETATM   12  C   UNL     1     -44.884 -54.686  13.352  1.00  0.00     0.089 A 
HETATM   13  N   UNL     1     -44.501 -53.464  12.929  1.00  0.00    -0.352 N 
ATOM     14  HN  UNL     1     -43.709 -53.345  12.297  1.00  0.00     0.166 HD
ENDBRANCH   1   7
BRANCH   4  15
HETATM   15  C   UNL     1     -41.983 -48.860  12.255  1.00  0.00     0.089 C 
HETATM   16  C   UNL     1     -42.051 -47.704  13.261  1.00  0.00     0.045 C 
HETATM   17  C   UNL     1     -42.973 -46.590  12.770  1.00  0.00     0.137 C 
HETATM   18  N   UNL     1     -42.594 -46.093  11.427  1.00  0.00    -0.311 N 
HETATM   19  C   UNL     1     -42.534 -47.200  10.426  1.00  0.00     0.137 C 
HETATM   20  C   UNL     1     -41.583 -48.300  10.882  1.00  0.00     0.045 C 
BRANCH  18  21
HETATM   21  S   UNL     1     -41.366 -44.927  11.289  1.00  0.00     0.224 S 
HETATM   22  O   UNL     1     -40.500 -45.049  12.439  1.00  0.00    -0.206 OA
HETATM   23  O   UNL     1     -40.832 -45.007   9.946  1.00  0.00    -0.206 OA
HETATM   24  C   UNL     1     -42.251 -43.386  11.424  1.00  0.00     0.186 C 
ENDBRANCH  18  21
ENDBRANCH   4  15
TORSDOF 3
ENDMDL
MODEL 3
REMARK VINA RESULT:      -6.1      3.400      8.070
REMARK  3 active torsions:
REMARK  status: ('A' for Active; 'I' for Inactive)
REMARK    1  A    between atoms: C_8  and  N_9 
REMARK       I    between atoms: N_9  and  C_10 
REMARK       I    between atoms: C_10  and  N_12 
REMARK    2  A    between atoms: N_12  and  C_13 
REMARK    3  A    between atoms: N_16  and  S_19 
ROOT
HETATM    1  N   UNL     1     -43.145 -51.814  12.478  1.00  0.00    -0.294 N 
HETATM    2  C   UNL     1     -43.432 -50.551  12.944  1.00  0.00     0.322 C 
HETATM    3  O   UNL     1     -44.125 -50.289  13.916  1.00  0.00    -0.247 OA
HETATM    4  N   UNL     1     -42.805 -49.589  12.180  1.00  0.00    -0.338 N 
HETATM    5  H   UNL     1     -43.262 -51.917  11.482  1.00  0.00     0.172 HD
HETATM    6  H   UNL     1     -42.536 -49.895  11.257  1.00  0.00     0.164 HD
ENDROOT
BRANCH   1   7
HETATM    7  C   UNL     1     -43.573 -52.977  13.129  1.00  0.00     0.114 A 
HETATM    8  C   UNL     1     -42.720 -53.841  13.825  1.00  0.00    -0.018 A 
HETATM    9  C   UNL     1     -41.231 -53.671  13.897  1.00  0.00     0.052 C 
HETATM   10  C   UNL     1     -43.305 -54.955  14.444  1.00  0.00     0.012 A 
HETATM   11  C   UNL     1     -44.671 -55.186  14.323  1.00  0.00     0.018 A 
HETATM   12  C   UNL     1     -45.412 -54.301  13.564  1.00  0.00     0.089 A 
HETATM   13  N   UNL     1     -44.890 -53.223  12.942  1.00  0.00    -0.352 N 
ATOM     14  HN  UNL     1     -45.466 -52.618  12.356  1.00  0.00     0.166 HD
ENDBRANCH   1   7
BRANCH   4  15
HETATM   15  C   UNL     1     -42.991 -48.148  12.383  1.00  0.00     0.089 C 
HETATM   16  C   UNL     1     -43.227 -47.457  11.033  1.00  0.00     0.045 C 
HETATM   17  C   UNL     1     -41.952 -47.418  10.195  1.00  0.00     0.137 C 
HETATM   18  N   UNL     1     -40.821 -46.787  10.915  1.00  0.00    -0.311 N 
HETATM   19  C   UNL     1     -40.563 -47.451  12.228  1.00  0.00     0.137 C 
HETATM   20  C   UNL     1     -41.817 -47.459  13.094  1.00  0.00     0.045 C 
BRANCH  18  21
HETATM   21  S   UNL     1     -40.684 -45.094  10.923  1.00  0.00     0.224 S 
HETATM   22  O   UNL     1     -40.058 -44.688   9.687  1.00  0.00    -0.206 OA
HETATM   23  O   UNL     1     -41.965 -44.550  11.320  1.00  0.00    -0.206 OA
HETATM   24  C   UNL     1     -39.536 -44.786  12.252  1.00  0.00     0.186 C 
ENDBRANCH  18  21
ENDBRANCH   4  15
TORSDOF 3
ENDMDL
MODEL 4
REMARK VINA RESULT:      -5.9      2.661      3.788
REMARK  3 active torsions:
REMARK  status: ('A' for Active; 'I' for Inactive)
REMARK    1  A    between atoms: C_8  and  N_9 
REMARK       I    between atoms: N_9  and  C_10 
REMARK       I    between atoms: C_10  and  N_12 
REMARK    2  A    between atoms: N_12  and  C_13 
REMARK    3  A    between atoms: N_16  and  S_19 
ROOT
HETATM    1  N   UNL     1     -41.710 -49.499  11.187  1.00  0.00    -0.294 N 
HETATM    2  C   UNL     1     -42.210 -50.054  12.344  1.00  0.00     0.322 C 
HETATM    3  O   UNL     1     -43.007 -49.523  13.104  1.00  0.00    -0.247 OA
HETATM    4  N   UNL     1     -41.714 -51.327  12.535  1.00  0.00    -0.338 N 
HETATM    5  H   UNL     1     -40.710 -49.587  11.093  1.00  0.00     0.172 HD
HETATM    6  H   UNL     1     -40.858 -51.523  12.037  1.00  0.00     0.164 HD
ENDROOT
BRANCH   1   7
HETATM    7  C   UNL     1     -42.126 -48.254  10.703  1.00  0.00     0.114 A 
HETATM    8  C   UNL     1     -41.351 -47.090  10.774  1.00  0.00    -0.018 A 
HETATM    9  C   UNL     1     -40.011 -47.015  11.445  1.00  0.00     0.052 C 
HETATM   10  C   UNL     1     -41.899 -45.923  10.223  1.00  0.00     0.012 A 
HETATM   11  C   UNL     1     -43.175 -45.942   9.670  1.00  0.00     0.018 A 
HETATM   12  C   UNL     1     -43.877 -47.131   9.704  1.00  0.00     0.089 A 
HETATM   13  N   UNL     1     -43.395 -48.275  10.232  1.00  0.00    -0.352 N 
ATOM     14  HN  UNL     1     -43.963 -49.121  10.275  1.00  0.00     0.166 HD
ENDBRANCH   1   7
BRANCH   4  15
HETATM   15  C   UNL     1     -42.001 -52.135  13.725  1.00  0.00     0.089 C 
HETATM   16  C   UNL     1     -41.028 -51.767  14.853  1.00  0.00     0.045 C 
HETATM   17  C   UNL     1     -39.616 -52.268  14.558  1.00  0.00     0.137 C 
HETATM   18  N   UNL     1     -39.577 -53.724  14.288  1.00  0.00    -0.311 N 
HETATM   19  C   UNL     1     -40.508 -54.106  13.183  1.00  0.00     0.137 C 
HETATM   20  C   UNL     1     -41.931 -53.651  13.484  1.00  0.00     0.045 C 
BRANCH  18  21
HETATM   21  S   UNL     1     -39.523 -54.809  15.594  1.00  0.00     0.224 S 
HETATM   22  O   UNL     1     -40.880 -55.096  15.995  1.00  0.00    -0.206 OA
HETATM   23  O   UNL     1     -38.612 -55.878  15.242  1.00  0.00    -0.206 OA
HETATM   24  C   UNL     1     -38.754 -53.852  16.886  1.00  0.00     0.186 C 
ENDBRANCH  18  21
ENDBRANCH   4  15
TORSDOF 3
ENDMDL
MODEL 5
REMARK VINA RESULT:      -5.5      3.308      4.505
REMARK  3 active torsions:
REMARK  status: ('A' for Active; 'I' for Inactive)
REMARK    1  A    between atoms: C_8  and  N_9 
REMARK       I    between atoms: N_9  and  C_10 
REMARK       I    between atoms: C_10  and  N_12 
REMARK    2  A    between atoms: N_12  and  C_13 
REMARK    3  A    between atoms: N_16  and  S_19 
ROOT
HETATM    1  N   UNL     1     -41.558 -45.855  12.526  1.00  0.00    -0.294 N 
HETATM    2  C   UNL     1     -41.564 -46.945  11.685  1.00  0.00     0.322 C 
HETATM    3  O   UNL     1     -41.653 -46.905  10.466  1.00  0.00    -0.247 OA
HETATM    4  N   UNL     1     -41.424 -48.118  12.395  1.00  0.00    -0.338 N 
HETATM    5  H   UNL     1     -42.173 -45.950  13.320  1.00  0.00     0.172 HD
HETATM    6  H   UNL     1     -41.672 -48.050  13.372  1.00  0.00     0.164 HD
ENDROOT
BRANCH   1   7
HETATM    7  C   UNL     1     -41.586 -44.536  12.059  1.00  0.00     0.114 A 
HETATM    8  C   UNL     1     -40.504 -43.653  12.150  1.00  0.00    -0.018 A 
HETATM    9  C   UNL     1     -39.207 -43.983  12.827  1.00  0.00     0.052 C 
HETATM   10  C   UNL     1     -40.682 -42.369  11.614  1.00  0.00     0.012 A 
HETATM   11  C   UNL     1     -41.902 -42.005  11.056  1.00  0.00     0.018 A 
HETATM   12  C   UNL     1     -42.923 -42.937  11.070  1.00  0.00     0.089 A 
HETATM   13  N   UNL     1     -42.801 -44.178  11.583  1.00  0.00    -0.352 N 
ATOM     14  HN  UNL     1     -43.593 -44.821  11.612  1.00  0.00     0.166 HD
ENDBRANCH   1   7
BRANCH   4  15
HETATM   15  C   UNL     1     -41.480 -49.448  11.778  1.00  0.00     0.089 C 
HETATM   16  C   UNL     1     -42.342 -50.384  12.635  1.00  0.00     0.045 C 
HETATM   17  C   UNL     1     -41.640 -50.754  13.938  1.00  0.00     0.137 C 
HETATM   18  N   UNL     1     -40.298 -51.341  13.712  1.00  0.00    -0.311 N 
HETATM   19  C   UNL     1     -39.434 -50.441  12.890  1.00  0.00     0.137 C 
HETATM   20  C   UNL     1     -40.104 -50.097  11.565  1.00  0.00     0.045 C 
BRANCH  18  21
HETATM   21  S   UNL     1     -40.166 -52.996  13.350  1.00  0.00     0.224 S 
HETATM   22  O   UNL     1     -40.649 -53.201  12.005  1.00  0.00    -0.206 OA
HETATM   23  O   UNL     1     -38.839 -53.426  13.736  1.00  0.00    -0.206 OA
HETATM   24  C   UNL     1     -41.324 -53.751  14.475  1.00  0.00     0.186 C 
ENDBRANCH  18  21
ENDBRANCH   4  15
TORSDOF 3
ENDMDL
MODEL 6
REMARK VINA RESULT:      -5.5      3.485      8.145
REMARK  3 active torsions:
REMARK  status: ('A' for Active; 'I' for Inactive)
REMARK    1  A    between atoms: C_8  and  N_9 
REMARK       I    between atoms: N_9  and  C_10 
REMARK       I    between atoms: C_10  and  N_12 
REMARK    2  A    between atoms: N_12  and  C_13 
REMARK    3  A    between atoms: N_16  and  S_19 
ROOT
HETATM    1  N   UNL     1     -41.711 -51.616  14.035  1.00  0.00    -0.294 N 
HETATM    2  C   UNL     1     -41.431 -51.186  12.757  1.00  0.00     0.322 C 
HETATM    3  O   UNL     1     -41.647 -51.812  11.730  1.00  0.00    -0.247 OA
HETATM    4  N   UNL     1     -40.890 -49.917  12.771  1.00  0.00    -0.338 N 
HETATM    5  H   UNL     1     -40.951 -51.483  14.685  1.00  0.00     0.172 HD
HETATM    6  H   UNL     1     -40.480 -49.645  13.653  1.00  0.00     0.164 HD
ENDROOT
BRANCH   1   7
HETATM    7  C   UNL     1     -42.357 -52.829  14.301  1.00  0.00     0.114 A 
HETATM    8  C   UNL     1     -41.736 -53.929  14.904  1.00  0.00    -0.018 A 
HETATM    9  C   UNL     1     -40.281 -53.973  15.269  1.00  0.00     0.052 C 
HETATM   10  C   UNL     1     -42.525 -55.066  15.125  1.00  0.00     0.012 A 
HETATM   11  C   UNL     1     -43.855 -55.085  14.720  1.00  0.00     0.018 A 
HETATM   12  C   UNL     1     -44.353 -53.966  14.082  1.00  0.00     0.089 A 
HETATM   13  N   UNL     1     -43.628 -52.854  13.838  1.00  0.00    -0.352 N 
ATOM     14  HN  UNL     1     -44.022 -52.065  13.326  1.00  0.00     0.166 HD
ENDBRANCH   1   7
BRANCH   4  15
HETATM   15  C   UNL     1     -40.413 -49.229  11.567  1.00  0.00     0.089 C 
HETATM   16  C   UNL     1     -39.377 -48.164  11.951  1.00  0.00     0.045 C 
HETATM   17  C   UNL     1     -40.030 -46.980  12.660  1.00  0.00     0.137 C 
HETATM   18  N   UNL     1     -41.128 -46.380  11.867  1.00  0.00    -0.311 N 
HETATM   19  C   UNL     1     -42.157 -47.397  11.491  1.00  0.00     0.137 C 
HETATM   20  C   UNL     1     -41.526 -48.565  10.743  1.00  0.00     0.045 C 
BRANCH  18  21
HETATM   21  S   UNL     1     -40.754 -45.250  10.654  1.00  0.00     0.224 S 
HETATM   22  O   UNL     1     -39.419 -45.527  10.179  1.00  0.00    -0.206 OA
HETATM   23  O   UNL     1     -41.874 -45.201   9.738  1.00  0.00    -0.206 OA
HETATM   24  C   UNL     1     -40.717 -43.703  11.539  1.00  0.00     0.186 C 
ENDBRANCH  18  21
ENDBRANCH   4  15
TORSDOF 3
ENDMDL
MODEL 7
REMARK VINA RESULT:      -5.3     14.397     15.705
REMARK  3 active torsions:
REMARK  status: ('A' for Active; 'I' for Inactive)
REMARK    1  A    between atoms: C_8  and  N_9 
REMARK       I    between atoms: N_9  and  C_10 
REMARK       I    between atoms: C_10  and  N_12 
REMARK    2  A    between atoms: N_12  and  C_13 
REMARK    3  A    between atoms: N_16  and  S_19 
ROOT
HETATM    1  N   UNL     1     -50.727 -48.903  -0.301  1.00  0.00    -0.294 N 
HETATM    2  C   UNL     1     -50.415 -50.137   0.224  1.00  0.00     0.322 C 
HETATM    3  O   UNL     1     -49.907 -50.340   1.317  1.00  0.00    -0.247 OA
HETATM    4  N   UNL     1     -50.780 -51.147  -0.641  1.00  0.00    -0.338 N 
HETATM    5  H   UNL     1     -50.426 -48.778  -1.255  1.00  0.00     0.172 HD
HETATM    6  H   UNL     1     -50.889 -50.858  -1.602  1.00  0.00     0.164 HD
ENDROOT
BRANCH   1   7
HETATM    7  C   UNL     1     -50.554 -47.711   0.411  1.00  0.00     0.114 A 
HETATM    8  C   UNL     1     -49.489 -46.826   0.206  1.00  0.00    -0.018 A 
HETATM    9  C   UNL     1     -48.360 -47.081  -0.748  1.00  0.00     0.052 C 
HETATM   10  C   UNL     1     -49.468 -45.660   0.985  1.00  0.00     0.012 A 
HETATM   11  C   UNL     1     -50.455 -45.437   1.938  1.00  0.00     0.018 A 
HETATM   12  C   UNL     1     -51.429 -46.403   2.100  1.00  0.00     0.089 A 
HETATM   13  N   UNL     1     -51.484 -47.544   1.381  1.00  0.00    -0.352 N 
ATOM     14  HN  UNL     1     -52.196 -48.251   1.561  1.00  0.00     0.166 HD
ENDBRANCH   1   7
BRANCH   4  15
HETATM   15  C   UNL     1     -50.497 -52.565  -0.392  1.00  0.00     0.089 C 
HETATM   16  C   UNL     1     -49.109 -52.923  -0.941  1.00  0.00     0.045 C 
HETATM   17  C   UNL     1     -49.100 -52.941  -2.468  1.00  0.00     0.137 C 
HETATM   18  N   UNL     1     -50.133 -53.843  -3.030  1.00  0.00    -0.311 N 
HETATM   19  C   UNL     1     -51.497 -53.505  -2.519  1.00  0.00     0.137 C 
HETATM   20  C   UNL     1     -51.532 -53.526  -0.996  1.00  0.00     0.045 C 
BRANCH  18  21
HETATM   21  S   UNL     1     -49.804 -55.504  -3.161  1.00  0.00     0.224 S 
HETATM   22  O   UNL     1     -48.957 -55.883  -2.054  1.00  0.00    -0.206 OA
HETATM   23  O   UNL     1     -51.058 -56.185  -3.403  1.00  0.00    -0.206 OA
HETATM   24  C   UNL     1     -48.839 -55.609  -4.656  1.00  0.00     0.186 C 
ENDBRANCH  18  21
ENDBRANCH   4  15
TORSDOF 3
ENDMDL
MODEL 8
REMARK VINA RESULT:      -5.3     19.781     21.993
REMARK  3 active torsions:
REMARK  status: ('A' for Active; 'I' for Inactive)
REMARK    1  A    between atoms: C_8  and  N_9 
REMARK       I    between atoms: N_9  and  C_10 
REMARK       I    between atoms: C_10  and  N_12 
REMARK    2  A    between atoms: N_12  and  C_13 
REMARK    3  A    between atoms: N_16  and  S_19 
ROOT
HETATM    1  N   UNL     1     -31.050 -51.881  -4.505  1.00  0.00    -0.294 N 
HETATM    2  C   UNL     1     -31.188 -50.882  -5.442  1.00  0.00     0.322 C 
HETATM    3  O   UNL     1     -30.652 -50.854  -6.540  1.00  0.00    -0.247 OA
HETATM    4  N   UNL     1     -32.048 -49.901  -4.995  1.00  0.00    -0.338 N 
HETATM    5  H   UNL     1     -30.865 -51.543  -3.573  1.00  0.00     0.172 HD
HETATM    6  H   UNL     1     -32.170 -49.874  -3.993  1.00  0.00     0.164 HD
ENDROOT
BRANCH   1   7
HETATM    7  C   UNL     1     -30.312 -53.046  -4.743  1.00  0.00     0.114 A 
HETATM    8  C   UNL     1     -30.857 -54.335  -4.715  1.00  0.00    -0.018 A 
HETATM    9  C   UNL     1     -32.281 -54.635  -4.352  1.00  0.00     0.052 C 
HETATM   10  C   UNL     1     -29.990 -55.401  -4.997  1.00  0.00     0.012 A 
HETATM   11  C   UNL     1     -28.645 -55.161  -5.253  1.00  0.00     0.018 A 
HETATM   12  C   UNL     1     -28.199 -53.854  -5.198  1.00  0.00     0.089 A 
HETATM   13  N   UNL     1     -28.994 -52.800  -4.921  1.00  0.00    -0.352 N 
ATOM     14  HN  UNL     1     -28.616 -51.855  -4.849  1.00  0.00     0.166 HD
ENDBRANCH   1   7
BRANCH   4  15
HETATM   15  C   UNL     1     -32.325 -48.668  -5.740  1.00  0.00     0.089 C 
HETATM   16  C   UNL     1     -31.241 -47.624  -5.441  1.00  0.00     0.045 C 
HETATM   17  C   UNL     1     -31.367 -47.079  -4.021  1.00  0.00     0.137 C 
HETATM   18  N   UNL     1     -32.714 -46.528  -3.743  1.00  0.00    -0.311 N 
HETATM   19  C   UNL     1     -33.787 -47.532  -4.015  1.00  0.00     0.137 C 
HETATM   20  C   UNL     1     -33.701 -48.053  -5.444  1.00  0.00     0.045 C 
BRANCH  18  21
HETATM   21  S   UNL     1     -33.076 -44.938  -4.221  1.00  0.00     0.224 S 
HETATM   22  O   UNL     1     -33.318 -44.941  -5.645  1.00  0.00    -0.206 OA
HETATM   23  O   UNL     1     -34.065 -44.416  -3.301  1.00  0.00    -0.206 OA
HETATM   24  C   UNL     1     -31.550 -44.067  -3.921  1.00  0.00     0.186 C 
ENDBRANCH  18  21
ENDBRANCH   4  15
TORSDOF 3
ENDMDL
MODEL 9
REMARK VINA RESULT:      -5.1     14.251     16.525
REMARK  3 active torsions:
REMARK  status: ('A' for Active; 'I' for Inactive)
REMARK    1  A    between atoms: C_8  and  N_9 
REMARK       I    between atoms: N_9  and  C_10 
REMARK       I    between atoms: C_10  and  N_12 
REMARK    2  A    between atoms: N_12  and  C_13 
REMARK    3  A    between atoms: N_16  and  S_19 
ROOT
HETATM    1  N   UNL     1     -51.370 -51.676  -1.275  1.00  0.00    -0.294 N 
HETATM    2  C   UNL     1     -50.552 -51.168  -0.291  1.00  0.00     0.322 C 
HETATM    3  O   UNL     1     -49.574 -51.727   0.184  1.00  0.00    -0.247 OA
HETATM    4  N   UNL     1     -50.960 -49.906   0.087  1.00  0.00    -0.338 N 
HETATM    5  H   UNL     1     -52.354 -51.588  -1.072  1.00  0.00     0.172 HD
HETATM    6  H   UNL     1     -51.921 -49.692  -0.134  1.00  0.00     0.164 HD
ENDROOT
BRANCH   1   7
HETATM    7  C   UNL     1     -51.124 -52.900  -1.908  1.00  0.00     0.114 A 
HETATM    8  C   UNL     1     -51.886 -54.055  -1.697  1.00  0.00    -0.018 A 
HETATM    9  C   UNL     1     -53.012 -54.149  -0.711  1.00  0.00     0.052 C 
HETATM   10  C   UNL     1     -51.526 -55.199  -2.425  1.00  0.00     0.012 A 
HETATM   11  C   UNL     1     -50.433 -55.167  -3.284  1.00  0.00     0.018 A 
HETATM   12  C   UNL     1     -49.715 -53.990  -3.374  1.00  0.00     0.089 A 
HETATM   13  N   UNL     1     -50.017 -52.870  -2.685  1.00  0.00    -0.352 N 
ATOM     14  HN  UNL     1     -49.435 -52.035  -2.748  1.00  0.00     0.166 HD
ENDBRANCH   1   7
BRANCH   4  15
HETATM   15  C   UNL     1     -50.333 -49.146   1.174  1.00  0.00     0.089 C 
HETATM   16  C   UNL     1     -51.348 -48.165   1.776  1.00  0.00     0.045 C 
HETATM   17  C   UNL     1     -51.646 -47.013   0.820  1.00  0.00     0.137 C 
HETATM   18  N   UNL     1     -50.420 -46.300   0.392  1.00  0.00    -0.311 N 
HETATM   19  C   UNL     1     -49.421 -47.234  -0.210  1.00  0.00     0.137 C 
HETATM   20  C   UNL     1     -49.080 -48.366   0.751  1.00  0.00     0.045 C 
BRANCH  18  21
HETATM   21  S   UNL     1     -49.768 -45.095   1.396  1.00  0.00     0.224 S 
HETATM   22  O   UNL     1     -49.668 -45.630   2.734  1.00  0.00    -0.206 OA
HETATM   23  O   UNL     1     -48.607 -44.546   0.728  1.00  0.00    -0.206 OA
HETATM   24  C   UNL     1     -51.032 -43.838   1.396  1.00  0.00     0.186 C 
ENDBRANCH  18  21
ENDBRANCH   4  15
TORSDOF 3
ENDMDL
