MODEL 1
REMARK VINA RESULT:      -5.8      0.000      0.000
REMARK  6 active torsions:
REMARK  status: ('A' for Active; 'I' for Inactive)
REMARK    1  A    between atoms: C_7  and  O_8 
REMARK    2  A    between atoms: O_8  and  C_9 
REMARK    3  A    between atoms: C_9  and  C_10 
REMARK    4  A    between atoms: C_10  and  N_11 
REMARK       I    between atoms: N_11  and  C_12 
REMARK    5  A    between atoms: C_12  and  C_14 
REMARK    6  A    between atoms: C_14  and  N_15 
ROOT
HETATM    1  N   UNL     1     -42.251 -49.157  11.138  1.00  0.00    -0.358 N 
HETATM    2  C   UNL     1     -41.847 -47.844  11.228  1.00  0.00     0.237 C 
HETATM    3  O   UNL     1     -41.257 -47.394  12.207  1.00  0.00    -0.272 OA
HETATM    4  H   UNL     1     -42.928 -49.441  10.440  1.00  0.00     0.162 HD
ENDROOT
BRANCH   1   5
HETATM    5  C   UNL     1     -41.998 -50.100  12.214  1.00  0.00     0.148 C 
BRANCH   5   6
HETATM    6  C   UNL     1     -43.201 -50.265  13.142  1.00  0.00     0.187 C 
BRANCH   6   7
HETATM    7  O   UNL     1     -43.688 -51.611  13.052  1.00  0.00    -0.384 OA
BRANCH   7   8
HETATM    8  C   UNL     1     -44.597 -51.960  14.107  1.00  0.00     0.125 C 
HETATM    9  C   UNL     1     -45.944 -52.507  13.579  1.00  0.00     0.010 C 
HETATM   10  C   UNL     1     -46.570 -51.601  12.510  1.00  0.00     0.012 C 
HETATM   11  C   UNL     1     -46.911 -52.766  14.742  1.00  0.00     0.007 C 
HETATM   12  C   UNL     1     -47.123 -51.537  15.620  1.00  0.00     0.001 C 
HETATM   13  C   UNL     1     -45.800 -50.961  16.114  1.00  0.00     0.002 C 
HETATM   14  C   UNL     1     -44.809 -50.712  14.979  1.00  0.00     0.032 C 
ENDBRANCH   7   8
ENDBRANCH   6   7
ENDBRANCH   5   6
ENDBRANCH   1   5
BRANCH   2  15
HETATM   15  C   UNL     1     -42.163 -46.991  10.025  1.00  0.00     0.249 C 
BRANCH  15  16
HETATM   16  N   UNL     1     -43.397 -47.412   9.415  1.00  0.00    -0.264 N 
HETATM   17  C   UNL     1     -43.652 -47.719   8.116  1.00  0.00     0.213 A 
HETATM   18  N   UNL     1     -44.928 -48.002   8.002  1.00  0.00    -0.281 N 
HETATM   19  N   UNL     1     -45.461 -47.859   9.262  1.00  0.00    -0.008 NA
ATOM     20  HN  UNL     1     -45.424 -48.273   7.152  1.00  0.00     0.184 HD
HETATM   21  N   UNL     1     -44.530 -47.491  10.132  1.00  0.00    -0.005 NA
ENDBRANCH  15  16
ENDBRANCH   2  15
TORSDOF 6
ENDMDL
MODEL 2
REMARK VINA RESULT:      -5.6      1.371      2.101
REMARK  6 active torsions:
REMARK  status: ('A' for Active; 'I' for Inactive)
REMARK    1  A    between atoms: C_7  and  O_8 
REMARK    2  A    between atoms: O_8  and  C_9 
REMARK    3  A    between atoms: C_9  and  C_10 
REMARK    4  A    between atoms: C_10  and  N_11 
REMARK       I    between atoms: N_11  and  C_12 
REMARK    5  A    between atoms: C_12  and  C_14 
REMARK    6  A    between atoms: C_14  and  N_15 
ROOT
HETATM    1  N   UNL     1     -41.968 -49.712  11.390  1.00  0.00    -0.358 N 
HETATM    2  C   UNL     1     -42.296 -48.376  11.345  1.00  0.00     0.237 C 
HETATM    3  O   UNL     1     -42.820 -47.786  12.287  1.00  0.00    -0.272 OA
HETATM    4  H   UNL     1     -41.759 -50.219  10.538  1.00  0.00     0.162 HD
ENDROOT
BRANCH   1   5
HETATM    5  C   UNL     1     -42.230 -50.514  12.572  1.00  0.00     0.148 C 
BRANCH   5   6
HETATM    6  C   UNL     1     -42.100 -52.012  12.303  1.00  0.00     0.187 C 
BRANCH   6   7
HETATM    7  O   UNL     1     -43.078 -52.720  13.079  1.00  0.00    -0.384 OA
BRANCH   7   8
HETATM    8  C   UNL     1     -44.154 -51.886  13.536  1.00  0.00     0.125 C 
HETATM    9  C   UNL     1     -44.338 -51.935  15.071  1.00  0.00     0.010 C 
HETATM   10  C   UNL     1     -44.407 -53.370  15.611  1.00  0.00     0.012 C 
HETATM   11  C   UNL     1     -45.560 -51.110  15.492  1.00  0.00     0.007 C 
HETATM   12  C   UNL     1     -46.836 -51.533  14.772  1.00  0.00     0.001 C 
HETATM   13  C   UNL     1     -46.658 -51.530  13.256  1.00  0.00     0.002 C 
HETATM   14  C   UNL     1     -45.435 -52.327  12.810  1.00  0.00     0.032 C 
ENDBRANCH   7   8
ENDBRANCH   6   7
ENDBRANCH   5   6
ENDBRANCH   1   5
BRANCH   2  15
HETATM   15  C   UNL     1     -41.947 -47.670  10.058  1.00  0.00     0.249 C 
BRANCH  15  16
HETATM   16  N   UNL     1     -43.003 -46.772   9.671  1.00  0.00    -0.264 N 
HETATM   17  C   UNL     1     -44.301 -47.048   9.381  1.00  0.00     0.213 A 
HETATM   18  N   UNL     1     -44.891 -45.931   9.026  1.00  0.00    -0.281 N 
HETATM   19  N   UNL     1     -43.925 -44.955   9.099  1.00  0.00    -0.008 NA
ATOM     20  HN  UNL     1     -45.867 -45.811   8.752  1.00  0.00     0.184 HD
HETATM   21  N   UNL     1     -42.764 -45.464   9.486  1.00  0.00    -0.005 NA
ENDBRANCH  15  16
ENDBRANCH   2  15
TORSDOF 6
ENDMDL
MODEL 3
REMARK VINA RESULT:      -5.6      4.604      5.554
REMARK  6 active torsions:
REMARK  status: ('A' for Active; 'I' for Inactive)
REMARK    1  A    between atoms: C_7  and  O_8 
REMARK    2  A    between atoms: O_8  and  C_9 
REMARK    3  A    between atoms: C_9  and  C_10 
REMARK    4  A    between atoms: C_10  and  N_11 
REMARK       I    between atoms: N_11  and  C_12 
REMARK    5  A    between atoms: C_12  and  C_14 
REMARK    6  A    between atoms: C_14  and  N_15 
ROOT
HETATM    1  N   UNL     1     -40.895 -52.988  13.717  1.00  0.00    -0.358 N 
HETATM    2  C   UNL     1     -39.527 -53.092  13.831  1.00  0.00     0.237 C 
HETATM    3  O   UNL     1     -38.926 -54.154  13.695  1.00  0.00    -0.272 OA
HETATM    4  H   UNL     1     -41.380 -52.167  14.058  1.00  0.00     0.162 HD
ENDROOT
BRANCH   1   5
HETATM    5  C   UNL     1     -41.718 -54.149  13.425  1.00  0.00     0.148 C 
BRANCH   5   6
HETATM    6  C   UNL     1     -42.545 -54.598  14.630  1.00  0.00     0.187 C 
BRANCH   6   7
HETATM    7  O   UNL     1     -43.937 -54.583  14.282  1.00  0.00    -0.384 OA
BRANCH   7   8
HETATM    8  C   UNL     1     -44.485 -53.259  14.185  1.00  0.00     0.125 C 
HETATM    9  C   UNL     1     -44.993 -52.723  15.544  1.00  0.00     0.010 C 
HETATM   10  C   UNL     1     -45.918 -53.715  16.261  1.00  0.00     0.012 C 
HETATM   11  C   UNL     1     -45.658 -51.352  15.365  1.00  0.00     0.007 C 
HETATM   12  C   UNL     1     -46.777 -51.369  14.327  1.00  0.00     0.001 C 
HETATM   13  C   UNL     1     -46.301 -51.936  12.993  1.00  0.00     0.002 C 
HETATM   14  C   UNL     1     -45.615 -53.291  13.144  1.00  0.00     0.032 C 
ENDBRANCH   7   8
ENDBRANCH   6   7
ENDBRANCH   5   6
ENDBRANCH   1   5
BRANCH   2  15
HETATM   15  C   UNL     1     -38.806 -51.798  14.117  1.00  0.00     0.249 C 
BRANCH  15  16
HETATM   16  N   UNL     1     -38.328 -51.204  12.896  1.00  0.00    -0.264 N 
HETATM   17  C   UNL     1     -38.954 -50.329  12.066  1.00  0.00     0.213 A 
HETATM   18  N   UNL     1     -38.164 -50.095  11.043  1.00  0.00    -0.281 N 
HETATM   19  N   UNL     1     -37.035 -50.850  11.259  1.00  0.00    -0.008 NA
ATOM     20  HN  UNL     1     -38.350 -49.479  10.252  1.00  0.00     0.184 HD
HETATM   21  N   UNL     1     -37.131 -51.538  12.388  1.00  0.00    -0.005 NA
ENDBRANCH  15  16
ENDBRANCH   2  15
TORSDOF 6
ENDMDL
MODEL 4
REMARK VINA RESULT:      -5.6      4.393      5.166
REMARK  6 active torsions:
REMARK  status: ('A' for Active; 'I' for Inactive)
REMARK    1  A    between atoms: C_7  and  O_8 
REMARK    2  A    between atoms: O_8  and  C_9 
REMARK    3  A    between atoms: C_9  and  C_10 
REMARK    4  A    between atoms: C_10  and  N_11 
REMARK       I    between atoms: N_11  and  C_12 
REMARK    5  A    between atoms: C_12  and  C_14 
REMARK    6  A    between atoms: C_14  and  N_15 
ROOT
HETATM    1  N   UNL     1     -40.887 -53.196  14.498  1.00  0.00    -0.358 N 
HETATM    2  C   UNL     1     -40.443 -52.527  13.381  1.00  0.00     0.237 C 
HETATM    3  O   UNL     1     -40.550 -52.982  12.245  1.00  0.00    -0.272 OA
HETATM    4  H   UNL     1     -40.582 -52.914  15.423  1.00  0.00     0.162 HD
ENDROOT
BRANCH   1   5
HETATM    5  C   UNL     1     -41.516 -54.501  14.397  1.00  0.00     0.148 C 
BRANCH   5   6
HETATM    6  C   UNL     1     -43.028 -54.440  14.605  1.00  0.00     0.187 C 
BRANCH   6   7
HETATM    7  O   UNL     1     -43.665 -54.100  13.365  1.00  0.00    -0.384 OA
BRANCH   7   8
HETATM    8  C   UNL     1     -44.968 -53.521  13.534  1.00  0.00     0.125 C 
HETATM    9  C   UNL     1     -45.076 -52.104  12.924  1.00  0.00     0.010 C 
HETATM   10  C   UNL     1     -43.936 -51.180  13.372  1.00  0.00     0.012 C 
HETATM   11  C   UNL     1     -46.452 -51.495  13.221  1.00  0.00     0.007 C 
HETATM   12  C   UNL     1     -46.782 -51.479  14.710  1.00  0.00     0.001 C 
HETATM   13  C   UNL     1     -46.639 -52.863  15.336  1.00  0.00     0.002 C 
HETATM   14  C   UNL     1     -45.285 -53.502  15.038  1.00  0.00     0.032 C 
ENDBRANCH   7   8
ENDBRANCH   6   7
ENDBRANCH   5   6
ENDBRANCH   1   5
BRANCH   2  15
HETATM   15  C   UNL     1     -39.828 -51.174  13.643  1.00  0.00     0.249 C 
BRANCH  15  16
HETATM   16  N   UNL     1     -38.847 -50.861  12.637  1.00  0.00    -0.264 N 
HETATM   17  C   UNL     1     -38.921 -49.969  11.615  1.00  0.00     0.213 A 
HETATM   18  N   UNL     1     -37.814 -50.053  10.914  1.00  0.00    -0.281 N 
HETATM   19  N   UNL     1     -37.053 -51.022  11.525  1.00  0.00    -0.008 NA
ATOM     20  HN  UNL     1     -37.569 -49.510  10.085  1.00  0.00     0.184 HD
HETATM   21  N   UNL     1     -37.683 -51.527  12.577  1.00  0.00    -0.005 NA
ENDBRANCH  15  16
ENDBRANCH   2  15
TORSDOF 6
ENDMDL
MODEL 5
REMARK VINA RESULT:      -5.4      1.876      2.451
REMARK  6 active torsions:
REMARK  status: ('A' for Active; 'I' for Inactive)
REMARK    1  A    between atoms: C_7  and  O_8 
REMARK    2  A    between atoms: O_8  and  C_9 
REMARK    3  A    between atoms: C_9  and  C_10 
REMARK    4  A    between atoms: C_10  and  N_11 
REMARK       I    between atoms: N_11  and  C_12 
REMARK    5  A    between atoms: C_12  and  C_14 
REMARK    6  A    between atoms: C_14  and  N_15 
ROOT
HETATM    1  N   UNL     1     -42.064 -50.092  11.785  1.00  0.00    -0.358 N 
HETATM    2  C   UNL     1     -41.865 -48.780  11.420  1.00  0.00     0.237 C 
HETATM    3  O   UNL     1     -40.754 -48.318  11.174  1.00  0.00    -0.272 OA
HETATM    4  H   UNL     1     -42.940 -50.383  12.203  1.00  0.00     0.162 HD
ENDROOT
BRANCH   1   5
HETATM    5  C   UNL     1     -40.953 -51.020  11.901  1.00  0.00     0.148 C 
BRANCH   5   6
HETATM    6  C   UNL     1     -41.385 -52.389  12.423  1.00  0.00     0.187 C 
BRANCH   6   7
HETATM    7  O   UNL     1     -42.661 -52.730  11.862  1.00  0.00    -0.384 OA
BRANCH   7   8
HETATM    8  C   UNL     1     -43.381 -53.703  12.633  1.00  0.00     0.125 C 
HETATM    9  C   UNL     1     -44.864 -53.318  12.847  1.00  0.00     0.010 C 
HETATM   10  C   UNL     1     -45.031 -51.883  13.366  1.00  0.00     0.012 C 
HETATM   11  C   UNL     1     -45.557 -54.337  13.760  1.00  0.00     0.007 C 
HETATM   12  C   UNL     1     -44.839 -54.521  15.093  1.00  0.00     0.001 C 
HETATM   13  C   UNL     1     -43.364 -54.861  14.899  1.00  0.00     0.002 C 
HETATM   14  C   UNL     1     -42.654 -53.873  13.976  1.00  0.00     0.032 C 
ENDBRANCH   7   8
ENDBRANCH   6   7
ENDBRANCH   5   6
ENDBRANCH   1   5
BRANCH   2  15
HETATM   15  C   UNL     1     -43.116 -47.942  11.324  1.00  0.00     0.249 C 
BRANCH  15  16
HETATM   16  N   UNL     1     -43.151 -47.226  10.076  1.00  0.00    -0.264 N 
HETATM   17  C   UNL     1     -43.227 -47.712   8.809  1.00  0.00     0.213 A 
HETATM   18  N   UNL     1     -43.177 -46.699   7.976  1.00  0.00    -0.281 N 
HETATM   19  N   UNL     1     -43.065 -45.573   8.756  1.00  0.00    -0.008 NA
ATOM     20  HN  UNL     1     -43.215 -46.740   6.957  1.00  0.00     0.184 HD
HETATM   21  N   UNL     1     -43.040 -45.888  10.045  1.00  0.00    -0.005 NA
ENDBRANCH  15  16
ENDBRANCH   2  15
TORSDOF 6
ENDMDL
MODEL 6
REMARK VINA RESULT:      -5.3      1.828      2.410
REMARK  6 active torsions:
REMARK  status: ('A' for Active; 'I' for Inactive)
REMARK    1  A    between atoms: C_7  and  O_8 
REMARK    2  A    between atoms: O_8  and  C_9 
REMARK    3  A    between atoms: C_9  and  C_10 
REMARK    4  A    between atoms: C_10  and  N_11 
REMARK       I    between atoms: N_11  and  C_12 
REMARK    5  A    between atoms: C_12  and  C_14 
REMARK    6  A    between atoms: C_14  and  N_15 
ROOT
HETATM    1  N   UNL     1     -41.786 -50.708  11.933  1.00  0.00    -0.358 N 
HETATM    2  C   UNL     1     -40.726 -49.834  11.849  1.00  0.00     0.237 C 
HETATM    3  O   UNL     1     -39.586 -50.195  11.566  1.00  0.00    -0.272 OA
HETATM    4  H   UNL     1     -42.647 -50.430  12.389  1.00  0.00     0.162 HD
ENDROOT
BRANCH   1   5
HETATM    5  C   UNL     1     -41.614 -52.129  11.689  1.00  0.00     0.148 C 
BRANCH   5   6
HETATM    6  C   UNL     1     -42.395 -52.992  12.679  1.00  0.00     0.187 C 
BRANCH   6   7
HETATM    7  O   UNL     1     -43.801 -52.847  12.429  1.00  0.00    -0.384 OA
BRANCH   7   8
HETATM    8  C   UNL     1     -44.551 -52.472  13.594  1.00  0.00     0.125 C 
HETATM    9  C   UNL     1     -44.843 -53.670  14.528  1.00  0.00     0.010 C 
HETATM   10  C   UNL     1     -45.440 -54.869  13.779  1.00  0.00     0.012 C 
HETATM   11  C   UNL     1     -45.730 -53.233  15.700  1.00  0.00     0.007 C 
HETATM   12  C   UNL     1     -47.023 -52.562  15.245  1.00  0.00     0.001 C 
HETATM   13  C   UNL     1     -46.753 -51.404  14.289  1.00  0.00     0.002 C 
HETATM   14  C   UNL     1     -45.853 -51.806  13.123  1.00  0.00     0.032 C 
ENDBRANCH   7   8
ENDBRANCH   6   7
ENDBRANCH   5   6
ENDBRANCH   1   5
BRANCH   2  15
HETATM   15  C   UNL     1     -41.062 -48.387  12.111  1.00  0.00     0.249 C 
BRANCH  15  16
HETATM   16  N   UNL     1     -42.126 -47.950  11.245  1.00  0.00    -0.264 N 
HETATM   17  C   UNL     1     -43.311 -47.369  11.567  1.00  0.00     0.213 A 
HETATM   18  N   UNL     1     -43.995 -47.188  10.461  1.00  0.00    -0.281 N 
HETATM   19  N   UNL     1     -43.206 -47.674   9.445  1.00  0.00    -0.008 NA
ATOM     20  HN  UNL     1     -44.922 -46.771  10.374  1.00  0.00     0.184 HD
HETATM   21  N   UNL     1     -42.062 -48.150   9.919  1.00  0.00    -0.005 NA
ENDBRANCH  15  16
ENDBRANCH   2  15
TORSDOF 6
ENDMDL
MODEL 7
REMARK VINA RESULT:      -5.2      2.107      2.831
REMARK  6 active torsions:
REMARK  status: ('A' for Active; 'I' for Inactive)
REMARK    1  A    between atoms: C_7  and  O_8 
REMARK    2  A    between atoms: O_8  and  C_9 
REMARK    3  A    between atoms: C_9  and  C_10 
REMARK    4  A    between atoms: C_10  and  N_11 
REMARK       I    between atoms: N_11  and  C_12 
REMARK    5  A    between atoms: C_12  and  C_14 
REMARK    6  A    between atoms: C_14  and  N_15 
ROOT
HETATM    1  N   UNL     1     -42.305 -49.104  11.217  1.00  0.00    -0.358 N 
HETATM    2  C   UNL     1     -42.749 -47.802  11.269  1.00  0.00     0.237 C 
HETATM    3  O   UNL     1     -43.152 -47.276  12.304  1.00  0.00    -0.272 OA
HETATM    4  H   UNL     1     -42.203 -49.578  10.327  1.00  0.00     0.162 HD
ENDROOT
BRANCH   1   5
HETATM    5  C   UNL     1     -42.289 -49.944  12.402  1.00  0.00     0.148 C 
BRANCH   5   6
HETATM    6  C   UNL     1     -41.580 -51.276  12.165  1.00  0.00     0.187 C 
BRANCH   6   7
HETATM    7  O   UNL     1     -41.545 -52.019  13.392  1.00  0.00    -0.384 OA
BRANCH   7   8
HETATM    8  C   UNL     1     -42.817 -52.576  13.757  1.00  0.00     0.125 C 
HETATM    9  C   UNL     1     -42.743 -53.453  15.029  1.00  0.00     0.010 C 
HETATM   10  C   UNL     1     -41.618 -54.496  14.961  1.00  0.00     0.012 C 
HETATM   11  C   UNL     1     -44.103 -54.102  15.314  1.00  0.00     0.007 C 
HETATM   12  C   UNL     1     -44.638 -54.898  14.128  1.00  0.00     0.001 C 
HETATM   13  C   UNL     1     -44.678 -54.058  12.855  1.00  0.00     0.002 C 
HETATM   14  C   UNL     1     -43.342 -53.382  12.558  1.00  0.00     0.032 C 
ENDBRANCH   7   8
ENDBRANCH   6   7
ENDBRANCH   5   6
ENDBRANCH   1   5
BRANCH   2  15
HETATM   15  C   UNL     1     -42.689 -47.049   9.963  1.00  0.00     0.249 C 
BRANCH  15  16
HETATM   16  N   UNL     1     -43.697 -47.530   9.055  1.00  0.00    -0.264 N 
HETATM   17  C   UNL     1     -45.036 -47.661   9.251  1.00  0.00     0.213 A 
HETATM   18  N   UNL     1     -45.560 -48.190   8.170  1.00  0.00    -0.281 N 
HETATM   19  N   UNL     1     -44.513 -48.388   7.300  1.00  0.00    -0.008 NA
ATOM     20  HN  UNL     1     -46.543 -48.410   8.008  1.00  0.00     0.184 HD
HETATM   21  N   UNL     1     -43.367 -47.992   7.839  1.00  0.00    -0.005 NA
ENDBRANCH  15  16
ENDBRANCH   2  15
TORSDOF 6
ENDMDL
MODEL 8
REMARK VINA RESULT:      -5.1      4.080      7.032
REMARK  6 active torsions:
REMARK  status: ('A' for Active; 'I' for Inactive)
REMARK    1  A    between atoms: C_7  and  O_8 
REMARK    2  A    between atoms: O_8  and  C_9 
REMARK    3  A    between atoms: C_9  and  C_10 
REMARK    4  A    between atoms: C_10  and  N_11 
REMARK       I    between atoms: N_11  and  C_12 
REMARK    5  A    between atoms: C_12  and  C_14 
REMARK    6  A    between atoms: C_14  and  N_15 
ROOT
HETATM    1  N   UNL     1     -42.843 -53.606  14.128  1.00  0.00    -0.358 N 
HETATM    2  C   UNL     1     -43.668 -54.510  14.759  1.00  0.00     0.237 C 
HETATM    3  O   UNL     1     -43.302 -55.642  15.067  1.00  0.00    -0.272 OA
HETATM    4  H   UNL     1     -43.229 -52.782  13.682  1.00  0.00     0.162 HD
ENDROOT
BRANCH   1   5
HETATM    5  C   UNL     1     -41.473 -53.944  13.785  1.00  0.00     0.148 C 
BRANCH   5   6
HETATM    6  C   UNL     1     -40.968 -53.177  12.564  1.00  0.00     0.187 C 
BRANCH   6   7
HETATM    7  O   UNL     1     -39.746 -52.504  12.899  1.00  0.00    -0.384 OA
BRANCH   7   8
HETATM    8  C   UNL     1     -39.868 -51.074  12.906  1.00  0.00     0.125 C 
HETATM    9  C   UNL     1     -38.821 -50.381  12.002  1.00  0.00     0.010 C 
HETATM   10  C   UNL     1     -37.392 -50.872  12.271  1.00  0.00     0.012 C 
HETATM   11  C   UNL     1     -38.930 -48.856  12.126  1.00  0.00     0.007 C 
HETATM   12  C   UNL     1     -38.819 -48.370  13.568  1.00  0.00     0.001 C 
HETATM   13  C   UNL     1     -39.818 -49.076  14.480  1.00  0.00     0.002 C 
HETATM   14  C   UNL     1     -39.746 -50.596  14.361  1.00  0.00     0.032 C 
ENDBRANCH   7   8
ENDBRANCH   6   7
ENDBRANCH   5   6
ENDBRANCH   1   5
BRANCH   2  15
HETATM   15  C   UNL     1     -45.057 -54.008  15.066  1.00  0.00     0.249 C 
BRANCH  15  16
HETATM   16  N   UNL     1     -45.561 -53.214  13.976  1.00  0.00    -0.264 N 
HETATM   17  C   UNL     1     -46.234 -52.034  14.014  1.00  0.00     0.213 A 
HETATM   18  N   UNL     1     -46.545 -51.698  12.784  1.00  0.00    -0.281 N 
HETATM   19  N   UNL     1     -46.051 -52.700  11.983  1.00  0.00    -0.008 NA
ATOM     20  HN  UNL     1     -47.050 -50.863  12.485  1.00  0.00     0.184 HD
HETATM   21  N   UNL     1     -45.453 -53.637  12.707  1.00  0.00    -0.005 NA
ENDBRANCH  15  16
ENDBRANCH   2  15
TORSDOF 6
ENDMDL
MODEL 9
REMARK VINA RESULT:      -5.1      4.178      5.192
REMARK  6 active torsions:
REMARK  status: ('A' for Active; 'I' for Inactive)
REMARK    1  A    between atoms: C_7  and  O_8 
REMARK    2  A    between atoms: O_8  and  C_9 
REMARK    3  A    between atoms: C_9  and  C_10 
REMARK    4  A    between atoms: C_10  and  N_11 
REMARK       I    between atoms: N_11  and  C_12 
REMARK    5  A    between atoms: C_12  and  C_14 
REMARK    6  A    between atoms: C_14  and  N_15 
ROOT
HETATM    1  N   UNL     1     -38.932 -51.354  13.342  1.00  0.00    -0.358 N 
HETATM    2  C   UNL     1     -37.930 -50.989  12.472  1.00  0.00     0.237 C 
HETATM    3  O   UNL     1     -36.827 -51.531  12.460  1.00  0.00    -0.272 OA
HETATM    4  H   UNL     1     -39.731 -50.749  13.490  1.00  0.00     0.162 HD
ENDROOT
BRANCH   1   5
HETATM    5  C   UNL     1     -38.738 -52.418  14.312  1.00  0.00     0.148 C 
BRANCH   5   6
HETATM    6  C   UNL     1     -39.601 -53.644  14.016  1.00  0.00     0.187 C 
BRANCH   6   7
HETATM    7  O   UNL     1     -40.349 -53.418  12.812  1.00  0.00    -0.384 OA
BRANCH   7   8
HETATM    8  C   UNL     1     -41.690 -53.929  12.870  1.00  0.00     0.125 C 
HETATM    9  C   UNL     1     -42.737 -52.920  12.345  1.00  0.00     0.010 C 
HETATM   10  C   UNL     1     -42.586 -51.530  12.979  1.00  0.00     0.012 C 
HETATM   11  C   UNL     1     -44.155 -53.476  12.525  1.00  0.00     0.007 C 
HETATM   12  C   UNL     1     -44.455 -53.879  13.965  1.00  0.00     0.001 C 
HETATM   13  C   UNL     1     -43.406 -54.843  14.512  1.00  0.00     0.002 C 
HETATM   14  C   UNL     1     -41.982 -54.323  14.327  1.00  0.00     0.032 C 
ENDBRANCH   7   8
ENDBRANCH   6   7
ENDBRANCH   5   6
ENDBRANCH   1   5
BRANCH   2  15
HETATM   15  C   UNL     1     -38.284 -49.880  11.512  1.00  0.00     0.249 C 
BRANCH  15  16
HETATM   16  N   UNL     1     -38.757 -48.724  12.226  1.00  0.00    -0.264 N 
HETATM   17  C   UNL     1     -39.682 -47.802  11.850  1.00  0.00     0.213 A 
HETATM   18  N   UNL     1     -39.761 -46.890  12.791  1.00  0.00    -0.281 N 
HETATM   19  N   UNL     1     -38.860 -47.267  13.759  1.00  0.00    -0.008 NA
ATOM     20  HN  UNL     1     -40.367 -46.070  12.802  1.00  0.00     0.184 HD
HETATM   21  N   UNL     1     -38.236 -48.386  13.416  1.00  0.00    -0.005 NA
ENDBRANCH  15  16
ENDBRANCH   2  15
TORSDOF 6
ENDMDL
