MODEL 1
REMARK VINA RESULT:      -4.5      0.000      0.000
REMARK  1 active torsions:
REMARK  status: ('A' for Active; 'I' for Inactive)
REMARK    1  A    between atoms: C_5  and  C_8 
ROOT
HETATM    1  C   UNL     1     -43.506 -47.914   7.592  1.00  0.00     0.068 C 
HETATM    2  C   UNL     1     -43.055 -47.561   8.962  1.00  0.00     0.012 A 
HETATM    3  C   UNL     1     -43.372 -46.421   9.671  1.00  0.00     0.076 A 
HETATM    4  S   UNL     1     -42.618 -46.444  11.206  1.00  0.00    -0.084 SA
HETATM    5  C   UNL     1     -41.893 -47.967  10.823  1.00  0.00     0.082 A 
HETATM    6  N   UNL     1     -42.208 -48.432   9.626  1.00  0.00    -0.355 N 
ATOM      7  HN  UNL     1     -41.872 -49.315   9.243  1.00  0.00     0.166 HD
ENDROOT
BRANCH   5   8
HETATM    8  C   UNL     1     -40.870 -48.575  11.758  1.00  0.00     0.206 C 
HETATM    9  C   UNL     1     -40.113 -49.794  11.174  1.00  0.00     0.308 C 
HETATM   10  N   UNL     1     -40.839 -51.077  11.252  1.00  0.00     0.088 N 
HETATM   11  C   UNL     1     -41.301 -51.280  12.628  1.00  0.00     0.295 C 
HETATM   12  H   UNL     1     -40.223 -51.837  10.970  1.00  0.00     0.316 HD
HETATM   13  C   UNL     1     -42.150 -50.096  13.108  1.00  0.00     0.198 C 
HETATM   14  O   UNL     1     -41.435 -48.856  13.058  1.00  0.00    -0.376 OA
ENDBRANCH   5   8
TORSDOF 1
ENDMDL
MODEL 2
REMARK VINA RESULT:      -4.2      1.747      1.874
REMARK  1 active torsions:
REMARK  status: ('A' for Active; 'I' for Inactive)
REMARK    1  A    between atoms: C_5  and  C_8 
ROOT
HETATM    1  C   UNL     1     -46.368 -48.145   9.122  1.00  0.00     0.068 C 
HETATM    2  C   UNL     1     -45.087 -47.479   9.472  1.00  0.00     0.012 A 
HETATM    3  C   UNL     1     -44.486 -46.435   8.799  1.00  0.00     0.076 A 
HETATM    4  S   UNL     1     -43.019 -46.000   9.563  1.00  0.00    -0.084 SA
HETATM    5  C   UNL     1     -43.264 -47.246  10.737  1.00  0.00     0.082 A 
HETATM    6  N   UNL     1     -44.380 -47.935  10.571  1.00  0.00    -0.355 N 
ATOM      7  HN  UNL     1     -44.680 -48.702  11.173  1.00  0.00     0.166 HD
ENDROOT
BRANCH   5   8
HETATM    8  C   UNL     1     -42.175 -47.570  11.736  1.00  0.00     0.206 C 
HETATM    9  C   UNL     1     -40.829 -48.000  11.100  1.00  0.00     0.308 C 
HETATM   10  N   UNL     1     -40.760 -49.412  10.677  1.00  0.00     0.088 N 
HETATM   11  C   UNL     1     -41.177 -50.264  11.793  1.00  0.00     0.295 C 
HETATM   12  H   UNL     1     -39.809 -49.639  10.394  1.00  0.00     0.316 HD
HETATM   13  C   UNL     1     -42.571 -49.871  12.300  1.00  0.00     0.198 C 
HETATM   14  O   UNL     1     -42.630 -48.509  12.736  1.00  0.00    -0.376 OA
ENDBRANCH   5   8
TORSDOF 1
ENDMDL
MODEL 3
REMARK VINA RESULT:      -4.2      5.250      6.632
REMARK  1 active torsions:
REMARK  status: ('A' for Active; 'I' for Inactive)
REMARK    1  A    between atoms: C_5  and  C_8 
ROOT
HETATM    1  C   UNL     1     -39.892 -54.183  13.628  1.00  0.00     0.068 C 
HETATM    2  C   UNL     1     -41.060 -53.293  13.408  1.00  0.00     0.012 A 
HETATM    3  C   UNL     1     -41.124 -51.936  13.648  1.00  0.00     0.076 A 
HETATM    4  S   UNL     1     -42.675 -51.333  13.251  1.00  0.00    -0.084 SA
HETATM    5  C   UNL     1     -43.176 -52.927  12.801  1.00  0.00     0.082 A 
HETATM    6  N   UNL     1     -42.235 -53.847  12.930  1.00  0.00    -0.355 N 
ATOM      7  HN  UNL     1     -42.360 -54.835  12.708  1.00  0.00     0.166 HD
ENDROOT
BRANCH   5   8
HETATM    8  C   UNL     1     -44.625 -53.196  12.458  1.00  0.00     0.206 C 
HETATM    9  C   UNL     1     -45.635 -52.259  13.166  1.00  0.00     0.308 C 
HETATM   10  N   UNL     1     -45.970 -52.634  14.553  1.00  0.00     0.088 N 
HETATM   11  C   UNL     1     -46.361 -54.046  14.584  1.00  0.00     0.295 C 
HETATM   12  H   UNL     1     -46.730 -52.049  14.893  1.00  0.00     0.316 HD
HETATM   13  C   UNL     1     -45.267 -54.938  13.983  1.00  0.00     0.198 C 
HETATM   14  O   UNL     1     -44.963 -54.591  12.627  1.00  0.00    -0.376 OA
ENDBRANCH   5   8
TORSDOF 1
ENDMDL
MODEL 4
REMARK VINA RESULT:      -4.1      5.344      6.230
REMARK  1 active torsions:
REMARK  status: ('A' for Active; 'I' for Inactive)
REMARK    1  A    between atoms: C_5  and  C_8 
ROOT
HETATM    1  C   UNL     1     -45.617 -52.856  12.669  1.00  0.00     0.068 C 
HETATM    2  C   UNL     1     -44.422 -53.490  13.284  1.00  0.00     0.012 A 
HETATM    3  C   UNL     1     -44.347 -54.088  14.524  1.00  0.00     0.076 A 
HETATM    4  S   UNL     1     -42.766 -54.674  14.809  1.00  0.00    -0.084 SA
HETATM    5  C   UNL     1     -42.269 -54.074  13.265  1.00  0.00     0.082 A 
HETATM    6  N   UNL     1     -43.231 -53.483  12.577  1.00  0.00    -0.355 N 
ATOM      7  HN  UNL     1     -43.112 -53.077  11.650  1.00  0.00     0.166 HD
ENDROOT
BRANCH   5   8
HETATM    8  C   UNL     1     -40.807 -54.110  12.873  1.00  0.00     0.206 C 
HETATM    9  C   UNL     1     -39.833 -54.338  14.056  1.00  0.00     0.308 C 
HETATM   10  N   UNL     1     -39.516 -53.133  14.846  1.00  0.00     0.088 N 
HETATM   11  C   UNL     1     -39.092 -52.065  13.937  1.00  0.00     0.295 C 
HETATM   12  H   UNL     1     -38.776 -53.345  15.513  1.00  0.00     0.316 HD
HETATM   13  C   UNL     1     -40.153 -51.799  12.861  1.00  0.00     0.198 C 
HETATM   14  O   UNL     1     -40.440 -52.962  12.077  1.00  0.00    -0.376 OA
ENDBRANCH   5   8
TORSDOF 1
ENDMDL
MODEL 5
REMARK VINA RESULT:      -4.0      3.299      5.368
REMARK  1 active torsions:
REMARK  status: ('A' for Active; 'I' for Inactive)
REMARK    1  A    between atoms: C_5  and  C_8 
ROOT
HETATM    1  C   UNL     1     -37.350 -50.444  11.302  1.00  0.00     0.068 C 
HETATM    2  C   UNL     1     -38.034 -49.442  12.159  1.00  0.00     0.012 A 
HETATM    3  C   UNL     1     -37.885 -49.277  13.521  1.00  0.00     0.076 A 
HETATM    4  S   UNL     1     -38.877 -48.000  14.079  1.00  0.00    -0.084 SA
HETATM    5  C   UNL     1     -39.464 -47.757  12.470  1.00  0.00     0.082 A 
HETATM    6  N   UNL     1     -38.939 -48.574  11.572  1.00  0.00    -0.355 N 
ATOM      7  HN  UNL     1     -39.171 -48.566  10.579  1.00  0.00     0.166 HD
ENDROOT
BRANCH   5   8
HETATM    8  C   UNL     1     -40.599 -46.789  12.216  1.00  0.00     0.206 C 
HETATM    9  C   UNL     1     -40.975 -46.620  10.724  1.00  0.00     0.308 C 
HETATM   10  N   UNL     1     -40.113 -45.697   9.961  1.00  0.00     0.088 N 
HETATM   11  C   UNL     1     -40.017 -44.427  10.687  1.00  0.00     0.295 C 
HETATM   12  H   UNL     1     -40.507 -45.546   9.034  1.00  0.00     0.316 HD
HETATM   13  C   UNL     1     -39.519 -44.645  12.122  1.00  0.00     0.198 C 
HETATM   14  O   UNL     1     -40.372 -45.519  12.868  1.00  0.00    -0.376 OA
ENDBRANCH   5   8
TORSDOF 1
ENDMDL
MODEL 6
REMARK VINA RESULT:      -4.0      1.880      2.511
REMARK  1 active torsions:
REMARK  status: ('A' for Active; 'I' for Inactive)
REMARK    1  A    between atoms: C_5  and  C_8 
ROOT
HETATM    1  C   UNL     1     -43.058 -47.633   9.734  1.00  0.00     0.068 C 
HETATM    2  C   UNL     1     -42.022 -48.147  10.666  1.00  0.00     0.012 A 
HETATM    3  C   UNL     1     -40.819 -47.549  10.978  1.00  0.00     0.076 A 
HETATM    4  S   UNL     1     -39.948 -48.509  12.094  1.00  0.00    -0.084 SA
HETATM    5  C   UNL     1     -41.222 -49.679  12.077  1.00  0.00     0.082 A 
HETATM    6  N   UNL     1     -42.239 -49.362  11.294  1.00  0.00    -0.355 N 
ATOM      7  HN  UNL     1     -43.072 -49.936  11.169  1.00  0.00     0.166 HD
ENDROOT
BRANCH   5   8
HETATM    8  C   UNL     1     -41.045 -51.001  12.792  1.00  0.00     0.206 C 
HETATM    9  C   UNL     1     -41.231 -52.246  11.889  1.00  0.00     0.308 C 
HETATM   10  N   UNL     1     -42.633 -52.644  11.654  1.00  0.00     0.088 N 
HETATM   11  C   UNL     1     -43.321 -52.748  12.943  1.00  0.00     0.295 C 
HETATM   12  H   UNL     1     -42.659 -53.537  11.166  1.00  0.00     0.316 HD
HETATM   13  C   UNL     1     -43.208 -51.441  13.739  1.00  0.00     0.198 C 
HETATM   14  O   UNL     1     -41.848 -51.071  13.991  1.00  0.00    -0.376 OA
ENDBRANCH   5   8
TORSDOF 1
ENDMDL
MODEL 7
REMARK VINA RESULT:      -4.0      4.795      5.537
REMARK  1 active torsions:
REMARK  status: ('A' for Active; 'I' for Inactive)
REMARK    1  A    between atoms: C_5  and  C_8 
ROOT
HETATM    1  C   UNL     1     -46.756 -51.417  14.736  1.00  0.00     0.068 C 
HETATM    2  C   UNL     1     -45.645 -52.034  13.967  1.00  0.00     0.012 A 
HETATM    3  C   UNL     1     -45.684 -53.217  13.259  1.00  0.00     0.076 A 
HETATM    4  S   UNL     1     -44.166 -53.531  12.537  1.00  0.00    -0.084 SA
HETATM    5  C   UNL     1     -43.539 -52.076  13.232  1.00  0.00     0.082 A 
HETATM    6  N   UNL     1     -44.417 -51.395  13.949  1.00  0.00    -0.355 N 
ATOM      7  HN  UNL     1     -44.215 -50.516  14.425  1.00  0.00     0.166 HD
ENDROOT
BRANCH   5   8
HETATM    8  C   UNL     1     -42.062 -51.761  13.124  1.00  0.00     0.206 C 
HETATM    9  C   UNL     1     -41.339 -52.479  11.958  1.00  0.00     0.308 C 
HETATM   10  N   UNL     1     -40.946 -53.875  12.230  1.00  0.00     0.088 N 
HETATM   11  C   UNL     1     -40.208 -53.924  13.495  1.00  0.00     0.295 C 
HETATM   12  H   UNL     1     -40.367 -54.223  11.468  1.00  0.00     0.316 HD
HETATM   13  C   UNL     1     -41.027 -53.312  14.639  1.00  0.00     0.198 C 
HETATM   14  O   UNL     1     -41.383 -51.948  14.385  1.00  0.00    -0.376 OA
ENDBRANCH   5   8
TORSDOF 1
ENDMDL
MODEL 8
REMARK VINA RESULT:      -4.0      4.731      6.360
REMARK  1 active torsions:
REMARK  status: ('A' for Active; 'I' for Inactive)
REMARK    1  A    between atoms: C_5  and  C_8 
ROOT
HETATM    1  C   UNL     1     -40.865 -50.942  11.823  1.00  0.00     0.068 C 
HETATM    2  C   UNL     1     -41.636 -52.058  12.429  1.00  0.00     0.012 A 
HETATM    3  C   UNL     1     -41.128 -53.129  13.134  1.00  0.00     0.076 A 
HETATM    4  S   UNL     1     -42.392 -54.166  13.636  1.00  0.00    -0.084 SA
HETATM    5  C   UNL     1     -43.543 -53.133  12.862  1.00  0.00     0.082 A 
HETATM    6  N   UNL     1     -43.012 -52.073  12.276  1.00  0.00    -0.355 N 
ATOM      7  HN  UNL     1     -43.545 -51.361  11.777  1.00  0.00     0.166 HD
ENDROOT
BRANCH   5   8
HETATM    8  C   UNL     1     -44.993 -53.555  12.763  1.00  0.00     0.206 C 
HETATM    9  C   UNL     1     -45.983 -52.390  12.514  1.00  0.00     0.308 C 
HETATM   10  N   UNL     1     -46.363 -51.625  13.718  1.00  0.00     0.088 N 
HETATM   11  C   UNL     1     -46.808 -52.560  14.755  1.00  0.00     0.295 C 
HETATM   12  H   UNL     1     -47.109 -50.971  13.487  1.00  0.00     0.316 HD
HETATM   13  C   UNL     1     -45.735 -53.616  15.047  1.00  0.00     0.198 C 
HETATM   14  O   UNL     1     -45.387 -54.376  13.885  1.00  0.00    -0.376 OA
ENDBRANCH   5   8
TORSDOF 1
ENDMDL
MODEL 9
REMARK VINA RESULT:      -3.9      2.163      4.526
REMARK  1 active torsions:
REMARK  status: ('A' for Active; 'I' for Inactive)
REMARK    1  A    between atoms: C_5  and  C_8 
ROOT
HETATM    1  C   UNL     1     -37.711 -49.783  11.322  1.00  0.00     0.068 C 
HETATM    2  C   UNL     1     -39.149 -49.907  11.674  1.00  0.00     0.012 A 
HETATM    3  C   UNL     1     -39.742 -50.929  12.386  1.00  0.00     0.076 A 
HETATM    4  S   UNL     1     -41.423 -50.650  12.541  1.00  0.00    -0.084 SA
HETATM    5  C   UNL     1     -41.262 -49.191  11.627  1.00  0.00     0.082 A 
HETATM    6  N   UNL     1     -40.025 -48.926  11.242  1.00  0.00    -0.355 N 
ATOM      7  HN  UNL     1     -39.752 -48.106  10.700  1.00  0.00     0.166 HD
ENDROOT
BRANCH   5   8
HETATM    8  C   UNL     1     -42.495 -48.423  11.204  1.00  0.00     0.206 C 
HETATM    9  C   UNL     1     -42.361 -47.698   9.842  1.00  0.00     0.308 C 
HETATM   10  N   UNL     1     -41.659 -46.401   9.889  1.00  0.00     0.088 N 
HETATM   11  C   UNL     1     -42.262 -45.572  10.936  1.00  0.00     0.295 C 
HETATM   12  H   UNL     1     -41.732 -45.938   8.985  1.00  0.00     0.316 HD
HETATM   13  C   UNL     1     -42.253 -46.294  12.290  1.00  0.00     0.198 C 
HETATM   14  O   UNL     1     -42.958 -47.539  12.249  1.00  0.00    -0.376 OA
ENDBRANCH   5   8
TORSDOF 1
ENDMDL
