MODEL 1
REMARK VINA RESULT:      -6.6      0.000      0.000
REMARK  6 active torsions:
REMARK  status: ('A' for Active; 'I' for Inactive)
REMARK    1  A    between atoms: C_2  and  C_3 
REMARK    2  A    between atoms: C_2  and  N_11 
REMARK    3  A    between atoms: C_3  and  N_4 
REMARK       I    between atoms: N_11  and  C_12 
REMARK       I    between atoms: C_12  and  N_14 
REMARK    4  A    between atoms: N_14  and  C_16 
REMARK    5  A    between atoms: C_16  and  C_17 
REMARK    6  A    between atoms: C_22  and  O_23 
ROOT
HETATM    1  N   UNL     1     -41.986 -49.338  11.380  1.00  0.00    -0.337 N 
HETATM    2  C   UNL     1     -42.806 -49.825  12.362  1.00  0.00     0.318 C 
HETATM    3  O   UNL     1     -43.584 -49.076  12.947  1.00  0.00    -0.247 OA
HETATM    4  N   UNL     1     -42.712 -51.181  12.624  1.00  0.00    -0.338 N 
HETATM    5  C   UNL     1     -41.677 -52.066  12.097  1.00  0.00     0.154 C 
HETATM    6  H   UNL     1     -41.574 -50.000  10.740  1.00  0.00     0.164 HD
ENDROOT
BRANCH   1   7
HETATM    7  C   UNL     1     -42.047 -47.935  10.956  1.00  0.00     0.102 C 
HETATM    8  C   UNL     1     -40.690 -47.284  11.228  1.00  0.00     0.034 C 
BRANCH   7   9
HETATM    9  C   UNL     1     -42.479 -47.804   9.480  1.00  0.00     0.174 C 
BRANCH   9  10
HETATM   10  N   UNL     1     -43.822 -47.284   9.319  1.00  0.00    -0.285 N 
HETATM   11  C   UNL     1     -44.199 -46.059   8.862  1.00  0.00     0.201 A 
HETATM   12  N   UNL     1     -45.511 -45.979   8.866  1.00  0.00    -0.346 N 
HETATM   13  C   UNL     1     -45.894 -47.192   9.359  1.00  0.00     0.198 A 
ATOM     14  HN  UNL     1     -46.099 -45.199   8.573  1.00  0.00     0.167 HD
HETATM   15  N   UNL     1     -44.890 -48.027   9.657  1.00  0.00    -0.293 N 
ATOM     16  HN  UNL     1     -44.927 -48.973  10.037  1.00  0.00     0.188 HD
ENDBRANCH   9  10
ENDBRANCH   7   9
ENDBRANCH   1   7
BRANCH   4  17
HETATM   17  C   UNL     1     -43.659 -51.771  13.582  1.00  0.00     0.134 C 
BRANCH  17  18
HETATM   18  C   UNL     1     -45.072 -52.083  13.028  1.00  0.00     0.032 C 
HETATM   19  C   UNL     1     -46.222 -51.414  13.804  1.00  0.00     0.009 C 
HETATM   20  C   UNL     1     -46.423 -51.996  15.204  1.00  0.00     0.001 C 
HETATM   21  C   UNL     1     -46.603 -53.511  15.186  1.00  0.00     0.002 C 
HETATM   22  C   UNL     1     -45.508 -54.214  14.391  1.00  0.00     0.032 C 
HETATM   23  C   UNL     1     -45.340 -53.607  12.993  1.00  0.00     0.123 C 
BRANCH  23  24
HETATM   24  O   UNL     1     -44.312 -54.285  12.276  1.00  0.00    -0.395 OA
HETATM   25  H   UNL     1     -43.617 -53.645  12.048  1.00  0.00     0.210 HD
ENDBRANCH  23  24
ENDBRANCH  17  18
ENDBRANCH   4  17
TORSDOF 6
ENDMDL
MODEL 2
REMARK VINA RESULT:      -6.3      1.816      2.346
REMARK  6 active torsions:
REMARK  status: ('A' for Active; 'I' for Inactive)
REMARK    1  A    between atoms: C_2  and  C_3 
REMARK    2  A    between atoms: C_2  and  N_11 
REMARK    3  A    between atoms: C_3  and  N_4 
REMARK       I    between atoms: N_11  and  C_12 
REMARK       I    between atoms: C_12  and  N_14 
REMARK    4  A    between atoms: N_14  and  C_16 
REMARK    5  A    between atoms: C_16  and  C_17 
REMARK    6  A    between atoms: C_22  and  O_23 
ROOT
HETATM    1  N   UNL     1     -41.412 -48.470  11.112  1.00  0.00    -0.337 N 
HETATM    2  C   UNL     1     -41.884 -49.397  12.000  1.00  0.00     0.318 C 
HETATM    3  O   UNL     1     -43.024 -49.301  12.448  1.00  0.00    -0.247 OA
HETATM    4  N   UNL     1     -41.022 -50.428  12.329  1.00  0.00    -0.338 N 
HETATM    5  C   UNL     1     -39.606 -50.480  11.977  1.00  0.00     0.154 C 
HETATM    6  H   UNL     1     -40.605 -48.717  10.558  1.00  0.00     0.164 HD
ENDROOT
BRANCH   1   7
HETATM    7  C   UNL     1     -42.257 -47.374  10.624  1.00  0.00     0.102 C 
HETATM    8  C   UNL     1     -41.417 -46.097  10.575  1.00  0.00     0.034 C 
BRANCH   7   9
HETATM    9  C   UNL     1     -42.898 -47.711   9.262  1.00  0.00     0.174 C 
BRANCH   9  10
HETATM   10  N   UNL     1     -44.264 -47.245   9.140  1.00  0.00    -0.285 N 
HETATM   11  C   UNL     1     -44.700 -45.996   8.821  1.00  0.00     0.201 A 
HETATM   12  N   UNL     1     -46.014 -45.982   8.813  1.00  0.00    -0.346 N 
HETATM   13  C   UNL     1     -46.339 -47.262   9.156  1.00  0.00     0.198 A 
ATOM     14  HN  UNL     1     -46.638 -45.203   8.602  1.00  0.00     0.167 HD
HETATM   15  N   UNL     1     -45.297 -48.074   9.372  1.00  0.00    -0.293 N 
ATOM     16  HN  UNL     1     -45.288 -49.058   9.640  1.00  0.00     0.188 HD
ENDBRANCH   9  10
ENDBRANCH   7   9
ENDBRANCH   1   7
BRANCH   4  17
HETATM   17  C   UNL     1     -41.529 -51.514  13.181  1.00  0.00     0.134 C 
BRANCH  17  18
HETATM   18  C   UNL     1     -42.027 -52.779  12.438  1.00  0.00     0.032 C 
HETATM   19  C   UNL     1     -43.550 -52.999  12.503  1.00  0.00     0.009 C 
HETATM   20  C   UNL     1     -44.044 -53.379  13.900  1.00  0.00     0.001 C 
HETATM   21  C   UNL     1     -43.307 -54.587  14.471  1.00  0.00     0.002 C 
HETATM   22  C   UNL     1     -41.792 -54.433  14.388  1.00  0.00     0.032 C 
HETATM   23  C   UNL     1     -41.335 -54.056  12.973  1.00  0.00     0.123 C 
BRANCH  23  24
HETATM   24  O   UNL     1     -39.917 -53.920  12.928  1.00  0.00    -0.395 OA
HETATM   25  H   UNL     1     -39.630 -53.397  13.696  1.00  0.00     0.210 HD
ENDBRANCH  23  24
ENDBRANCH  17  18
ENDBRANCH   4  17
TORSDOF 6
ENDMDL
MODEL 3
REMARK VINA RESULT:      -5.9      2.019      2.692
REMARK  6 active torsions:
REMARK  status: ('A' for Active; 'I' for Inactive)
REMARK    1  A    between atoms: C_2  and  C_3 
REMARK    2  A    between atoms: C_2  and  N_11 
REMARK    3  A    between atoms: C_3  and  N_4 
REMARK       I    between atoms: N_11  and  C_12 
REMARK       I    between atoms: C_12  and  N_14 
REMARK    4  A    between atoms: N_14  and  C_16 
REMARK    5  A    between atoms: C_16  and  C_17 
REMARK    6  A    between atoms: C_22  and  O_23 
ROOT
HETATM    1  N   UNL     1     -40.442 -51.572  12.667  1.00  0.00    -0.337 N 
HETATM    2  C   UNL     1     -41.587 -51.623  13.415  1.00  0.00     0.318 C 
HETATM    3  O   UNL     1     -42.079 -50.591  13.864  1.00  0.00    -0.247 OA
HETATM    4  N   UNL     1     -42.143 -52.876  13.603  1.00  0.00    -0.338 N 
HETATM    5  C   UNL     1     -41.498 -54.139  13.258  1.00  0.00     0.154 C 
HETATM    6  H   UNL     1     -40.222 -52.371  12.090  1.00  0.00     0.164 HD
ENDROOT
BRANCH   1   7
HETATM    7  C   UNL     1     -39.801 -50.297  12.331  1.00  0.00     0.102 C 
HETATM    8  C   UNL     1     -38.284 -50.478  12.413  1.00  0.00     0.034 C 
BRANCH   7   9
HETATM    9  C   UNL     1     -40.259 -49.774  10.953  1.00  0.00     0.174 C 
BRANCH   9  10
HETATM   10  N   UNL     1     -41.241 -48.713  11.040  1.00  0.00    -0.285 N 
HETATM   11  C   UNL     1     -41.030 -47.369  11.017  1.00  0.00     0.201 A 
HETATM   12  N   UNL     1     -42.182 -46.745  11.120  1.00  0.00    -0.346 N 
HETATM   13  C   UNL     1     -43.079 -47.768  11.223  1.00  0.00     0.198 A 
ATOM     14  HN  UNL     1     -42.362 -45.741  11.121  1.00  0.00     0.167 HD
HETATM   15  N   UNL     1     -42.548 -48.996  11.185  1.00  0.00    -0.293 N 
ATOM     16  HN  UNL     1     -43.009 -49.903  11.249  1.00  0.00     0.188 HD
ENDBRANCH   9  10
ENDBRANCH   7   9
ENDBRANCH   1   7
BRANCH   4  17
HETATM   17  C   UNL     1     -43.439 -52.965  14.293  1.00  0.00     0.134 C 
BRANCH  17  18
HETATM   18  C   UNL     1     -44.672 -53.201  13.385  1.00  0.00     0.032 C 
HETATM   19  C   UNL     1     -45.509 -51.939  13.106  1.00  0.00     0.009 C 
HETATM   20  C   UNL     1     -46.261 -51.431  14.337  1.00  0.00     0.001 C 
HETATM   21  C   UNL     1     -47.125 -52.511  14.981  1.00  0.00     0.002 C 
HETATM   22  C   UNL     1     -46.347 -53.798  15.237  1.00  0.00     0.032 C 
HETATM   23  C   UNL     1     -45.612 -54.278  13.981  1.00  0.00     0.123 C 
BRANCH  23  24
HETATM   24  O   UNL     1     -44.897 -55.480  14.251  1.00  0.00    -0.395 OA
HETATM   25  H   UNL     1     -44.998 -56.081  13.494  1.00  0.00     0.210 HD
ENDBRANCH  23  24
ENDBRANCH  17  18
ENDBRANCH   4  17
TORSDOF 6
ENDMDL
MODEL 4
REMARK VINA RESULT:      -5.8      2.848      4.159
REMARK  6 active torsions:
REMARK  status: ('A' for Active; 'I' for Inactive)
REMARK    1  A    between atoms: C_2  and  C_3 
REMARK    2  A    between atoms: C_2  and  N_11 
REMARK    3  A    between atoms: C_3  and  N_4 
REMARK       I    between atoms: N_11  and  C_12 
REMARK       I    between atoms: C_12  and  N_14 
REMARK    4  A    between atoms: N_14  and  C_16 
REMARK    5  A    between atoms: C_16  and  C_17 
REMARK    6  A    between atoms: C_22  and  O_23 
ROOT
HETATM    1  N   UNL     1     -42.836 -49.154  11.806  1.00  0.00    -0.337 N 
HETATM    2  C   UNL     1     -42.066 -50.111  12.409  1.00  0.00     0.318 C 
HETATM    3  O   UNL     1     -40.845 -50.102  12.268  1.00  0.00    -0.247 OA
HETATM    4  N   UNL     1     -42.736 -51.044  13.181  1.00  0.00    -0.338 N 
HETATM    5  C   UNL     1     -44.185 -51.211  13.221  1.00  0.00     0.154 C 
HETATM    6  H   UNL     1     -43.773 -49.017  12.155  1.00  0.00     0.164 HD
ENDROOT
BRANCH   1   7
HETATM    7  C   UNL     1     -42.237 -48.064  11.028  1.00  0.00     0.102 C 
HETATM    8  C   UNL     1     -43.201 -47.682   9.904  1.00  0.00     0.034 C 
BRANCH   7   9
HETATM    9  C   UNL     1     -41.867 -46.862  11.922  1.00  0.00     0.174 C 
BRANCH   9  10
HETATM   10  N   UNL     1     -41.021 -45.892  11.257  1.00  0.00    -0.285 N 
HETATM   11  C   UNL     1     -41.113 -44.535  11.290  1.00  0.00     0.201 A 
HETATM   12  N   UNL     1     -40.156 -44.015  10.555  1.00  0.00    -0.346 N 
HETATM   13  C   UNL     1     -39.507 -45.114  10.070  1.00  0.00     0.198 A 
ATOM     14  HN  UNL     1     -39.949 -43.031  10.387  1.00  0.00     0.167 HD
HETATM   15  N   UNL     1     -40.006 -46.290  10.470  1.00  0.00    -0.293 N 
ATOM     16  HN  UNL     1     -39.699 -47.235  10.239  1.00  0.00     0.188 HD
ENDBRANCH   9  10
ENDBRANCH   7   9
ENDBRANCH   1   7
BRANCH   4  17
HETATM   17  C   UNL     1     -41.939 -52.014  13.946  1.00  0.00     0.134 C 
BRANCH  17  18
HETATM   18  C   UNL     1     -42.117 -53.500  13.544  1.00  0.00     0.032 C 
HETATM   19  C   UNL     1     -42.452 -54.442  14.715  1.00  0.00     0.009 C 
HETATM   20  C   UNL     1     -41.285 -54.635  15.685  1.00  0.00     0.001 C 
HETATM   21  C   UNL     1     -40.011 -55.093  14.981  1.00  0.00     0.002 C 
HETATM   22  C   UNL     1     -39.663 -54.213  13.786  1.00  0.00     0.032 C 
HETATM   23  C   UNL     1     -40.854 -54.047  12.835  1.00  0.00     0.123 C 
BRANCH  23  24
HETATM   24  O   UNL     1     -40.497 -53.222  11.729  1.00  0.00    -0.395 OA
HETATM   25  H   UNL     1     -40.726 -53.687  10.907  1.00  0.00     0.210 HD
ENDBRANCH  23  24
ENDBRANCH  17  18
ENDBRANCH   4  17
TORSDOF 6
ENDMDL
MODEL 5
REMARK VINA RESULT:      -5.8      2.422      3.165
REMARK  6 active torsions:
REMARK  status: ('A' for Active; 'I' for Inactive)
REMARK    1  A    between atoms: C_2  and  C_3 
REMARK    2  A    between atoms: C_2  and  N_11 
REMARK    3  A    between atoms: C_3  and  N_4 
REMARK       I    between atoms: N_11  and  C_12 
REMARK       I    between atoms: C_12  and  N_14 
REMARK    4  A    between atoms: N_14  and  C_16 
REMARK    5  A    between atoms: C_16  and  C_17 
REMARK    6  A    between atoms: C_22  and  O_23 
ROOT
HETATM    1  N   UNL     1     -40.160 -48.208  12.097  1.00  0.00    -0.337 N 
HETATM    2  C   UNL     1     -40.584 -49.292  12.817  1.00  0.00     0.318 C 
HETATM    3  O   UNL     1     -41.617 -49.229  13.481  1.00  0.00    -0.247 OA
HETATM    4  N   UNL     1     -39.804 -50.431  12.730  1.00  0.00    -0.338 N 
HETATM    5  C   UNL     1     -38.480 -50.495  12.118  1.00  0.00     0.154 C 
HETATM    6  H   UNL     1     -39.489 -48.367  11.361  1.00  0.00     0.164 HD
ENDROOT
BRANCH   1   7
HETATM    7  C   UNL     1     -40.941 -46.967  12.045  1.00  0.00     0.102 C 
HETATM    8  C   UNL     1     -40.199 -45.891  12.838  1.00  0.00     0.034 C 
BRANCH   7   9
HETATM    9  C   UNL     1     -41.230 -46.536  10.591  1.00  0.00     0.174 C 
BRANCH   9  10
HETATM   10  N   UNL     1     -42.501 -47.018  10.091  1.00  0.00    -0.285 N 
HETATM   11  C   UNL     1     -43.528 -47.565  10.797  1.00  0.00     0.201 A 
HETATM   12  N   UNL     1     -44.506 -47.873   9.974  1.00  0.00    -0.346 N 
HETATM   13  C   UNL     1     -44.012 -47.506   8.757  1.00  0.00     0.198 A 
ATOM     14  HN  UNL     1     -45.412 -48.285  10.194  1.00  0.00     0.167 HD
HETATM   15  N   UNL     1     -42.781 -46.981   8.777  1.00  0.00    -0.293 N 
ATOM     16  HN  UNL     1     -42.208 -46.643   8.003  1.00  0.00     0.188 HD
ENDBRANCH   9  10
ENDBRANCH   7   9
ENDBRANCH   1   7
BRANCH   4  17
HETATM   17  C   UNL     1     -40.286 -51.656  13.386  1.00  0.00     0.134 C 
BRANCH  17  18
HETATM   18  C   UNL     1     -40.952 -52.702  12.456  1.00  0.00     0.032 C 
HETATM   19  C   UNL     1     -42.457 -52.478  12.218  1.00  0.00     0.009 C 
HETATM   20  C   UNL     1     -43.308 -52.743  13.461  1.00  0.00     0.001 C 
HETATM   21  C   UNL     1     -43.063 -54.129  14.051  1.00  0.00     0.002 C 
HETATM   22  C   UNL     1     -41.580 -54.412  14.265  1.00  0.00     0.032 C 
HETATM   23  C   UNL     1     -40.760 -54.140  12.998  1.00  0.00     0.123 C 
BRANCH  23  24
HETATM   24  O   UNL     1     -39.382 -54.414  13.228  1.00  0.00    -0.395 OA
HETATM   25  H   UNL     1     -39.174 -55.293  12.867  1.00  0.00     0.210 HD
ENDBRANCH  23  24
ENDBRANCH  17  18
ENDBRANCH   4  17
TORSDOF 6
ENDMDL
MODEL 6
REMARK VINA RESULT:      -5.8      1.543      2.144
REMARK  6 active torsions:
REMARK  status: ('A' for Active; 'I' for Inactive)
REMARK    1  A    between atoms: C_2  and  C_3 
REMARK    2  A    between atoms: C_2  and  N_11 
REMARK    3  A    between atoms: C_3  and  N_4 
REMARK       I    between atoms: N_11  and  C_12 
REMARK       I    between atoms: C_12  and  N_14 
REMARK    4  A    between atoms: N_14  and  C_16 
REMARK    5  A    between atoms: C_16  and  C_17 
REMARK    6  A    between atoms: C_22  and  O_23 
ROOT
HETATM    1  N   UNL     1     -41.487 -49.958  12.122  1.00  0.00    -0.337 N 
HETATM    2  C   UNL     1     -42.604 -50.626  12.544  1.00  0.00     0.318 C 
HETATM    3  O   UNL     1     -43.613 -50.003  12.867  1.00  0.00    -0.247 OA
HETATM    4  N   UNL     1     -42.525 -52.008  12.560  1.00  0.00    -0.338 N 
HETATM    5  C   UNL     1     -41.299 -52.778  12.373  1.00  0.00     0.154 C 
HETATM    6  H   UNL     1     -40.793 -50.481  11.609  1.00  0.00     0.164 HD
ENDROOT
BRANCH   1   7
HETATM    7  C   UNL     1     -41.472 -48.498  11.985  1.00  0.00     0.102 C 
HETATM    8  C   UNL     1     -40.302 -47.945  12.800  1.00  0.00     0.034 C 
BRANCH   7   9
HETATM    9  C   UNL     1     -41.417 -48.064  10.505  1.00  0.00     0.174 C 
BRANCH   9  10
HETATM   10  N   UNL     1     -42.653 -47.473  10.035  1.00  0.00    -0.285 N 
HETATM   11  C   UNL     1     -43.882 -47.522  10.616  1.00  0.00     0.201 A 
HETATM   12  N   UNL     1     -44.742 -46.859   9.876  1.00  0.00    -0.346 N 
HETATM   13  C   UNL     1     -43.981 -46.432   8.827  1.00  0.00     0.198 A 
ATOM     14  HN  UNL     1     -45.735 -46.702  10.044  1.00  0.00     0.167 HD
HETATM   15  N   UNL     1     -42.691 -46.789   8.878  1.00  0.00    -0.293 N 
ATOM     16  HN  UNL     1     -41.940 -46.595   8.216  1.00  0.00     0.188 HD
ENDBRANCH   9  10
ENDBRANCH   7   9
ENDBRANCH   1   7
BRANCH   4  17
HETATM   17  C   UNL     1     -43.739 -52.770  12.888  1.00  0.00     0.134 C 
BRANCH  17  18
HETATM   18  C   UNL     1     -43.787 -53.384  14.310  1.00  0.00     0.032 C 
HETATM   19  C   UNL     1     -44.030 -54.904  14.340  1.00  0.00     0.009 C 
HETATM   20  C   UNL     1     -45.443 -55.297  13.905  1.00  0.00     0.001 C 
HETATM   21  C   UNL     1     -46.522 -54.569  14.701  1.00  0.00     0.002 C 
HETATM   22  C   UNL     1     -46.298 -53.061  14.734  1.00  0.00     0.032 C 
HETATM   23  C   UNL     1     -44.874 -52.707  15.180  1.00  0.00     0.123 C 
BRANCH  23  24
HETATM   24  O   UNL     1     -44.697 -51.293  15.202  1.00  0.00    -0.395 OA
HETATM   25  H   UNL     1     -43.803 -51.097  15.531  1.00  0.00     0.210 HD
ENDBRANCH  23  24
ENDBRANCH  17  18
ENDBRANCH   4  17
TORSDOF 6
ENDMDL
MODEL 7
REMARK VINA RESULT:      -5.7      3.595      6.984
REMARK  6 active torsions:
REMARK  status: ('A' for Active; 'I' for Inactive)
REMARK    1  A    between atoms: C_2  and  C_3 
REMARK    2  A    between atoms: C_2  and  N_11 
REMARK    3  A    between atoms: C_3  and  N_4 
REMARK       I    between atoms: N_11  and  C_12 
REMARK       I    between atoms: C_12  and  N_14 
REMARK    4  A    between atoms: N_14  and  C_16 
REMARK    5  A    between atoms: C_16  and  C_17 
REMARK    6  A    between atoms: C_22  and  O_23 
ROOT
HETATM    1  N   UNL     1     -39.760 -52.260  13.575  1.00  0.00    -0.337 N 
HETATM    2  C   UNL     1     -40.084 -51.375  12.583  1.00  0.00     0.318 C 
HETATM    3  O   UNL     1     -40.863 -51.703  11.691  1.00  0.00    -0.247 OA
HETATM    4  N   UNL     1     -39.508 -50.119  12.666  1.00  0.00    -0.338 N 
HETATM    5  C   UNL     1     -38.438 -49.749  13.587  1.00  0.00     0.154 C 
HETATM    6  H   UNL     1     -39.357 -51.889  14.422  1.00  0.00     0.164 HD
ENDROOT
BRANCH   1   7
HETATM    7  C   UNL     1     -40.366 -53.594  13.642  1.00  0.00     0.102 C 
HETATM    8  C   UNL     1     -39.275 -54.607  13.990  1.00  0.00     0.034 C 
BRANCH   7   9
HETATM    9  C   UNL     1     -41.548 -53.635  14.634  1.00  0.00     0.174 C 
BRANCH   9  10
HETATM   10  N   UNL     1     -42.816 -53.941  14.003  1.00  0.00    -0.285 N 
HETATM   11  C   UNL     1     -43.860 -54.646  14.517  1.00  0.00     0.201 A 
HETATM   12  N   UNL     1     -44.827 -54.701  13.629  1.00  0.00    -0.346 N 
HETATM   13  C   UNL     1     -44.310 -54.020  12.566  1.00  0.00     0.198 A 
ATOM     14  HN  UNL     1     -45.742 -55.144  13.714  1.00  0.00     0.167 HD
HETATM   15  N   UNL     1     -43.073 -53.538  12.747  1.00  0.00    -0.293 N 
ATOM     16  HN  UNL     1     -42.485 -53.008  12.104  1.00  0.00     0.188 HD
ENDBRANCH   9  10
ENDBRANCH   7   9
ENDBRANCH   1   7
BRANCH   4  17
HETATM   17  C   UNL     1     -39.923 -49.098  11.693  1.00  0.00     0.134 C 
BRANCH  17  18
HETATM   18  C   UNL     1     -40.648 -47.861  12.282  1.00  0.00     0.032 C 
HETATM   19  C   UNL     1     -41.913 -48.190  13.094  1.00  0.00     0.009 C 
HETATM   20  C   UNL     1     -43.066 -48.706  12.231  1.00  0.00     0.001 C 
HETATM   21  C   UNL     1     -43.402 -47.760  11.082  1.00  0.00     0.002 C 
HETATM   22  C   UNL     1     -42.170 -47.372  10.273  1.00  0.00     0.032 C 
HETATM   23  C   UNL     1     -41.039 -46.856  11.171  1.00  0.00     0.123 C 
BRANCH  23  24
HETATM   24  O   UNL     1     -39.903 -46.501  10.387  1.00  0.00    -0.395 OA
HETATM   25  H   UNL     1     -40.092 -46.703   9.455  1.00  0.00     0.210 HD
ENDBRANCH  23  24
ENDBRANCH  17  18
ENDBRANCH   4  17
TORSDOF 6
ENDMDL
MODEL 8
REMARK VINA RESULT:      -5.4      3.956      5.093
REMARK  6 active torsions:
REMARK  status: ('A' for Active; 'I' for Inactive)
REMARK    1  A    between atoms: C_2  and  C_3 
REMARK    2  A    between atoms: C_2  and  N_11 
REMARK    3  A    between atoms: C_3  and  N_4 
REMARK       I    between atoms: N_11  and  C_12 
REMARK       I    between atoms: C_12  and  N_14 
REMARK    4  A    between atoms: N_14  and  C_16 
REMARK    5  A    between atoms: C_16  and  C_17 
REMARK    6  A    between atoms: C_22  and  O_23 
ROOT
HETATM    1  N   UNL     1     -39.383 -51.923  14.757  1.00  0.00    -0.337 N 
HETATM    2  C   UNL     1     -40.735 -51.972  14.967  1.00  0.00     0.318 C 
HETATM    3  O   UNL     1     -41.271 -51.177  15.736  1.00  0.00    -0.247 OA
HETATM    4  N   UNL     1     -41.432 -52.934  14.259  1.00  0.00    -0.338 N 
HETATM    5  C   UNL     1     -40.822 -54.015  13.491  1.00  0.00     0.154 C 
HETATM    6  H   UNL     1     -39.018 -52.382  13.936  1.00  0.00     0.164 HD
ENDROOT
BRANCH   1   7
HETATM    7  C   UNL     1     -38.545 -50.898  15.389  1.00  0.00     0.102 C 
HETATM    8  C   UNL     1     -37.969 -51.470  16.684  1.00  0.00     0.034 C 
BRANCH   7   9
HETATM    9  C   UNL     1     -37.447 -50.389  14.429  1.00  0.00     0.174 C 
BRANCH   9  10
HETATM   10  N   UNL     1     -37.958 -49.988  13.135  1.00  0.00    -0.285 N 
HETATM   11  C   UNL     1     -37.657 -50.510  11.915  1.00  0.00     0.201 A 
HETATM   12  N   UNL     1     -38.332 -49.869  10.988  1.00  0.00    -0.346 N 
HETATM   13  C   UNL     1     -39.029 -48.938  11.701  1.00  0.00     0.198 A 
ATOM     14  HN  UNL     1     -38.335 -50.028   9.980  1.00  0.00     0.167 HD
HETATM   15  N   UNL     1     -38.827 -48.968  13.025  1.00  0.00    -0.293 N 
ATOM     16  HN  UNL     1     -39.226 -48.377  13.754  1.00  0.00     0.188 HD
ENDBRANCH   9  10
ENDBRANCH   7   9
ENDBRANCH   1   7
BRANCH   4  17
HETATM   17  C   UNL     1     -42.899 -52.942  14.358  1.00  0.00     0.134 C 
BRANCH  17  18
HETATM   18  C   UNL     1     -43.654 -52.143  13.264  1.00  0.00     0.032 C 
HETATM   19  C   UNL     1     -44.294 -50.833  13.759  1.00  0.00     0.009 C 
HETATM   20  C   UNL     1     -45.481 -51.060  14.697  1.00  0.00     0.001 C 
HETATM   21  C   UNL     1     -46.540 -51.973  14.088  1.00  0.00     0.002 C 
HETATM   22  C   UNL     1     -45.945 -53.267  13.544  1.00  0.00     0.032 C 
HETATM   23  C   UNL     1     -44.763 -53.000  12.605  1.00  0.00     0.123 C 
BRANCH  23  24
HETATM   24  O   UNL     1     -44.230 -54.226  12.114  1.00  0.00    -0.395 OA
HETATM   25  H   UNL     1     -44.374 -54.266  11.153  1.00  0.00     0.210 HD
ENDBRANCH  23  24
ENDBRANCH  17  18
ENDBRANCH   4  17
TORSDOF 6
ENDMDL
MODEL 9
REMARK VINA RESULT:      -5.4      2.918      4.546
REMARK  6 active torsions:
REMARK  status: ('A' for Active; 'I' for Inactive)
REMARK    1  A    between atoms: C_2  and  C_3 
REMARK    2  A    between atoms: C_2  and  N_11 
REMARK    3  A    between atoms: C_3  and  N_4 
REMARK       I    between atoms: N_11  and  C_12 
REMARK       I    between atoms: C_12  and  N_14 
REMARK    4  A    between atoms: N_14  and  C_16 
REMARK    5  A    between atoms: C_16  and  C_17 
REMARK    6  A    between atoms: C_22  and  O_23 
ROOT
HETATM    1  N   UNL     1     -41.645 -48.526  13.391  1.00  0.00    -0.337 N 
HETATM    2  C   UNL     1     -42.201 -49.769  13.255  1.00  0.00     0.318 C 
HETATM    3  O   UNL     1     -41.957 -50.450  12.263  1.00  0.00    -0.247 OA
HETATM    4  N   UNL     1     -43.012 -50.196  14.292  1.00  0.00    -0.338 N 
HETATM    5  C   UNL     1     -43.482 -49.355  15.388  1.00  0.00     0.154 C 
HETATM    6  H   UNL     1     -41.631 -48.115  14.313  1.00  0.00     0.164 HD
ENDROOT
BRANCH   1   7
HETATM    7  C   UNL     1     -40.705 -47.992  12.399  1.00  0.00     0.102 C 
HETATM    8  C   UNL     1     -41.210 -46.625  11.936  1.00  0.00     0.034 C 
BRANCH   7   9
HETATM    9  C   UNL     1     -39.265 -47.932  12.952  1.00  0.00     0.174 C 
BRANCH   9  10
HETATM   10  N   UNL     1     -38.459 -49.076  12.577  1.00  0.00    -0.285 N 
HETATM   11  C   UNL     1     -37.851 -49.979  13.393  1.00  0.00     0.201 A 
HETATM   12  N   UNL     1     -37.215 -50.867  12.663  1.00  0.00    -0.346 N 
HETATM   13  C   UNL     1     -37.454 -50.447  11.387  1.00  0.00     0.198 A 
ATOM     14  HN  UNL     1     -36.674 -51.674  12.974  1.00  0.00     0.167 HD
HETATM   15  N   UNL     1     -38.210 -49.346  11.284  1.00  0.00    -0.293 N 
ATOM     16  HN  UNL     1     -38.514 -48.847  10.448  1.00  0.00     0.188 HD
ENDBRANCH   9  10
ENDBRANCH   7   9
ENDBRANCH   1   7
BRANCH   4  17
HETATM   17  C   UNL     1     -43.530 -51.571  14.247  1.00  0.00     0.134 C 
BRANCH  17  18
HETATM   18  C   UNL     1     -44.791 -51.789  13.372  1.00  0.00     0.032 C 
HETATM   19  C   UNL     1     -46.111 -51.851  14.162  1.00  0.00     0.009 C 
HETATM   20  C   UNL     1     -46.242 -53.111  15.020  1.00  0.00     0.001 C 
HETATM   21  C   UNL     1     -46.044 -54.390  14.211  1.00  0.00     0.002 C 
HETATM   22  C   UNL     1     -44.768 -54.357  13.378  1.00  0.00     0.032 C 
HETATM   23  C   UNL     1     -44.675 -53.083  12.529  1.00  0.00     0.123 C 
BRANCH  23  24
HETATM   24  O   UNL     1     -43.474 -53.081  11.763  1.00  0.00    -0.395 OA
HETATM   25  H   UNL     1     -43.542 -52.395  11.078  1.00  0.00     0.210 HD
ENDBRANCH  23  24
ENDBRANCH  17  18
ENDBRANCH   4  17
TORSDOF 6
ENDMDL
