MODEL 1
REMARK VINA RESULT:      -6.5      0.000      0.000
REMARK  7 active torsions:
REMARK  status: ('A' for Active; 'I' for Inactive)
REMARK    1  A    between atoms: C_2  and  C_4 
REMARK    2  A    between atoms: C_9  and  O_10 
REMARK    3  A    between atoms: O_10  and  C_11 
REMARK    4  A    between atoms: C_11  and  C_12 
REMARK    5  A    between atoms: C_12  and  O_13 
REMARK    6  A    between atoms: C_12  and  C_14 
REMARK    7  A    between atoms: C_14  and  N_15 
ROOT
HETATM    1  C   UNL     1     -39.883 -53.821  13.699  1.00  0.00     0.161 C 
ENDROOT
BRANCH   1   2
HETATM    2  C   UNL     1     -39.142 -52.769  14.535  1.00  0.00     0.209 C 
BRANCH   2   3
HETATM    3  O   UNL     1     -38.264 -51.969  13.722  1.00  0.00    -0.348 OA
BRANCH   3   4
HETATM    4  C   UNL     1     -37.936 -50.743  14.263  1.00  0.00     0.075 A 
HETATM    5  C   UNL     1     -38.026 -49.599  13.443  1.00  0.00    -0.021 A 
HETATM    6  C   UNL     1     -37.579 -48.368  13.971  1.00  0.00     0.010 A 
HETATM    7  C   UNL     1     -37.101 -48.257  15.275  1.00  0.00     0.001 A 
HETATM    8  C   UNL     1     -37.077 -49.373  16.093  1.00  0.00     0.003 A 
HETATM    9  C   UNL     1     -37.509 -50.600  15.596  1.00  0.00     0.037 A 
BRANCH   5  10
HETATM   10  C   UNL     1     -38.544 -49.628  12.009  1.00  0.00     0.013 C 
HETATM   11  C   UNL     1     -39.284 -48.333  11.633  1.00  0.00     0.015 C 
HETATM   12  C   UNL     1     -37.398 -49.842  11.014  1.00  0.00     0.015 C 
ENDBRANCH   5  10
ENDBRANCH   3   4
ENDBRANCH   2   3
ENDBRANCH   1   2
BRANCH   1  13
HETATM   13  O   UNL     1     -38.981 -54.858  13.299  1.00  0.00    -0.392 OA
HETATM   14  H   UNL     1     -38.611 -54.595  12.435  1.00  0.00     0.210 HD
ENDBRANCH   1  13
BRANCH   1  15
HETATM   15  C   UNL     1     -41.090 -54.442  14.427  1.00  0.00     0.166 C 
BRANCH  15  16
HETATM   16  N   UNL     1     -42.378 -54.033  13.878  1.00  0.00    -0.307 N 
HETATM   17  C   UNL     1     -42.456 -53.260  12.752  1.00  0.00     0.186 C 
HETATM   18  N   UNL     1     -43.554 -52.860  12.205  1.00  0.00    -0.355 N 
HETATM   19  C   UNL     1     -44.731 -53.199  12.830  1.00  0.00     0.017 C 
ATOM     20  HN  UNL     1     -43.549 -52.315  11.344  1.00  0.00     0.166 HD
HETATM   21  C   UNL     1     -45.965 -52.581  12.229  1.00  0.00     0.069 C 
HETATM   22  C   UNL     1     -44.798 -54.012  13.900  1.00  0.00     0.028 C 
HETATM   23  C   UNL     1     -46.016 -54.375  14.689  1.00  0.00     0.056 C 
HETATM   24  C   UNL     1     -43.523 -54.632  14.344  1.00  0.00     0.256 C 
HETATM   25  O   UNL     1     -43.529 -55.634  15.052  1.00  0.00    -0.267 OA
ENDBRANCH  15  16
ENDBRANCH   1  15
TORSDOF 7
ENDMDL
MODEL 2
REMARK VINA RESULT:      -6.4      3.687      7.851
REMARK  7 active torsions:
REMARK  status: ('A' for Active; 'I' for Inactive)
REMARK    1  A    between atoms: C_2  and  C_4 
REMARK    2  A    between atoms: C_9  and  O_10 
REMARK    3  A    between atoms: O_10  and  C_11 
REMARK    4  A    between atoms: C_11  and  C_12 
REMARK    5  A    between atoms: C_12  and  O_13 
REMARK    6  A    between atoms: C_12  and  C_14 
REMARK    7  A    between atoms: C_14  and  N_15 
ROOT
HETATM    1  C   UNL     1     -40.950 -50.183  11.711  1.00  0.00     0.161 C 
ENDROOT
BRANCH   1   2
HETATM    2  C   UNL     1     -41.463 -51.565  12.139  1.00  0.00     0.209 C 
BRANCH   2   3
HETATM    3  O   UNL     1     -42.826 -51.505  12.598  1.00  0.00    -0.348 OA
BRANCH   3   4
HETATM    4  C   UNL     1     -43.256 -52.630  13.271  1.00  0.00     0.075 A 
HETATM    5  C   UNL     1     -44.609 -52.704  13.662  1.00  0.00    -0.021 A 
HETATM    6  C   UNL     1     -45.012 -53.805  14.450  1.00  0.00     0.010 A 
HETATM    7  C   UNL     1     -44.126 -54.821  14.802  1.00  0.00     0.001 A 
HETATM    8  C   UNL     1     -42.816 -54.772  14.358  1.00  0.00     0.003 A 
HETATM    9  C   UNL     1     -42.392 -53.695  13.583  1.00  0.00     0.037 A 
BRANCH   5  10
HETATM   10  C   UNL     1     -45.647 -51.643  13.315  1.00  0.00     0.013 C 
HETATM   11  C   UNL     1     -46.522 -52.055  12.120  1.00  0.00     0.015 C 
HETATM   12  C   UNL     1     -46.560 -51.352  14.511  1.00  0.00     0.015 C 
ENDBRANCH   5  10
ENDBRANCH   3   4
ENDBRANCH   2   3
ENDBRANCH   1   2
BRANCH   1  13
HETATM   13  O   UNL     1     -40.438 -50.240  10.376  1.00  0.00    -0.392 OA
HETATM   14  H   UNL     1     -39.502 -50.510  10.443  1.00  0.00     0.210 HD
ENDBRANCH   1  13
BRANCH   1  15
HETATM   15  C   UNL     1     -42.020 -49.078  11.805  1.00  0.00     0.166 C 
BRANCH  15  16
HETATM   16  N   UNL     1     -41.493 -47.735  11.583  1.00  0.00    -0.307 N 
HETATM   17  C   UNL     1     -41.739 -47.060  10.419  1.00  0.00     0.186 C 
HETATM   18  N   UNL     1     -41.312 -45.874  10.149  1.00  0.00    -0.355 N 
HETATM   19  C   UNL     1     -40.511 -45.263  11.085  1.00  0.00     0.017 C 
ATOM     20  HN  UNL     1     -41.559 -45.407   9.276  1.00  0.00     0.166 HD
HETATM   21  C   UNL     1     -39.925 -43.945  10.651  1.00  0.00     0.069 C 
HETATM   22  C   UNL     1     -40.252 -45.785  12.297  1.00  0.00     0.028 C 
HETATM   23  C   UNL     1     -39.339 -45.235  13.346  1.00  0.00     0.056 C 
HETATM   24  C   UNL     1     -40.961 -47.044  12.644  1.00  0.00     0.256 C 
HETATM   25  O   UNL     1     -41.075 -47.396  13.813  1.00  0.00    -0.267 OA
ENDBRANCH  15  16
ENDBRANCH   1  15
TORSDOF 7
ENDMDL
MODEL 3
REMARK VINA RESULT:      -6.3      1.571      2.160
REMARK  7 active torsions:
REMARK  status: ('A' for Active; 'I' for Inactive)
REMARK    1  A    between atoms: C_2  and  C_4 
REMARK    2  A    between atoms: C_9  and  O_10 
REMARK    3  A    between atoms: O_10  and  C_11 
REMARK    4  A    between atoms: C_11  and  C_12 
REMARK    5  A    between atoms: C_12  and  O_13 
REMARK    6  A    between atoms: C_12  and  C_14 
REMARK    7  A    between atoms: C_14  and  N_15 
ROOT
HETATM    1  C   UNL     1     -40.547 -53.681  13.627  1.00  0.00     0.161 C 
ENDROOT
BRANCH   1   2
HETATM    2  C   UNL     1     -39.778 -52.971  14.750  1.00  0.00     0.209 C 
BRANCH   2   3
HETATM    3  O   UNL     1     -39.929 -51.541  14.672  1.00  0.00    -0.348 OA
BRANCH   3   4
HETATM    4  C   UNL     1     -39.225 -50.945  13.646  1.00  0.00     0.075 A 
HETATM    5  C   UNL     1     -39.881 -49.981  12.852  1.00  0.00    -0.021 A 
HETATM    6  C   UNL     1     -39.191 -49.462  11.734  1.00  0.00     0.010 A 
HETATM    7  C   UNL     1     -37.886 -49.845  11.434  1.00  0.00     0.001 A 
HETATM    8  C   UNL     1     -37.228 -50.742  12.256  1.00  0.00     0.003 A 
HETATM    9  C   UNL     1     -37.887 -51.272  13.363  1.00  0.00     0.037 A 
BRANCH   5  10
HETATM   10  C   UNL     1     -41.304 -49.499  13.112  1.00  0.00     0.013 C 
HETATM   11  C   UNL     1     -41.337 -48.208  13.947  1.00  0.00     0.015 C 
HETATM   12  C   UNL     1     -42.051 -49.250  11.798  1.00  0.00     0.015 C 
ENDBRANCH   5  10
ENDBRANCH   3   4
ENDBRANCH   2   3
ENDBRANCH   1   2
BRANCH   1  13
HETATM   13  O   UNL     1     -39.675 -54.567  12.918  1.00  0.00    -0.392 OA
HETATM   14  H   UNL     1     -38.855 -54.638  13.442  1.00  0.00     0.210 HD
ENDBRANCH   1  13
BRANCH   1  15
HETATM   15  C   UNL     1     -41.777 -54.462  14.127  1.00  0.00     0.166 C 
BRANCH  15  16
HETATM   16  N   UNL     1     -43.048 -53.892  13.691  1.00  0.00    -0.307 N 
HETATM   17  C   UNL     1     -43.112 -53.026  12.635  1.00  0.00     0.186 C 
HETATM   18  N   UNL     1     -44.193 -52.483  12.190  1.00  0.00    -0.355 N 
HETATM   19  C   UNL     1     -45.362 -52.762  12.859  1.00  0.00     0.017 C 
ATOM     20  HN  UNL     1     -44.182 -51.871  11.374  1.00  0.00     0.166 HD
HETATM   21  C   UNL     1     -46.562 -51.986  12.384  1.00  0.00     0.069 C 
HETATM   22  C   UNL     1     -45.449 -53.651  13.865  1.00  0.00     0.028 C 
HETATM   23  C   UNL     1     -46.651 -53.964  14.697  1.00  0.00     0.056 C 
HETATM   24  C   UNL     1     -44.218 -54.420  14.180  1.00  0.00     0.256 C 
HETATM   25  O   UNL     1     -44.282 -55.472  14.809  1.00  0.00    -0.267 OA
ENDBRANCH  15  16
ENDBRANCH   1  15
TORSDOF 7
ENDMDL
MODEL 4
REMARK VINA RESULT:      -6.2      2.223      6.985
REMARK  7 active torsions:
REMARK  status: ('A' for Active; 'I' for Inactive)
REMARK    1  A    between atoms: C_2  and  C_4 
REMARK    2  A    between atoms: C_9  and  O_10 
REMARK    3  A    between atoms: O_10  and  C_11 
REMARK    4  A    between atoms: C_11  and  C_12 
REMARK    5  A    between atoms: C_12  and  O_13 
REMARK    6  A    between atoms: C_12  and  C_14 
REMARK    7  A    between atoms: C_14  and  N_15 
ROOT
HETATM    1  C   UNL     1     -41.582 -53.816  14.290  1.00  0.00     0.161 C 
ENDROOT
BRANCH   1   2
HETATM    2  C   UNL     1     -42.924 -54.559  14.249  1.00  0.00     0.209 C 
BRANCH   2   3
HETATM    3  O   UNL     1     -43.909 -53.917  15.080  1.00  0.00    -0.348 OA
BRANCH   3   4
HETATM    4  C   UNL     1     -44.800 -53.113  14.398  1.00  0.00     0.075 A 
HETATM    5  C   UNL     1     -45.492 -52.116  15.116  1.00  0.00    -0.021 A 
HETATM    6  C   UNL     1     -46.484 -51.377  14.436  1.00  0.00     0.010 A 
HETATM    7  C   UNL     1     -46.756 -51.581  13.085  1.00  0.00     0.001 A 
HETATM    8  C   UNL     1     -46.027 -52.517  12.373  1.00  0.00     0.003 A 
HETATM    9  C   UNL     1     -45.044 -53.262  13.021  1.00  0.00     0.037 A 
BRANCH   5  10
HETATM   10  C   UNL     1     -45.253 -51.820  16.593  1.00  0.00     0.013 C 
HETATM   11  C   UNL     1     -45.507 -50.343  16.938  1.00  0.00     0.015 C 
HETATM   12  C   UNL     1     -46.148 -52.691  17.482  1.00  0.00     0.015 C 
ENDBRANCH   5  10
ENDBRANCH   3   4
ENDBRANCH   2   3
ENDBRANCH   1   2
BRANCH   1  13
HETATM   13  O   UNL     1     -40.661 -54.510  15.137  1.00  0.00    -0.392 OA
HETATM   14  H   UNL     1     -40.796 -54.169  16.043  1.00  0.00     0.210 HD
ENDBRANCH   1  13
BRANCH   1  15
HETATM   15  C   UNL     1     -40.950 -53.617  12.899  1.00  0.00     0.166 C 
BRANCH  15  16
HETATM   16  N   UNL     1     -40.895 -52.222  12.476  1.00  0.00    -0.307 N 
HETATM   17  C   UNL     1     -42.035 -51.513  12.218  1.00  0.00     0.186 C 
HETATM   18  N   UNL     1     -42.069 -50.279  11.843  1.00  0.00    -0.355 N 
HETATM   19  C   UNL     1     -40.865 -49.647  11.645  1.00  0.00     0.017 C 
ATOM     20  HN  UNL     1     -42.954 -49.793  11.700  1.00  0.00     0.166 HD
HETATM   21  C   UNL     1     -40.968 -48.259  11.068  1.00  0.00     0.069 C 
HETATM   22  C   UNL     1     -39.675 -50.205  11.930  1.00  0.00     0.028 C 
HETATM   23  C   UNL     1     -38.318 -49.628  11.680  1.00  0.00     0.056 C 
HETATM   24  C   UNL     1     -39.707 -51.540  12.580  1.00  0.00     0.256 C 
HETATM   25  O   UNL     1     -38.730 -51.962  13.191  1.00  0.00    -0.267 OA
ENDBRANCH  15  16
ENDBRANCH   1  15
TORSDOF 7
ENDMDL
MODEL 5
REMARK VINA RESULT:      -6.2      1.985      2.943
REMARK  7 active torsions:
REMARK  status: ('A' for Active; 'I' for Inactive)
REMARK    1  A    between atoms: C_2  and  C_4 
REMARK    2  A    between atoms: C_9  and  O_10 
REMARK    3  A    between atoms: O_10  and  C_11 
REMARK    4  A    between atoms: C_11  and  C_12 
REMARK    5  A    between atoms: C_12  and  O_13 
REMARK    6  A    between atoms: C_12  and  C_14 
REMARK    7  A    between atoms: C_14  and  N_15 
ROOT
HETATM    1  C   UNL     1     -42.488 -52.970  12.698  1.00  0.00     0.161 C 
ENDROOT
BRANCH   1   2
HETATM    2  C   UNL     1     -41.432 -53.995  13.134  1.00  0.00     0.209 C 
BRANCH   2   3
HETATM    3  O   UNL     1     -40.097 -53.499  12.925  1.00  0.00    -0.348 OA
BRANCH   3   4
HETATM    4  C   UNL     1     -39.578 -52.781  13.984  1.00  0.00     0.075 A 
HETATM    5  C   UNL     1     -39.029 -51.508  13.728  1.00  0.00    -0.021 A 
HETATM    6  C   UNL     1     -38.397 -50.832  14.795  1.00  0.00     0.010 A 
HETATM    7  C   UNL     1     -38.347 -51.370  16.080  1.00  0.00     0.001 A 
HETATM    8  C   UNL     1     -38.945 -52.591  16.335  1.00  0.00     0.003 A 
HETATM    9  C   UNL     1     -39.572 -53.280  15.299  1.00  0.00     0.037 A 
BRANCH   5  10
HETATM   10  C   UNL     1     -39.047 -50.840  12.358  1.00  0.00     0.013 C 
HETATM   11  C   UNL     1     -39.970 -49.611  12.321  1.00  0.00     0.015 C 
HETATM   12  C   UNL     1     -37.638 -50.405  11.938  1.00  0.00     0.015 C 
ENDBRANCH   5  10
ENDBRANCH   3   4
ENDBRANCH   2   3
ENDBRANCH   1   2
BRANCH   1  13
HETATM   13  O   UNL     1     -42.107 -52.367  11.458  1.00  0.00    -0.392 OA
HETATM   14  H   UNL     1     -41.797 -53.087  10.875  1.00  0.00     0.210 HD
ENDBRANCH   1  13
BRANCH   1  15
HETATM   15  C   UNL     1     -43.902 -53.567  12.566  1.00  0.00     0.166 C 
BRANCH  15  16
HETATM   16  N   UNL     1     -44.843 -53.067  13.562  1.00  0.00    -0.307 N 
HETATM   17  C   UNL     1     -45.654 -51.997  13.298  1.00  0.00     0.186 C 
HETATM   18  N   UNL     1     -46.510 -51.498  14.123  1.00  0.00    -0.355 N 
HETATM   19  C   UNL     1     -46.578 -52.056  15.378  1.00  0.00     0.017 C 
ATOM     20  HN  UNL     1     -47.113 -50.720  13.856  1.00  0.00     0.166 HD
HETATM   21  C   UNL     1     -47.488 -51.339  16.340  1.00  0.00     0.069 C 
HETATM   22  C   UNL     1     -45.891 -53.154  15.742  1.00  0.00     0.028 C 
HETATM   23  C   UNL     1     -45.842 -53.787  17.096  1.00  0.00     0.056 C 
HETATM   24  C   UNL     1     -45.099 -53.825  14.679  1.00  0.00     0.256 C 
HETATM   25  O   UNL     1     -44.743 -54.992  14.807  1.00  0.00    -0.267 OA
ENDBRANCH  15  16
ENDBRANCH   1  15
TORSDOF 7
ENDMDL
MODEL 6
REMARK VINA RESULT:      -6.1      3.292      5.294
REMARK  7 active torsions:
REMARK  status: ('A' for Active; 'I' for Inactive)
REMARK    1  A    between atoms: C_2  and  C_4 
REMARK    2  A    between atoms: C_9  and  O_10 
REMARK    3  A    between atoms: O_10  and  C_11 
REMARK    4  A    between atoms: C_11  and  C_12 
REMARK    5  A    between atoms: C_12  and  O_13 
REMARK    6  A    between atoms: C_12  and  C_14 
REMARK    7  A    between atoms: C_14  and  N_15 
ROOT
HETATM    1  C   UNL     1     -40.544 -49.770  11.571  1.00  0.00     0.161 C 
ENDROOT
BRANCH   1   2
HETATM    2  C   UNL     1     -40.069 -48.377  12.007  1.00  0.00     0.209 C 
BRANCH   2   3
HETATM    3  O   UNL     1     -40.085 -47.446  10.909  1.00  0.00    -0.348 OA
BRANCH   3   4
HETATM    4  C   UNL     1     -40.575 -46.194  11.224  1.00  0.00     0.075 A 
HETATM    5  C   UNL     1     -41.849 -45.829  10.743  1.00  0.00    -0.021 A 
HETATM    6  C   UNL     1     -42.291 -44.508  10.972  1.00  0.00     0.010 A 
HETATM    7  C   UNL     1     -41.525 -43.590  11.688  1.00  0.00     0.001 A 
HETATM    8  C   UNL     1     -40.304 -43.978  12.212  1.00  0.00     0.003 A 
HETATM    9  C   UNL     1     -39.844 -45.275  11.998  1.00  0.00     0.037 A 
BRANCH   5  10
HETATM   10  C   UNL     1     -42.756 -46.770   9.957  1.00  0.00     0.013 C 
HETATM   11  C   UNL     1     -43.638 -47.630  10.878  1.00  0.00     0.015 C 
HETATM   12  C   UNL     1     -43.664 -45.990   9.000  1.00  0.00     0.015 C 
ENDBRANCH   5  10
ENDBRANCH   3   4
ENDBRANCH   2   3
ENDBRANCH   1   2
BRANCH   1  13
HETATM   13  O   UNL     1     -40.449 -49.900  10.149  1.00  0.00    -0.392 OA
HETATM   14  H   UNL     1     -41.208 -50.443   9.862  1.00  0.00     0.210 HD
ENDBRANCH   1  13
BRANCH   1  15
HETATM   15  C   UNL     1     -39.770 -50.919  12.245  1.00  0.00     0.166 C 
BRANCH  15  16
HETATM   16  N   UNL     1     -40.632 -51.953  12.808  1.00  0.00    -0.307 N 
HETATM   17  C   UNL     1     -41.939 -52.072  12.426  1.00  0.00     0.186 C 
HETATM   18  N   UNL     1     -42.762 -52.958  12.874  1.00  0.00    -0.355 N 
HETATM   19  C   UNL     1     -42.299 -53.816  13.844  1.00  0.00     0.017 C 
ATOM     20  HN  UNL     1     -43.718 -53.020  12.524  1.00  0.00     0.166 HD
HETATM   21  C   UNL     1     -43.344 -54.728  14.432  1.00  0.00     0.069 C 
HETATM   22  C   UNL     1     -41.019 -53.852  14.257  1.00  0.00     0.028 C 
HETATM   23  C   UNL     1     -40.441 -54.692  15.350  1.00  0.00     0.056 C 
HETATM   24  C   UNL     1     -40.065 -52.970  13.537  1.00  0.00     0.256 C 
HETATM   25  O   UNL     1     -38.858 -53.184  13.585  1.00  0.00    -0.267 OA
ENDBRANCH  15  16
ENDBRANCH   1  15
TORSDOF 7
ENDMDL
MODEL 7
REMARK VINA RESULT:      -6.1      4.002      7.865
REMARK  7 active torsions:
REMARK  status: ('A' for Active; 'I' for Inactive)
REMARK    1  A    between atoms: C_2  and  C_4 
REMARK    2  A    between atoms: C_9  and  O_10 
REMARK    3  A    between atoms: O_10  and  C_11 
REMARK    4  A    between atoms: C_11  and  C_12 
REMARK    5  A    between atoms: C_12  and  O_13 
REMARK    6  A    between atoms: C_12  and  C_14 
REMARK    7  A    between atoms: C_14  and  N_15 
ROOT
HETATM    1  C   UNL     1     -40.900 -49.313  11.263  1.00  0.00     0.161 C 
ENDROOT
BRANCH   1   2
HETATM    2  C   UNL     1     -41.762 -50.274  12.094  1.00  0.00     0.209 C 
BRANCH   2   3
HETATM    3  O   UNL     1     -41.508 -51.647  11.746  1.00  0.00    -0.348 OA
BRANCH   3   4
HETATM    4  C   UNL     1     -42.170 -52.570  12.530  1.00  0.00     0.075 A 
HETATM    5  C   UNL     1     -41.423 -53.324  13.458  1.00  0.00    -0.021 A 
HETATM    6  C   UNL     1     -42.088 -54.345  14.172  1.00  0.00     0.010 A 
HETATM    7  C   UNL     1     -43.450 -54.587  14.010  1.00  0.00     0.001 A 
HETATM    8  C   UNL     1     -44.188 -53.799  13.144  1.00  0.00     0.003 A 
HETATM    9  C   UNL     1     -43.556 -52.788  12.426  1.00  0.00     0.037 A 
BRANCH   5  10
HETATM   10  C   UNL     1     -39.932 -53.121  13.704  1.00  0.00     0.013 C 
HETATM   11  C   UNL     1     -39.660 -52.088  14.811  1.00  0.00     0.015 C 
HETATM   12  C   UNL     1     -39.252 -54.440  14.090  1.00  0.00     0.015 C 
ENDBRANCH   5  10
ENDBRANCH   3   4
ENDBRANCH   2   3
ENDBRANCH   1   2
BRANCH   1  13
HETATM   13  O   UNL     1     -40.223 -50.030  10.226  1.00  0.00    -0.392 OA
HETATM   14  H   UNL     1     -40.909 -50.488   9.703  1.00  0.00     0.210 HD
ENDBRANCH   1  13
BRANCH   1  15
HETATM   15  C   UNL     1     -41.700 -48.150  10.646  1.00  0.00     0.166 C 
BRANCH  15  16
HETATM   16  N   UNL     1     -41.272 -46.835  11.110  1.00  0.00    -0.307 N 
HETATM   17  C   UNL     1     -40.107 -46.673  11.808  1.00  0.00     0.186 C 
HETATM   18  N   UNL     1     -39.660 -45.547  12.249  1.00  0.00    -0.355 N 
HETATM   19  C   UNL     1     -40.440 -44.434  12.040  1.00  0.00     0.017 C 
ATOM     20  HN  UNL     1     -38.765 -45.484  12.732  1.00  0.00     0.166 HD
HETATM   21  C   UNL     1     -39.938 -43.178  12.704  1.00  0.00     0.069 C 
HETATM   22  C   UNL     1     -41.569 -44.442  11.309  1.00  0.00     0.028 C 
HETATM   23  C   UNL     1     -42.517 -43.306  11.090  1.00  0.00     0.056 C 
HETATM   24  C   UNL     1     -41.910 -45.718  10.629  1.00  0.00     0.256 C 
HETATM   25  O   UNL     1     -42.689 -45.732   9.681  1.00  0.00    -0.267 OA
ENDBRANCH  15  16
ENDBRANCH   1  15
TORSDOF 7
ENDMDL
MODEL 8
REMARK VINA RESULT:      -6.0      2.828      5.467
REMARK  7 active torsions:
REMARK  status: ('A' for Active; 'I' for Inactive)
REMARK    1  A    between atoms: C_2  and  C_4 
REMARK    2  A    between atoms: C_9  and  O_10 
REMARK    3  A    between atoms: O_10  and  C_11 
REMARK    4  A    between atoms: C_11  and  C_12 
REMARK    5  A    between atoms: C_12  and  O_13 
REMARK    6  A    between atoms: C_12  and  C_14 
REMARK    7  A    between atoms: C_14  and  N_15 
ROOT
HETATM    1  C   UNL     1     -40.374 -50.653  11.818  1.00  0.00     0.161 C 
ENDROOT
BRANCH   1   2
HETATM    2  C   UNL     1     -41.176 -51.962  11.801  1.00  0.00     0.209 C 
BRANCH   2   3
HETATM    3  O   UNL     1     -40.498 -53.006  12.523  1.00  0.00    -0.348 OA
BRANCH   3   4
HETATM    4  C   UNL     1     -41.278 -53.661  13.455  1.00  0.00     0.075 A 
HETATM    5  C   UNL     1     -40.657 -54.174  14.612  1.00  0.00    -0.021 A 
HETATM    6  C   UNL     1     -41.441 -54.941  15.501  1.00  0.00     0.010 A 
HETATM    7  C   UNL     1     -42.800 -55.159  15.282  1.00  0.00     0.001 A 
HETATM    8  C   UNL     1     -43.414 -54.598  14.176  1.00  0.00     0.003 A 
HETATM    9  C   UNL     1     -42.663 -53.839  13.282  1.00  0.00     0.037 A 
BRANCH   5  10
HETATM   10  C   UNL     1     -39.179 -53.977  14.935  1.00  0.00     0.013 C 
HETATM   11  C   UNL     1     -38.938 -52.745  15.824  1.00  0.00     0.015 C 
HETATM   12  C   UNL     1     -38.600 -55.208  15.639  1.00  0.00     0.015 C 
ENDBRANCH   5  10
ENDBRANCH   3   4
ENDBRANCH   2   3
ENDBRANCH   1   2
BRANCH   1  13
HETATM   13  O   UNL     1     -40.252 -50.133  10.490  1.00  0.00    -0.392 OA
HETATM   14  H   UNL     1     -40.496 -49.188  10.531  1.00  0.00     0.210 HD
ENDBRANCH   1  13
BRANCH   1  15
HETATM   15  C   UNL     1     -40.982 -49.576  12.737  1.00  0.00     0.166 C 
BRANCH  15  16
HETATM   16  N   UNL     1     -41.873 -50.114  13.759  1.00  0.00    -0.307 N 
HETATM   17  C   UNL     1     -41.422 -50.389  15.020  1.00  0.00     0.186 C 
HETATM   18  N   UNL     1     -42.146 -50.864  15.976  1.00  0.00    -0.355 N 
HETATM   19  C   UNL     1     -43.458 -51.157  15.689  1.00  0.00     0.017 C 
ATOM     20  HN  UNL     1     -41.761 -51.015  16.908  1.00  0.00     0.166 HD
HETATM   21  C   UNL     1     -44.210 -51.843  16.799  1.00  0.00     0.069 C 
HETATM   22  C   UNL     1     -44.045 -50.869  14.513  1.00  0.00     0.028 C 
HETATM   23  C   UNL     1     -45.435 -51.215  14.083  1.00  0.00     0.056 C 
HETATM   24  C   UNL     1     -43.228 -50.110  13.532  1.00  0.00     0.256 C 
HETATM   25  O   UNL     1     -43.763 -49.502  12.610  1.00  0.00    -0.267 OA
ENDBRANCH  15  16
ENDBRANCH   1  15
TORSDOF 7
ENDMDL
MODEL 9
REMARK VINA RESULT:      -5.9      3.198      6.846
REMARK  7 active torsions:
REMARK  status: ('A' for Active; 'I' for Inactive)
REMARK    1  A    between atoms: C_2  and  C_4 
REMARK    2  A    between atoms: C_9  and  O_10 
REMARK    3  A    between atoms: O_10  and  C_11 
REMARK    4  A    between atoms: C_11  and  C_12 
REMARK    5  A    between atoms: C_12  and  O_13 
REMARK    6  A    between atoms: C_12  and  C_14 
REMARK    7  A    between atoms: C_14  and  N_15 
ROOT
HETATM    1  C   UNL     1     -41.178 -52.429  12.357  1.00  0.00     0.161 C 
ENDROOT
BRANCH   1   2
HETATM    2  C   UNL     1     -42.687 -52.261  12.582  1.00  0.00     0.209 C 
BRANCH   2   3
HETATM    3  O   UNL     1     -42.970 -51.709  13.881  1.00  0.00    -0.348 OA
BRANCH   3   4
HETATM    4  C   UNL     1     -44.247 -51.954  14.343  1.00  0.00     0.075 A 
HETATM    5  C   UNL     1     -44.436 -52.989  15.282  1.00  0.00    -0.021 A 
HETATM    6  C   UNL     1     -45.758 -53.307  15.661  1.00  0.00     0.010 A 
HETATM    7  C   UNL     1     -46.854 -52.603  15.167  1.00  0.00     0.001 A 
HETATM    8  C   UNL     1     -46.654 -51.547  14.296  1.00  0.00     0.003 A 
HETATM    9  C   UNL     1     -45.359 -51.214  13.904  1.00  0.00     0.037 A 
BRANCH   5  10
HETATM   10  C   UNL     1     -43.295 -53.805  15.880  1.00  0.00     0.013 C 
HETATM   11  C   UNL     1     -43.612 -54.293  17.303  1.00  0.00     0.015 C 
HETATM   12  C   UNL     1     -42.972 -55.023  15.007  1.00  0.00     0.015 C 
ENDBRANCH   5  10
ENDBRANCH   3   4
ENDBRANCH   2   3
ENDBRANCH   1   2
BRANCH   1  13
HETATM   13  O   UNL     1     -40.784 -51.771  11.148  1.00  0.00    -0.392 OA
HETATM   14  H   UNL     1     -41.281 -52.193  10.420  1.00  0.00     0.210 HD
ENDBRANCH   1  13
BRANCH   1  15
HETATM   15  C   UNL     1     -40.323 -51.907  13.527  1.00  0.00     0.166 C 
BRANCH  15  16
HETATM   16  N   UNL     1     -39.840 -52.961  14.414  1.00  0.00    -0.307 N 
HETATM   17  C   UNL     1     -39.177 -54.051  13.923  1.00  0.00     0.186 C 
HETATM   18  N   UNL     1     -38.719 -55.021  14.640  1.00  0.00    -0.355 N 
HETATM   19  C   UNL     1     -38.959 -54.974  15.993  1.00  0.00     0.017 C 
ATOM     20  HN  UNL     1     -38.199 -55.791  14.220  1.00  0.00     0.166 HD
HETATM   21  C   UNL     1     -38.531 -56.201  16.753  1.00  0.00     0.069 C 
HETATM   22  C   UNL     1     -39.535 -53.927  16.611  1.00  0.00     0.028 C 
HETATM   23  C   UNL     1     -39.904 -53.816  18.056  1.00  0.00     0.056 C 
HETATM   24  C   UNL     1     -39.829 -52.739  15.769  1.00  0.00     0.256 C 
HETATM   25  O   UNL     1     -40.010 -51.639  16.282  1.00  0.00    -0.267 OA
ENDBRANCH  15  16
ENDBRANCH   1  15
TORSDOF 7
ENDMDL
