MODEL 1
REMARK VINA RESULT:      -6.2      0.000      0.000
REMARK  5 active torsions:
REMARK  status: ('A' for Active; 'I' for Inactive)
REMARK    1  A    between atoms: C_2  and  N_3 
REMARK    2  A    between atoms: C_5  and  N_6 
REMARK       I    between atoms: N_6  and  C_7 
REMARK       I    between atoms: C_7  and  N_9 
REMARK    3  A    between atoms: N_9  and  C_10 
REMARK    4  A    between atoms: C_10  and  C_11 
REMARK    5  A    between atoms: C_11  and  N_12 
ROOT
HETATM    1  N   UNL     1     -40.700 -48.456  10.936  1.00  0.00    -0.306 N 
HETATM    2  C   UNL     1     -40.422 -49.766  11.205  1.00  0.00     0.320 C 
HETATM    3  O   UNL     1     -39.250 -50.126  11.313  1.00  0.00    -0.247 OA
HETATM    4  N   UNL     1     -41.487 -50.565  11.508  1.00  0.00    -0.341 N 
HETATM    5  H   UNL     1     -39.921 -47.846  11.153  1.00  0.00     0.171 HD
HETATM    6  H   UNL     1     -42.412 -50.233  11.287  1.00  0.00     0.164 HD
ENDROOT
BRANCH   1   7
HETATM    7  C   UNL     1     -41.931 -47.879  10.710  1.00  0.00     0.070 A 
HETATM    8  C   UNL     1     -42.605 -47.787   9.518  1.00  0.00     0.141 A 
HETATM    9  N   UNL     1     -43.752 -47.097   9.785  1.00  0.00    -0.302 N 
HETATM   10  N   UNL     1     -43.877 -46.751  11.081  1.00  0.00    -0.308 N 
HETATM   11  C   UNL     1     -42.744 -47.192  11.633  1.00  0.00     0.138 A 
ATOM     12  HN  UNL     1     -44.653 -46.268  11.533  1.00  0.00     0.186 HD
BRANCH   9  13
HETATM   13  C   UNL     1     -44.760 -46.691   8.825  1.00  0.00     0.143 C 
HETATM   14  C   UNL     1     -46.137 -47.226   9.175  1.00  0.00     0.028 C 
ENDBRANCH   9  13
ENDBRANCH   1   7
BRANCH   4  15
HETATM   15  C   UNL     1     -41.361 -51.909  12.044  1.00  0.00     0.154 C 
BRANCH  15  16
HETATM   16  C   UNL     1     -42.716 -52.626  12.238  1.00  0.00     0.292 C 
BRANCH  16  17
HETATM   17  N   UNL     1     -43.317 -52.454  13.576  1.00  0.00     0.094 N 
HETATM   18  C   UNL     1     -42.452 -52.918  14.673  1.00  0.00     0.273 C 
HETATM   19  C   UNL     1     -42.313 -54.440  14.746  1.00  0.00     0.030 C 
HETATM   20  C   UNL     1     -43.676 -55.119  14.818  1.00  0.00     0.004 C 
HETATM   21  C   UNL     1     -44.615 -54.604  13.729  1.00  0.00     0.035 C 
HETATM   22  C   UNL     1     -44.662 -53.066  13.712  1.00  0.00     0.219 C 
HETATM   23  C   UNL     1     -45.682 -52.564  12.682  1.00  0.00     0.043 C 
ENDBRANCH  16  17
ENDBRANCH  15  16
ENDBRANCH   4  15
TORSDOF 5
ENDMDL
MODEL 2
REMARK VINA RESULT:      -6.1      1.752      2.488
REMARK  5 active torsions:
REMARK  status: ('A' for Active; 'I' for Inactive)
REMARK    1  A    between atoms: C_2  and  N_3 
REMARK    2  A    between atoms: C_5  and  N_6 
REMARK       I    between atoms: N_6  and  C_7 
REMARK       I    between atoms: C_7  and  N_9 
REMARK    3  A    between atoms: N_9  and  C_10 
REMARK    4  A    between atoms: C_10  and  C_11 
REMARK    5  A    between atoms: C_11  and  N_12 
ROOT
HETATM    1  N   UNL     1     -41.984 -46.813  10.130  1.00  0.00    -0.306 N 
HETATM    2  C   UNL     1     -40.988 -47.590  10.648  1.00  0.00     0.320 C 
HETATM    3  O   UNL     1     -40.039 -47.055  11.221  1.00  0.00    -0.247 OA
HETATM    4  N   UNL     1     -41.203 -48.938  10.645  1.00  0.00    -0.341 N 
HETATM    5  H   UNL     1     -41.996 -45.883  10.533  1.00  0.00     0.171 HD
HETATM    6  H   UNL     1     -41.939 -49.303  10.062  1.00  0.00     0.164 HD
ENDROOT
BRANCH   1   7
HETATM    7  C   UNL     1     -43.081 -47.215   9.398  1.00  0.00     0.070 A 
HETATM    8  C   UNL     1     -44.368 -47.383   9.845  1.00  0.00     0.141 A 
HETATM    9  N   UNL     1     -45.084 -47.832   8.773  1.00  0.00    -0.302 N 
HETATM   10  N   UNL     1     -44.348 -47.949   7.651  1.00  0.00    -0.308 N 
HETATM   11  C   UNL     1     -43.118 -47.614   8.048  1.00  0.00     0.138 A 
ATOM     12  HN  UNL     1     -44.657 -48.227   6.720  1.00  0.00     0.186 HD
BRANCH   9  13
HETATM   13  C   UNL     1     -46.482 -48.217   8.767  1.00  0.00     0.143 C 
HETATM   14  C   UNL     1     -46.777 -49.298   7.744  1.00  0.00     0.028 C 
ENDBRANCH   9  13
ENDBRANCH   1   7
BRANCH   4  15
HETATM   15  C   UNL     1     -40.372 -49.890  11.361  1.00  0.00     0.154 C 
BRANCH  15  16
HETATM   16  C   UNL     1     -41.107 -51.200  11.726  1.00  0.00     0.292 C 
BRANCH  16  17
HETATM   17  N   UNL     1     -41.204 -51.466  13.175  1.00  0.00     0.094 N 
HETATM   18  C   UNL     1     -40.329 -52.559  13.632  1.00  0.00     0.273 C 
HETATM   19  C   UNL     1     -40.786 -53.946  13.174  1.00  0.00     0.030 C 
HETATM   20  C   UNL     1     -42.232 -54.215  13.580  1.00  0.00     0.004 C 
HETATM   21  C   UNL     1     -43.149 -53.062  13.175  1.00  0.00     0.035 C 
HETATM   22  C   UNL     1     -42.589 -51.709  13.648  1.00  0.00     0.219 C 
HETATM   23  C   UNL     1     -43.567 -50.573  13.324  1.00  0.00     0.043 C 
ENDBRANCH  16  17
ENDBRANCH  15  16
ENDBRANCH   4  15
TORSDOF 5
ENDMDL
MODEL 3
REMARK VINA RESULT:      -6.1      1.298      2.281
REMARK  5 active torsions:
REMARK  status: ('A' for Active; 'I' for Inactive)
REMARK    1  A    between atoms: C_2  and  N_3 
REMARK    2  A    between atoms: C_5  and  N_6 
REMARK       I    between atoms: N_6  and  C_7 
REMARK       I    between atoms: C_7  and  N_9 
REMARK    3  A    between atoms: N_9  and  C_10 
REMARK    4  A    between atoms: C_10  and  C_11 
REMARK    5  A    between atoms: C_11  and  N_12 
ROOT
HETATM    1  N   UNL     1     -40.750 -48.500  10.928  1.00  0.00    -0.306 N 
HETATM    2  C   UNL     1     -40.788 -49.792  11.371  1.00  0.00     0.320 C 
HETATM    3  O   UNL     1     -39.737 -50.420  11.491  1.00  0.00    -0.247 OA
HETATM    4  N   UNL     1     -41.994 -50.247  11.819  1.00  0.00    -0.341 N 
HETATM    5  H   UNL     1     -39.832 -48.085  11.030  1.00  0.00     0.171 HD
HETATM    6  H   UNL     1     -42.821 -49.722  11.583  1.00  0.00     0.164 HD
ENDROOT
BRANCH   1   7
HETATM    7  C   UNL     1     -41.813 -47.663  10.662  1.00  0.00     0.070 A 
HETATM    8  C   UNL     1     -42.670 -47.714   9.590  1.00  0.00     0.141 A 
HETATM    9  N   UNL     1     -43.523 -46.659   9.740  1.00  0.00    -0.302 N 
HETATM   10  N   UNL     1     -43.289 -45.936  10.851  1.00  0.00    -0.308 N 
HETATM   11  C   UNL     1     -42.217 -46.526  11.387  1.00  0.00     0.138 A 
ATOM     12  HN  UNL     1     -43.806 -45.131  11.200  1.00  0.00     0.186 HD
BRANCH   9  13
HETATM   13  C   UNL     1     -44.568 -46.256   8.818  1.00  0.00     0.143 C 
HETATM   14  C   UNL     1     -45.880 -46.969   9.089  1.00  0.00     0.028 C 
ENDBRANCH   9  13
ENDBRANCH   1   7
BRANCH   4  15
HETATM   15  C   UNL     1     -42.169 -51.498  12.537  1.00  0.00     0.154 C 
BRANCH  15  16
HETATM   16  C   UNL     1     -43.087 -51.376  13.774  1.00  0.00     0.292 C 
BRANCH  16  17
HETATM   17  N   UNL     1     -44.022 -52.505  13.959  1.00  0.00     0.094 N 
HETATM   18  C   UNL     1     -45.021 -52.622  12.883  1.00  0.00     0.273 C 
HETATM   19  C   UNL     1     -46.081 -51.519  12.905  1.00  0.00     0.030 C 
HETATM   20  C   UNL     1     -46.768 -51.437  14.264  1.00  0.00     0.004 C 
HETATM   21  C   UNL     1     -45.750 -51.381  15.401  1.00  0.00     0.035 C 
HETATM   22  C   UNL     1     -44.707 -52.506  15.274  1.00  0.00     0.219 C 
HETATM   23  C   UNL     1     -43.752 -52.500  16.474  1.00  0.00     0.043 C 
ENDBRANCH  16  17
ENDBRANCH  15  16
ENDBRANCH   4  15
TORSDOF 5
ENDMDL
MODEL 4
REMARK VINA RESULT:      -5.8      1.609      2.160
REMARK  5 active torsions:
REMARK  status: ('A' for Active; 'I' for Inactive)
REMARK    1  A    between atoms: C_2  and  N_3 
REMARK    2  A    between atoms: C_5  and  N_6 
REMARK       I    between atoms: N_6  and  C_7 
REMARK       I    between atoms: C_7  and  N_9 
REMARK    3  A    between atoms: N_9  and  C_10 
REMARK    4  A    between atoms: C_10  and  C_11 
REMARK    5  A    between atoms: C_11  and  N_12 
ROOT
HETATM    1  N   UNL     1     -40.940 -49.333  11.786  1.00  0.00    -0.306 N 
HETATM    2  C   UNL     1     -41.063 -50.667  12.048  1.00  0.00     0.320 C 
HETATM    3  O   UNL     1     -40.086 -51.296  12.457  1.00  0.00    -0.247 OA
HETATM    4  N   UNL     1     -42.325 -51.184  11.999  1.00  0.00    -0.341 N 
HETATM    5  H   UNL     1     -40.134 -48.923  12.244  1.00  0.00     0.171 HD
HETATM    6  H   UNL     1     -43.046 -50.643  11.549  1.00  0.00     0.164 HD
ENDROOT
BRANCH   1   7
HETATM    7  C   UNL     1     -41.887 -48.481  11.260  1.00  0.00     0.070 A 
HETATM    8  C   UNL     1     -42.030 -48.096   9.950  1.00  0.00     0.141 A 
HETATM    9  N   UNL     1     -43.073 -47.215   9.927  1.00  0.00    -0.302 N 
HETATM   10  N   UNL     1     -43.631 -47.018  11.137  1.00  0.00    -0.308 N 
HETATM   11  C   UNL     1     -42.876 -47.757  11.954  1.00  0.00     0.138 A 
ATOM     12  HN  UNL     1     -44.437 -46.440  11.373  1.00  0.00     0.186 HD
BRANCH   9  13
HETATM   13  C   UNL     1     -43.562 -46.484   8.774  1.00  0.00     0.143 C 
HETATM   14  C   UNL     1     -45.006 -46.048   8.940  1.00  0.00     0.028 C 
ENDBRANCH   9  13
ENDBRANCH   1   7
BRANCH   4  15
HETATM   15  C   UNL     1     -42.673 -52.512  12.474  1.00  0.00     0.154 C 
BRANCH  15  16
HETATM   16  C   UNL     1     -44.005 -52.559  13.256  1.00  0.00     0.292 C 
BRANCH  16  17
HETATM   17  N   UNL     1     -44.686 -51.256  13.389  1.00  0.00     0.094 N 
HETATM   18  C   UNL     1     -44.312 -50.519  14.607  1.00  0.00     0.273 C 
HETATM   19  C   UNL     1     -44.870 -51.132  15.894  1.00  0.00     0.030 C 
HETATM   20  C   UNL     1     -46.384 -51.302  15.816  1.00  0.00     0.004 C 
HETATM   21  C   UNL     1     -46.801 -52.006  14.527  1.00  0.00     0.035 C 
HETATM   22  C   UNL     1     -46.164 -51.340  13.294  1.00  0.00     0.219 C 
HETATM   23  C   UNL     1     -46.669 -51.993  12.001  1.00  0.00     0.043 C 
ENDBRANCH  16  17
ENDBRANCH  15  16
ENDBRANCH   4  15
TORSDOF 5
ENDMDL
MODEL 5
REMARK VINA RESULT:      -5.8      1.484      2.437
REMARK  5 active torsions:
REMARK  status: ('A' for Active; 'I' for Inactive)
REMARK    1  A    between atoms: C_2  and  N_3 
REMARK    2  A    between atoms: C_5  and  N_6 
REMARK       I    between atoms: N_6  and  C_7 
REMARK       I    between atoms: C_7  and  N_9 
REMARK    3  A    between atoms: N_9  and  C_10 
REMARK    4  A    between atoms: C_10  and  C_11 
REMARK    5  A    between atoms: C_11  and  N_12 
ROOT
HETATM    1  N   UNL     1     -40.386 -49.551  11.816  1.00  0.00    -0.306 N 
HETATM    2  C   UNL     1     -40.719 -50.862  12.001  1.00  0.00     0.320 C 
HETATM    3  O   UNL     1     -39.841 -51.674  12.294  1.00  0.00    -0.247 OA
HETATM    4  N   UNL     1     -42.052 -51.155  12.017  1.00  0.00    -0.341 N 
HETATM    5  H   UNL     1     -39.493 -49.318  12.235  1.00  0.00     0.171 HD
HETATM    6  H   UNL     1     -42.697 -50.469  11.658  1.00  0.00     0.164 HD
ENDROOT
BRANCH   1   7
HETATM    7  C   UNL     1     -41.204 -48.515  11.419  1.00  0.00     0.070 A 
HETATM    8  C   UNL     1     -41.792 -48.337  10.191  1.00  0.00     0.141 A 
HETATM    9  N   UNL     1     -42.467 -47.154  10.264  1.00  0.00    -0.302 N 
HETATM   10  N   UNL     1     -42.372 -46.558  11.468  1.00  0.00    -0.308 N 
HETATM   11  C   UNL     1     -41.565 -47.370  12.155  1.00  0.00     0.138 A 
ATOM     12  HN  UNL     1     -42.812 -45.694  11.781  1.00  0.00     0.186 HD
BRANCH   9  13
HETATM   13  C   UNL     1     -43.194 -46.505   9.189  1.00  0.00     0.143 C 
HETATM   14  C   UNL     1     -43.665 -47.492   8.137  1.00  0.00     0.028 C 
ENDBRANCH   9  13
ENDBRANCH   1   7
BRANCH   4  15
HETATM   15  C   UNL     1     -42.592 -52.438  12.432  1.00  0.00     0.154 C 
BRANCH  15  16
HETATM   16  C   UNL     1     -43.740 -52.322  13.460  1.00  0.00     0.292 C 
BRANCH  16  17
HETATM   17  N   UNL     1     -44.990 -53.001  13.064  1.00  0.00     0.094 N 
HETATM   18  C   UNL     1     -46.100 -52.073  12.787  1.00  0.00     0.273 C 
HETATM   19  C   UNL     1     -46.664 -51.396  14.039  1.00  0.00     0.030 C 
HETATM   20  C   UNL     1     -47.077 -52.425  15.086  1.00  0.00     0.004 C 
HETATM   21  C   UNL     1     -45.965 -53.440  15.342  1.00  0.00     0.035 C 
HETATM   22  C   UNL     1     -45.440 -54.038  14.024  1.00  0.00     0.219 C 
HETATM   23  C   UNL     1     -44.395 -55.126  14.300  1.00  0.00     0.043 C 
ENDBRANCH  16  17
ENDBRANCH  15  16
ENDBRANCH   4  15
TORSDOF 5
ENDMDL
MODEL 6
REMARK VINA RESULT:      -5.7      2.144      3.390
REMARK  5 active torsions:
REMARK  status: ('A' for Active; 'I' for Inactive)
REMARK    1  A    between atoms: C_2  and  N_3 
REMARK    2  A    between atoms: C_5  and  N_6 
REMARK       I    between atoms: N_6  and  C_7 
REMARK       I    between atoms: C_7  and  N_9 
REMARK    3  A    between atoms: N_9  and  C_10 
REMARK    4  A    between atoms: C_10  and  C_11 
REMARK    5  A    between atoms: C_11  and  N_12 
ROOT
HETATM    1  N   UNL     1     -40.750 -50.412  11.109  1.00  0.00    -0.306 N 
HETATM    2  C   UNL     1     -41.314 -51.163  12.100  1.00  0.00     0.320 C 
HETATM    3  O   UNL     1     -41.246 -52.391  12.040  1.00  0.00    -0.247 OA
HETATM    4  N   UNL     1     -41.773 -50.486  13.192  1.00  0.00    -0.341 N 
HETATM    5  H   UNL     1     -40.064 -50.932  10.574  1.00  0.00     0.171 HD
HETATM    6  H   UNL     1     -41.899 -49.489  13.118  1.00  0.00     0.164 HD
ENDROOT
BRANCH   1   7
HETATM    7  C   UNL     1     -40.782 -49.042  10.960  1.00  0.00     0.070 A 
HETATM    8  C   UNL     1     -39.920 -48.121  11.503  1.00  0.00     0.141 A 
HETATM    9  N   UNL     1     -40.381 -46.897  11.112  1.00  0.00    -0.302 N 
HETATM   10  N   UNL     1     -41.477 -46.964  10.332  1.00  0.00    -0.308 N 
HETATM   11  C   UNL     1     -41.744 -48.271  10.279  1.00  0.00     0.138 A 
ATOM     12  HN  UNL     1     -41.982 -46.198   9.889  1.00  0.00     0.186 HD
BRANCH   9  13
HETATM   13  C   UNL     1     -39.837 -45.607  11.493  1.00  0.00     0.143 C 
HETATM   14  C   UNL     1     -39.679 -44.676  10.305  1.00  0.00     0.028 C 
ENDBRANCH   9  13
ENDBRANCH   1   7
BRANCH   4  15
HETATM   15  C   UNL     1     -42.182 -51.129  14.428  1.00  0.00     0.154 C 
BRANCH  15  16
HETATM   16  C   UNL     1     -43.676 -50.926  14.766  1.00  0.00     0.292 C 
BRANCH  16  17
HETATM   17  N   UNL     1     -44.445 -52.176  14.924  1.00  0.00     0.094 N 
HETATM   18  C   UNL     1     -44.200 -53.157  13.854  1.00  0.00     0.273 C 
HETATM   19  C   UNL     1     -44.802 -52.759  12.504  1.00  0.00     0.030 C 
HETATM   20  C   UNL     1     -46.293 -52.465  12.627  1.00  0.00     0.004 C 
HETATM   21  C   UNL     1     -46.580 -51.500  13.776  1.00  0.00     0.035 C 
HETATM   22  C   UNL     1     -45.906 -51.966  15.079  1.00  0.00     0.219 C 
HETATM   23  C   UNL     1     -46.282 -51.044  16.246  1.00  0.00     0.043 C 
ENDBRANCH  16  17
ENDBRANCH  15  16
ENDBRANCH   4  15
TORSDOF 5
ENDMDL
MODEL 7
REMARK VINA RESULT:      -5.5      2.032      2.901
REMARK  5 active torsions:
REMARK  status: ('A' for Active; 'I' for Inactive)
REMARK    1  A    between atoms: C_2  and  N_3 
REMARK    2  A    between atoms: C_5  and  N_6 
REMARK       I    between atoms: N_6  and  C_7 
REMARK       I    between atoms: C_7  and  N_9 
REMARK    3  A    between atoms: N_9  and  C_10 
REMARK    4  A    between atoms: C_10  and  C_11 
REMARK    5  A    between atoms: C_11  and  N_12 
ROOT
HETATM    1  N   UNL     1     -42.384 -47.564  13.160  1.00  0.00    -0.306 N 
HETATM    2  C   UNL     1     -42.754 -48.507  14.076  1.00  0.00     0.320 C 
HETATM    3  O   UNL     1     -42.576 -48.290  15.274  1.00  0.00    -0.247 OA
HETATM    4  N   UNL     1     -43.464 -49.572  13.600  1.00  0.00    -0.341 N 
HETATM    5  H   UNL     1     -42.275 -46.646  13.576  1.00  0.00     0.171 HD
HETATM    6  H   UNL     1     -43.470 -49.737  12.607  1.00  0.00     0.164 HD
ENDROOT
BRANCH   1   7
HETATM    7  C   UNL     1     -42.435 -47.650  11.786  1.00  0.00     0.070 A 
HETATM    8  C   UNL     1     -43.367 -47.092  10.947  1.00  0.00     0.141 A 
HETATM    9  N   UNL     1     -43.026 -47.488   9.686  1.00  0.00    -0.302 N 
HETATM   10  N   UNL     1     -41.918 -48.253   9.649  1.00  0.00    -0.308 N 
HETATM   11  C   UNL     1     -41.586 -48.386  10.935  1.00  0.00     0.138 A 
ATOM     12  HN  UNL     1     -41.445 -48.639   8.833  1.00  0.00     0.186 HD
BRANCH   9  13
HETATM   13  C   UNL     1     -43.753 -47.204   8.464  1.00  0.00     0.143 C 
HETATM   14  C   UNL     1     -43.422 -48.187   7.356  1.00  0.00     0.028 C 
ENDBRANCH   9  13
ENDBRANCH   1   7
BRANCH   4  15
HETATM   15  C   UNL     1     -44.137 -50.538  14.451  1.00  0.00     0.154 C 
BRANCH  15  16
HETATM   16  C   UNL     1     -43.427 -51.910  14.509  1.00  0.00     0.292 C 
BRANCH  16  17
HETATM   17  N   UNL     1     -43.571 -52.728  13.288  1.00  0.00     0.094 N 
HETATM   18  C   UNL     1     -44.959 -52.820  12.803  1.00  0.00     0.273 C 
HETATM   19  C   UNL     1     -45.866 -53.677  13.688  1.00  0.00     0.030 C 
HETATM   20  C   UNL     1     -45.281 -55.069  13.898  1.00  0.00     0.004 C 
HETATM   21  C   UNL     1     -43.820 -55.001  14.338  1.00  0.00     0.035 C 
HETATM   22  C   UNL     1     -42.998 -54.091  13.409  1.00  0.00     0.219 C 
HETATM   23  C   UNL     1     -41.515 -54.110  13.802  1.00  0.00     0.043 C 
ENDBRANCH  16  17
ENDBRANCH  15  16
ENDBRANCH   4  15
TORSDOF 5
ENDMDL
MODEL 8
REMARK VINA RESULT:      -5.5      2.572      3.542
REMARK  5 active torsions:
REMARK  status: ('A' for Active; 'I' for Inactive)
REMARK    1  A    between atoms: C_2  and  N_3 
REMARK    2  A    between atoms: C_5  and  N_6 
REMARK       I    between atoms: N_6  and  C_7 
REMARK       I    between atoms: C_7  and  N_9 
REMARK    3  A    between atoms: N_9  and  C_10 
REMARK    4  A    between atoms: C_10  and  C_11 
REMARK    5  A    between atoms: C_11  and  N_12 
ROOT
HETATM    1  N   UNL     1     -39.901 -51.119  11.571  1.00  0.00    -0.306 N 
HETATM    2  C   UNL     1     -40.668 -52.002  12.276  1.00  0.00     0.320 C 
HETATM    3  O   UNL     1     -40.332 -53.185  12.332  1.00  0.00    -0.247 OA
HETATM    4  N   UNL     1     -41.679 -51.470  13.022  1.00  0.00    -0.341 N 
HETATM    5  H   UNL     1     -38.962 -51.465  11.414  1.00  0.00     0.171 HD
HETATM    6  H   UNL     1     -41.963 -50.522  12.836  1.00  0.00     0.164 HD
ENDROOT
BRANCH   1   7
HETATM    7  C   UNL     1     -40.146 -49.784  11.334  1.00  0.00     0.070 A 
HETATM    8  C   UNL     1     -39.529 -48.703  11.914  1.00  0.00     0.141 A 
HETATM    9  N   UNL     1     -40.138 -47.597  11.395  1.00  0.00    -0.302 N 
HETATM   10  N   UNL     1     -41.100 -47.889  10.499  1.00  0.00    -0.308 N 
HETATM   11  C   UNL     1     -41.132 -49.224  10.497  1.00  0.00     0.138 A 
ATOM     12  HN  UNL     1     -41.668 -47.244   9.951  1.00  0.00     0.186 HD
BRANCH   9  13
HETATM   13  C   UNL     1     -39.875 -46.217  11.754  1.00  0.00     0.143 C 
HETATM   14  C   UNL     1     -39.916 -45.292  10.552  1.00  0.00     0.028 C 
ENDBRANCH   9  13
ENDBRANCH   1   7
BRANCH   4  15
HETATM   15  C   UNL     1     -42.438 -52.222  14.007  1.00  0.00     0.154 C 
BRANCH  15  16
HETATM   16  C   UNL     1     -43.933 -52.375  13.650  1.00  0.00     0.292 C 
BRANCH  16  17
HETATM   17  N   UNL     1     -44.715 -51.125  13.730  1.00  0.00     0.094 N 
HETATM   18  C   UNL     1     -44.451 -50.343  14.950  1.00  0.00     0.273 C 
HETATM   19  C   UNL     1     -45.016 -50.977  16.223  1.00  0.00     0.030 C 
HETATM   20  C   UNL     1     -46.507 -51.262  16.085  1.00  0.00     0.004 C 
HETATM   21  C   UNL     1     -46.816 -52.015  14.792  1.00  0.00     0.035 C 
HETATM   22  C   UNL     1     -46.177 -51.322  13.575  1.00  0.00     0.219 C 
HETATM   23  C   UNL     1     -46.576 -52.031  12.275  1.00  0.00     0.043 C 
ENDBRANCH  16  17
ENDBRANCH  15  16
ENDBRANCH   4  15
TORSDOF 5
ENDMDL
MODEL 9
REMARK VINA RESULT:      -5.2      1.732      2.224
REMARK  5 active torsions:
REMARK  status: ('A' for Active; 'I' for Inactive)
REMARK    1  A    between atoms: C_2  and  N_3 
REMARK    2  A    between atoms: C_5  and  N_6 
REMARK       I    between atoms: N_6  and  C_7 
REMARK       I    between atoms: C_7  and  N_9 
REMARK    3  A    between atoms: N_9  and  C_10 
REMARK    4  A    between atoms: C_10  and  C_11 
REMARK    5  A    between atoms: C_11  and  N_12 
ROOT
HETATM    1  N   UNL     1     -40.683 -47.519  10.651  1.00  0.00    -0.306 N 
HETATM    2  C   UNL     1     -40.383 -48.513  11.538  1.00  0.00     0.320 C 
HETATM    3  O   UNL     1     -39.207 -48.836  11.708  1.00  0.00    -0.247 OA
HETATM    4  N   UNL     1     -41.409 -48.968  12.313  1.00  0.00    -0.341 N 
HETATM    5  H   UNL     1     -39.882 -46.935  10.441  1.00  0.00     0.171 HD
HETATM    6  H   UNL     1     -42.352 -48.743  12.039  1.00  0.00     0.164 HD
ENDROOT
BRANCH   1   7
HETATM    7  C   UNL     1     -41.929 -47.068  10.272  1.00  0.00     0.070 A 
HETATM    8  C   UNL     1     -42.835 -47.699   9.457  1.00  0.00     0.141 A 
HETATM    9  N   UNL     1     -43.896 -46.848   9.341  1.00  0.00    -0.302 N 
HETATM   10  N   UNL     1     -43.746 -45.710  10.045  1.00  0.00    -0.308 N 
HETATM   11  C   UNL     1     -42.527 -45.829  10.576  1.00  0.00     0.138 A 
ATOM     12  HN  UNL     1     -44.407 -44.941  10.149  1.00  0.00     0.186 HD
BRANCH   9  13
HETATM   13  C   UNL     1     -45.078 -47.046   8.524  1.00  0.00     0.143 C 
HETATM   14  C   UNL     1     -46.326 -47.259   9.360  1.00  0.00     0.028 C 
ENDBRANCH   9  13
ENDBRANCH   1   7
BRANCH   4  15
HETATM   15  C   UNL     1     -41.230 -49.842  13.460  1.00  0.00     0.154 C 
BRANCH  15  16
HETATM   16  C   UNL     1     -41.346 -51.344  13.117  1.00  0.00     0.292 C 
BRANCH  16  17
HETATM   17  N   UNL     1     -41.432 -52.237  14.290  1.00  0.00     0.094 N 
HETATM   18  C   UNL     1     -40.203 -52.261  15.101  1.00  0.00     0.273 C 
HETATM   19  C   UNL     1     -39.033 -52.979  14.427  1.00  0.00     0.030 C 
HETATM   20  C   UNL     1     -39.420 -54.392  14.004  1.00  0.00     0.004 C 
HETATM   21  C   UNL     1     -40.728 -54.402  13.216  1.00  0.00     0.035 C 
HETATM   22  C   UNL     1     -41.832 -53.626  13.957  1.00  0.00     0.219 C 
HETATM   23  C   UNL     1     -43.165 -53.727  13.205  1.00  0.00     0.043 C 
ENDBRANCH  16  17
ENDBRANCH  15  16
ENDBRANCH   4  15
TORSDOF 5
ENDMDL
