MODEL 1
REMARK VINA RESULT:      -5.7      0.000      0.000
REMARK  4 active torsions:
REMARK  status: ('A' for Active; 'I' for Inactive)
REMARK    1  A    between atoms: C_2  and  C_4 
REMARK    2  A    between atoms: N_9  and  C_10 
REMARK    3  A    between atoms: C_10  and  C_11 
REMARK       I    between atoms: C_11  and  N_13 
REMARK       I    between atoms: N_13  and  C_14 
REMARK       I    between atoms: C_14  and  N_16 
REMARK    4  A    between atoms: N_16  and  C_17 
ROOT
HETATM    1  C   UNL     1     -41.996 -53.018  13.091  1.00  0.00     0.243 C 
HETATM    2  O   UNL     1     -41.440 -54.101  12.942  1.00  0.00    -0.271 OA
HETATM    3  N   UNL     1     -41.696 -51.975  12.228  1.00  0.00    -0.278 N 
HETATM    4  C   UNL     1     -42.262 -50.726  12.236  1.00  0.00     0.323 C 
HETATM    5  O   UNL     1     -43.228 -50.419  12.924  1.00  0.00    -0.247 OA
HETATM    6  N   UNL     1     -41.631 -49.803  11.433  1.00  0.00    -0.338 N 
HETATM    7  H   UNL     1     -41.003 -52.204  11.530  1.00  0.00     0.173 HD
HETATM    8  H   UNL     1     -41.031 -50.111  10.682  1.00  0.00     0.164 HD
ENDROOT
BRANCH   1   9
HETATM    9  C   UNL     1     -43.005 -52.707  14.192  1.00  0.00     0.232 C 
BRANCH   9  10
HETATM   10  N   UNL     1     -44.195 -53.539  14.209  1.00  0.00    -0.336 N 
HETATM   11  C   UNL     1     -45.491 -53.158  13.922  1.00  0.00     0.087 A 
HETATM   12  N   UNL     1     -46.260 -54.223  13.800  1.00  0.00    -0.354 N 
HETATM   13  C   UNL     1     -45.446 -55.307  13.986  1.00  0.00     0.106 A 
ATOM     14  HN  UNL     1     -47.261 -54.235  13.604  1.00  0.00     0.166 HD
HETATM   15  C   UNL     1     -44.158 -54.910  14.230  1.00  0.00     0.110 A 
BRANCH  11  16
HETATM   16  C   UNL     1     -45.942 -51.733  13.732  1.00  0.00     0.045 C 
HETATM   17  C   UNL     1     -46.624 -51.556  12.374  1.00  0.00     0.017 C 
HETATM   18  C   UNL     1     -46.901 -51.315  14.849  1.00  0.00     0.017 C 
ENDBRANCH  11  16
ENDBRANCH   9  10
ENDBRANCH   1   9
BRANCH   6  19
HETATM   19  C   UNL     1     -42.123 -48.456  11.409  1.00  0.00     0.086 A 
HETATM   20  C   UNL     1     -42.655 -47.810  10.167  1.00  0.00     0.027 A 
HETATM   21  C   UNL     1     -41.327 -47.377  10.724  1.00  0.00     0.027 A 
ENDBRANCH   6  19
TORSDOF 4
ENDMDL
MODEL 2
REMARK VINA RESULT:      -5.7      2.340      2.609
REMARK  4 active torsions:
REMARK  status: ('A' for Active; 'I' for Inactive)
REMARK    1  A    between atoms: C_2  and  C_4 
REMARK    2  A    between atoms: N_9  and  C_10 
REMARK    3  A    between atoms: C_10  and  C_11 
REMARK       I    between atoms: C_11  and  N_13 
REMARK       I    between atoms: N_13  and  C_14 
REMARK       I    between atoms: C_14  and  N_16 
REMARK    4  A    between atoms: N_16  and  C_17 
ROOT
HETATM    1  C   UNL     1     -42.951 -52.266  12.570  1.00  0.00     0.243 C 
HETATM    2  O   UNL     1     -43.738 -53.064  12.074  1.00  0.00    -0.271 OA
HETATM    3  N   UNL     1     -41.839 -51.867  11.843  1.00  0.00    -0.278 N 
HETATM    4  C   UNL     1     -40.895 -50.953  12.237  1.00  0.00     0.323 C 
HETATM    5  O   UNL     1     -41.002 -50.251  13.236  1.00  0.00    -0.247 OA
HETATM    6  N   UNL     1     -39.774 -50.904  11.443  1.00  0.00    -0.338 N 
HETATM    7  H   UNL     1     -41.763 -52.300  10.934  1.00  0.00     0.173 HD
HETATM    8  H   UNL     1     -39.803 -51.265  10.501  1.00  0.00     0.164 HD
ENDROOT
BRANCH   1   9
HETATM    9  C   UNL     1     -43.085 -51.672  13.968  1.00  0.00     0.232 C 
BRANCH   9  10
HETATM   10  N   UNL     1     -43.760 -52.507  14.946  1.00  0.00    -0.336 N 
HETATM   11  C   UNL     1     -45.090 -52.467  15.310  1.00  0.00     0.087 A 
HETATM   12  N   UNL     1     -45.394 -53.527  16.035  1.00  0.00    -0.354 N 
HETATM   13  C   UNL     1     -44.251 -54.273  16.121  1.00  0.00     0.106 A 
ATOM     14  HN  UNL     1     -46.301 -53.745  16.449  1.00  0.00     0.166 HD
HETATM   15  C   UNL     1     -43.225 -53.668  15.443  1.00  0.00     0.110 A 
BRANCH  11  16
HETATM   16  C   UNL     1     -46.060 -51.390  14.895  1.00  0.00     0.045 C 
HETATM   17  C   UNL     1     -46.612 -51.666  13.495  1.00  0.00     0.017 C 
HETATM   18  C   UNL     1     -47.215 -51.288  15.895  1.00  0.00     0.017 C 
ENDBRANCH  11  16
ENDBRANCH   9  10
ENDBRANCH   1   9
BRANCH   6  19
HETATM   19  C   UNL     1     -38.711 -50.010  11.801  1.00  0.00     0.086 A 
HETATM   20  C   UNL     1     -37.404 -49.970  11.070  1.00  0.00     0.027 A 
HETATM   21  C   UNL     1     -37.466 -50.547  12.457  1.00  0.00     0.027 A 
ENDBRANCH   6  19
TORSDOF 4
ENDMDL
MODEL 3
REMARK VINA RESULT:      -5.7      4.231      6.262
REMARK  4 active torsions:
REMARK  status: ('A' for Active; 'I' for Inactive)
REMARK    1  A    between atoms: C_2  and  C_4 
REMARK    2  A    between atoms: N_9  and  C_10 
REMARK    3  A    between atoms: C_10  and  C_11 
REMARK       I    between atoms: C_11  and  N_13 
REMARK       I    between atoms: N_13  and  C_14 
REMARK       I    between atoms: C_14  and  N_16 
REMARK    4  A    between atoms: N_16  and  C_17 
ROOT
HETATM    1  C   UNL     1     -41.514 -47.647  12.367  1.00  0.00     0.243 C 
HETATM    2  O   UNL     1     -41.181 -47.368  13.513  1.00  0.00    -0.271 OA
HETATM    3  N   UNL     1     -42.761 -47.253  11.906  1.00  0.00    -0.278 N 
HETATM    4  C   UNL     1     -43.260 -47.449  10.644  1.00  0.00     0.323 C 
HETATM    5  O   UNL     1     -42.594 -47.871   9.706  1.00  0.00    -0.247 OA
HETATM    6  N   UNL     1     -44.601 -47.174  10.506  1.00  0.00    -0.338 N 
HETATM    7  H   UNL     1     -43.318 -46.761  12.591  1.00  0.00     0.173 HD
HETATM    8  H   UNL     1     -45.069 -46.584  11.177  1.00  0.00     0.164 HD
ENDROOT
BRANCH   1   9
HETATM    9  C   UNL     1     -40.654 -48.433  11.383  1.00  0.00     0.232 C 
BRANCH   9  10
HETATM   10  N   UNL     1     -40.513 -49.851  11.661  1.00  0.00    -0.336 N 
HETATM   11  C   UNL     1     -39.396 -50.508  12.137  1.00  0.00     0.087 A 
HETATM   12  N   UNL     1     -39.712 -51.736  12.500  1.00  0.00    -0.354 N 
HETATM   13  C   UNL     1     -41.056 -51.868  12.279  1.00  0.00     0.106 A 
ATOM     14  HN  UNL     1     -39.080 -52.446  12.872  1.00  0.00     0.166 HD
HETATM   15  C   UNL     1     -41.579 -50.708  11.769  1.00  0.00     0.110 A 
BRANCH  11  16
HETATM   16  C   UNL     1     -38.029 -49.888  12.263  1.00  0.00     0.045 C 
HETATM   17  C   UNL     1     -37.242 -50.537  13.404  1.00  0.00     0.017 C 
HETATM   18  C   UNL     1     -37.248 -50.028  10.954  1.00  0.00     0.017 C 
ENDBRANCH  11  16
ENDBRANCH   9  10
ENDBRANCH   1   9
BRANCH   6  19
HETATM   19  C   UNL     1     -45.224 -47.392   9.232  1.00  0.00     0.086 A 
HETATM   20  C   UNL     1     -46.574 -46.844   8.887  1.00  0.00     0.027 A 
HETATM   21  C   UNL     1     -46.406 -48.319   9.122  1.00  0.00     0.027 A 
ENDBRANCH   6  19
TORSDOF 4
ENDMDL
MODEL 4
REMARK VINA RESULT:      -5.7      5.373      7.010
REMARK  4 active torsions:
REMARK  status: ('A' for Active; 'I' for Inactive)
REMARK    1  A    between atoms: C_2  and  C_4 
REMARK    2  A    between atoms: N_9  and  C_10 
REMARK    3  A    between atoms: C_10  and  C_11 
REMARK       I    between atoms: C_11  and  N_13 
REMARK       I    between atoms: N_13  and  C_14 
REMARK       I    between atoms: C_14  and  N_16 
REMARK    4  A    between atoms: N_16  and  C_17 
ROOT
HETATM    1  C   UNL     1     -40.898 -46.432  10.696  1.00  0.00     0.243 C 
HETATM    2  O   UNL     1     -39.945 -45.759  10.322  1.00  0.00    -0.271 OA
HETATM    3  N   UNL     1     -42.034 -46.502   9.903  1.00  0.00    -0.278 N 
HETATM    4  C   UNL     1     -43.160 -47.244  10.160  1.00  0.00     0.323 C 
HETATM    5  O   UNL     1     -43.241 -48.069  11.062  1.00  0.00    -0.247 OA
HETATM    6  N   UNL     1     -44.232 -46.963   9.345  1.00  0.00    -0.338 N 
HETATM    7  H   UNL     1     -41.981 -45.955   9.057  1.00  0.00     0.173 HD
HETATM    8  H   UNL     1     -44.088 -46.504   8.458  1.00  0.00     0.164 HD
ENDROOT
BRANCH   1   9
HETATM    9  C   UNL     1     -40.949 -47.207  12.009  1.00  0.00     0.232 C 
BRANCH   9  10
HETATM   10  N   UNL     1     -39.999 -48.299  12.133  1.00  0.00    -0.336 N 
HETATM   11  C   UNL     1     -39.028 -48.463  13.100  1.00  0.00     0.087 A 
HETATM   12  N   UNL     1     -38.527 -49.682  13.038  1.00  0.00    -0.354 N 
HETATM   13  C   UNL     1     -39.199 -50.322  12.033  1.00  0.00     0.106 A 
ATOM     14  HN  UNL     1     -37.786 -50.069  13.623  1.00  0.00     0.166 HD
HETATM   15  C   UNL     1     -40.127 -49.490  11.463  1.00  0.00     0.110 A 
BRANCH  11  16
HETATM   16  C   UNL     1     -38.637 -47.412  14.107  1.00  0.00     0.045 C 
HETATM   17  C   UNL     1     -39.558 -47.460  15.328  1.00  0.00     0.017 C 
HETATM   18  C   UNL     1     -37.184 -47.600  14.549  1.00  0.00     0.017 C 
ENDBRANCH  11  16
ENDBRANCH   9  10
ENDBRANCH   1   9
BRANCH   6  19
HETATM   19  C   UNL     1     -45.468 -47.656   9.566  1.00  0.00     0.086 A 
HETATM   20  C   UNL     1     -46.250 -48.291   8.458  1.00  0.00     0.027 A 
HETATM   21  C   UNL     1     -46.766 -47.041   9.113  1.00  0.00     0.027 A 
ENDBRANCH   6  19
TORSDOF 4
ENDMDL
MODEL 5
REMARK VINA RESULT:      -5.6      2.174      6.985
REMARK  4 active torsions:
REMARK  status: ('A' for Active; 'I' for Inactive)
REMARK    1  A    between atoms: C_2  and  C_4 
REMARK    2  A    between atoms: N_9  and  C_10 
REMARK    3  A    between atoms: C_10  and  C_11 
REMARK       I    between atoms: C_11  and  N_13 
REMARK       I    between atoms: N_13  and  C_14 
REMARK       I    between atoms: C_14  and  N_16 
REMARK    4  A    between atoms: N_16  and  C_17 
ROOT
HETATM    1  C   UNL     1     -41.168 -49.709  11.639  1.00  0.00     0.243 C 
HETATM    2  O   UNL     1     -40.208 -50.023  10.944  1.00  0.00    -0.271 OA
HETATM    3  N   UNL     1     -42.085 -50.681  12.011  1.00  0.00    -0.278 N 
HETATM    4  C   UNL     1     -43.179 -50.500  12.817  1.00  0.00     0.323 C 
HETATM    5  O   UNL     1     -43.402 -49.470  13.443  1.00  0.00    -0.247 OA
HETATM    6  N   UNL     1     -44.056 -51.560  12.846  1.00  0.00    -0.338 N 
HETATM    7  H   UNL     1     -41.882 -51.601  11.648  1.00  0.00     0.173 HD
HETATM    8  H   UNL     1     -43.749 -52.479  12.564  1.00  0.00     0.164 HD
ENDROOT
BRANCH   1   9
HETATM    9  C   UNL     1     -41.457 -48.294  12.128  1.00  0.00     0.232 C 
BRANCH   9  10
HETATM   10  N   UNL     1     -41.985 -47.379  11.132  1.00  0.00    -0.336 N 
HETATM   11  C   UNL     1     -41.344 -46.300  10.557  1.00  0.00     0.087 A 
HETATM   12  N   UNL     1     -42.037 -45.858   9.525  1.00  0.00    -0.354 N 
HETATM   13  C   UNL     1     -43.127 -46.676   9.416  1.00  0.00     0.106 A 
ATOM     14  HN  UNL     1     -41.804 -45.064   8.927  1.00  0.00     0.166 HD
HETATM   15  C   UNL     1     -43.113 -47.636  10.394  1.00  0.00     0.110 A 
BRANCH  11  16
HETATM   16  C   UNL     1     -40.022 -45.745  11.020  1.00  0.00     0.045 C 
HETATM   17  C   UNL     1     -39.364 -44.916   9.914  1.00  0.00     0.017 C 
HETATM   18  C   UNL     1     -40.205 -44.882  12.271  1.00  0.00     0.017 C 
ENDBRANCH  11  16
ENDBRANCH   9  10
ENDBRANCH   1   9
BRANCH   6  19
HETATM   19  C   UNL     1     -45.254 -51.446  13.626  1.00  0.00     0.086 A 
HETATM   20  C   UNL     1     -46.126 -52.620  13.948  1.00  0.00     0.027 A 
HETATM   21  C   UNL     1     -46.599 -51.588  12.964  1.00  0.00     0.027 A 
ENDBRANCH   6  19
TORSDOF 4
ENDMDL
MODEL 6
REMARK VINA RESULT:      -5.5      2.327      2.550
REMARK  4 active torsions:
REMARK  status: ('A' for Active; 'I' for Inactive)
REMARK    1  A    between atoms: C_2  and  C_4 
REMARK    2  A    between atoms: N_9  and  C_10 
REMARK    3  A    between atoms: C_10  and  C_11 
REMARK       I    between atoms: C_11  and  N_13 
REMARK       I    between atoms: N_13  and  C_14 
REMARK       I    between atoms: C_14  and  N_16 
REMARK    4  A    between atoms: N_16  and  C_17 
ROOT
HETATM    1  C   UNL     1     -42.089 -52.754  14.827  1.00  0.00     0.243 C 
HETATM    2  O   UNL     1     -42.324 -53.149  15.963  1.00  0.00    -0.271 OA
HETATM    3  N   UNL     1     -40.854 -52.190  14.545  1.00  0.00    -0.278 N 
HETATM    4  C   UNL     1     -40.424 -51.744  13.321  1.00  0.00     0.323 C 
HETATM    5  O   UNL     1     -41.035 -51.931  12.275  1.00  0.00    -0.247 OA
HETATM    6  N   UNL     1     -39.256 -51.019  13.350  1.00  0.00    -0.338 N 
HETATM    7  H   UNL     1     -40.233 -52.138  15.340  1.00  0.00     0.173 HD
HETATM    8  H   UNL     1     -38.630 -51.098  14.137  1.00  0.00     0.164 HD
ENDROOT
BRANCH   1   9
HETATM    9  C   UNL     1     -43.078 -52.815  13.667  1.00  0.00     0.232 C 
BRANCH   9  10
HETATM   10  N   UNL     1     -44.275 -53.603  13.900  1.00  0.00    -0.336 N 
HETATM   11  C   UNL     1     -45.587 -53.179  13.832  1.00  0.00     0.087 A 
HETATM   12  N   UNL     1     -46.401 -54.218  13.858  1.00  0.00    -0.354 N 
HETATM   13  C   UNL     1     -45.604 -55.328  13.920  1.00  0.00     0.106 A 
ATOM     14  HN  UNL     1     -47.421 -54.196  13.837  1.00  0.00     0.166 HD
HETATM   15  C   UNL     1     -44.280 -54.974  13.935  1.00  0.00     0.110 A 
BRANCH  11  16
HETATM   16  C   UNL     1     -46.016 -51.741  13.700  1.00  0.00     0.045 C 
HETATM   17  C   UNL     1     -46.746 -51.511  12.375  1.00  0.00     0.017 C 
HETATM   18  C   UNL     1     -46.924 -51.338  14.865  1.00  0.00     0.017 C 
ENDBRANCH  11  16
ENDBRANCH   9  10
ENDBRANCH   1   9
BRANCH   6  19
HETATM   19  C   UNL     1     -38.751 -50.472  12.124  1.00  0.00     0.086 A 
HETATM   20  C   UNL     1     -37.323 -50.620  11.699  1.00  0.00     0.027 A 
HETATM   21  C   UNL     1     -37.830 -49.281  12.156  1.00  0.00     0.027 A 
ENDBRANCH   6  19
TORSDOF 4
ENDMDL
MODEL 7
REMARK VINA RESULT:      -5.5      5.768      7.557
REMARK  4 active torsions:
REMARK  status: ('A' for Active; 'I' for Inactive)
REMARK    1  A    between atoms: C_2  and  C_4 
REMARK    2  A    between atoms: N_9  and  C_10 
REMARK    3  A    between atoms: C_10  and  C_11 
REMARK       I    between atoms: C_11  and  N_13 
REMARK       I    between atoms: N_13  and  C_14 
REMARK       I    between atoms: C_14  and  N_16 
REMARK    4  A    between atoms: N_16  and  C_17 
ROOT
HETATM    1  C   UNL     1     -40.788 -46.122  10.488  1.00  0.00     0.243 C 
HETATM    2  O   UNL     1     -39.957 -45.263  10.219  1.00  0.00    -0.271 OA
HETATM    3  N   UNL     1     -42.022 -46.097   9.856  1.00  0.00    -0.278 N 
HETATM    4  C   UNL     1     -43.036 -47.008  10.015  1.00  0.00     0.323 C 
HETATM    5  O   UNL     1     -42.916 -48.059  10.632  1.00  0.00    -0.247 OA
HETATM    6  N   UNL     1     -44.237 -46.635   9.458  1.00  0.00    -0.338 N 
HETATM    7  H   UNL     1     -42.140 -45.329   9.211  1.00  0.00     0.173 HD
HETATM    8  H   UNL     1     -44.265 -45.928   8.737  1.00  0.00     0.164 HD
ENDROOT
BRANCH   1   9
HETATM    9  C   UNL     1     -40.580 -47.239  11.506  1.00  0.00     0.232 C 
BRANCH   9  10
HETATM   10  N   UNL     1     -40.562 -46.828  12.898  1.00  0.00    -0.336 N 
HETATM   11  C   UNL     1     -39.589 -47.092  13.840  1.00  0.00     0.087 A 
HETATM   12  N   UNL     1     -39.789 -46.356  14.918  1.00  0.00    -0.354 N 
HETATM   13  C   UNL     1     -40.892 -45.590  14.659  1.00  0.00     0.106 A 
ATOM     14  HN  UNL     1     -39.231 -46.359  15.772  1.00  0.00     0.166 HD
HETATM   15  C   UNL     1     -41.385 -45.856  13.408  1.00  0.00     0.110 A 
BRANCH  11  16
HETATM   16  C   UNL     1     -38.440 -48.046  13.640  1.00  0.00     0.045 C 
HETATM   17  C   UNL     1     -37.236 -47.635  14.490  1.00  0.00     0.017 C 
HETATM   18  C   UNL     1     -38.857 -49.476  13.995  1.00  0.00     0.017 C 
ENDBRANCH  11  16
ENDBRANCH   9  10
ENDBRANCH   1   9
BRANCH   6  19
HETATM   19  C   UNL     1     -45.369 -47.503   9.611  1.00  0.00     0.086 A 
HETATM   20  C   UNL     1     -46.018 -48.199   8.455  1.00  0.00     0.027 A 
HETATM   21  C   UNL     1     -46.726 -47.059   9.132  1.00  0.00     0.027 A 
ENDBRANCH   6  19
TORSDOF 4
ENDMDL
MODEL 8
REMARK VINA RESULT:      -5.5      2.312      6.781
REMARK  4 active torsions:
REMARK  status: ('A' for Active; 'I' for Inactive)
REMARK    1  A    between atoms: C_2  and  C_4 
REMARK    2  A    between atoms: N_9  and  C_10 
REMARK    3  A    between atoms: C_10  and  C_11 
REMARK       I    between atoms: C_11  and  N_13 
REMARK       I    between atoms: N_13  and  C_14 
REMARK       I    between atoms: C_14  and  N_16 
REMARK    4  A    between atoms: N_16  and  C_17 
ROOT
HETATM    1  C   UNL     1     -41.673 -49.129  11.483  1.00  0.00     0.243 C 
HETATM    2  O   UNL     1     -40.666 -48.872  10.833  1.00  0.00    -0.271 OA
HETATM    3  N   UNL     1     -41.975 -50.451  11.774  1.00  0.00    -0.278 N 
HETATM    4  C   UNL     1     -43.034 -50.896  12.524  1.00  0.00     0.323 C 
HETATM    5  O   UNL     1     -43.772 -50.159  13.166  1.00  0.00    -0.247 OA
HETATM    6  N   UNL     1     -43.245 -52.255  12.472  1.00  0.00    -0.338 N 
HETATM    7  H   UNL     1     -41.318 -51.117  11.396  1.00  0.00     0.173 HD
HETATM    8  H   UNL     1     -42.501 -52.872  12.181  1.00  0.00     0.164 HD
ENDROOT
BRANCH   1   9
HETATM    9  C   UNL     1     -42.662 -48.087  11.996  1.00  0.00     0.232 C 
BRANCH   9  10
HETATM   10  N   UNL     1     -42.685 -46.829  11.271  1.00  0.00    -0.336 N 
HETATM   11  C   UNL     1     -43.421 -46.521  10.145  1.00  0.00     0.087 A 
HETATM   12  N   UNL     1     -43.378 -45.223   9.916  1.00  0.00    -0.354 N 
HETATM   13  C   UNL     1     -42.624 -44.681  10.920  1.00  0.00     0.106 A 
ATOM     14  HN  UNL     1     -43.819 -44.723   9.143  1.00  0.00     0.166 HD
HETATM   15  C   UNL     1     -42.192 -45.655  11.781  1.00  0.00     0.110 A 
BRANCH  11  16
HETATM   16  C   UNL     1     -44.197 -47.523   9.329  1.00  0.00     0.045 C 
HETATM   17  C   UNL     1     -45.647 -47.070   9.148  1.00  0.00     0.017 C 
HETATM   18  C   UNL     1     -43.545 -47.726   7.959  1.00  0.00     0.017 C 
ENDBRANCH  11  16
ENDBRANCH   9  10
ENDBRANCH   1   9
BRANCH   6  19
HETATM   19  C   UNL     1     -44.357 -52.809  13.188  1.00  0.00     0.086 A 
HETATM   20  C   UNL     1     -44.201 -53.546  14.482  1.00  0.00     0.027 A 
HETATM   21  C   UNL     1     -44.553 -54.301  13.232  1.00  0.00     0.027 A 
ENDBRANCH   6  19
TORSDOF 4
ENDMDL
MODEL 9
REMARK VINA RESULT:      -5.4      2.622      3.586
REMARK  4 active torsions:
REMARK  status: ('A' for Active; 'I' for Inactive)
REMARK    1  A    between atoms: C_2  and  C_4 
REMARK    2  A    between atoms: N_9  and  C_10 
REMARK    3  A    between atoms: C_10  and  C_11 
REMARK       I    between atoms: C_11  and  N_13 
REMARK       I    between atoms: N_13  and  C_14 
REMARK       I    between atoms: C_14  and  N_16 
REMARK    4  A    between atoms: N_16  and  C_17 
ROOT
HETATM    1  C   UNL     1     -39.376 -50.546  12.007  1.00  0.00     0.243 C 
HETATM    2  O   UNL     1     -38.240 -50.980  11.859  1.00  0.00    -0.271 OA
HETATM    3  N   UNL     1     -39.955 -49.797  10.993  1.00  0.00    -0.278 N 
HETATM    4  C   UNL     1     -41.226 -49.282  10.988  1.00  0.00     0.323 C 
HETATM    5  O   UNL     1     -42.075 -49.554  11.829  1.00  0.00    -0.247 OA
HETATM    6  N   UNL     1     -41.480 -48.386   9.975  1.00  0.00    -0.338 N 
HETATM    7  H   UNL     1     -39.357 -49.655  10.192  1.00  0.00     0.173 HD
HETATM    8  H   UNL     1     -40.898 -48.374   9.151  1.00  0.00     0.164 HD
ENDROOT
BRANCH   1   9
HETATM    9  C   UNL     1     -40.225 -50.750  13.257  1.00  0.00     0.232 C 
BRANCH   9  10
HETATM   10  N   UNL     1     -40.401 -52.127  13.683  1.00  0.00    -0.336 N 
HETATM   11  C   UNL     1     -41.525 -52.914  13.541  1.00  0.00     0.087 A 
HETATM   12  N   UNL     1     -41.237 -54.172  13.816  1.00  0.00    -0.354 N 
HETATM   13  C   UNL     1     -39.903 -54.202  14.118  1.00  0.00     0.106 A 
ATOM     14  HN  UNL     1     -41.880 -54.964  13.807  1.00  0.00     0.166 HD
HETATM   15  C   UNL     1     -39.358 -52.948  14.031  1.00  0.00     0.110 A 
BRANCH  11  16
HETATM   16  C   UNL     1     -42.872 -52.410  13.090  1.00  0.00     0.045 C 
HETATM   17  C   UNL     1     -43.730 -53.557  12.552  1.00  0.00     0.017 C 
HETATM   18  C   UNL     1     -43.603 -51.715  14.241  1.00  0.00     0.017 C 
ENDBRANCH  11  16
ENDBRANCH   9  10
ENDBRANCH   1   9
BRANCH   6  19
HETATM   19  C   UNL     1     -42.769 -47.760   9.914  1.00  0.00     0.086 A 
HETATM   20  C   UNL     1     -43.455 -47.445   8.620  1.00  0.00     0.027 A 
HETATM   21  C   UNL     1     -42.889 -46.331   9.454  1.00  0.00     0.027 A 
ENDBRANCH   6  19
TORSDOF 4
ENDMDL
