MODEL 1
REMARK VINA RESULT:      -6.9      0.000      0.000
REMARK  8 active torsions:
REMARK  status: ('A' for Active; 'I' for Inactive)
REMARK    1  A    between atoms: C_2  and  C_3 
REMARK    2  A    between atoms: C_3  and  N_4 
REMARK       I    between atoms: N_4  and  C_5 
REMARK    3  A    between atoms: C_5  and  C_7 
REMARK    4  A    between atoms: C_7  and  N_9 
REMARK       I    between atoms: N_9  and  C_10 
REMARK    5  A    between atoms: C_10  and  C_12 
REMARK    6  A    between atoms: C_12  and  N_13 
REMARK    7  A    between atoms: C_20  and  C_21 
REMARK    8  A    between atoms: C_21  and  N_22 
ROOT
HETATM    1  N   UNL     1     -40.856 -51.296  11.997  1.00  0.00    -0.247 N 
HETATM    2  N   UNL     1     -42.208 -51.543  11.974  1.00  0.00    -0.299 N 
ATOM      3  HN  UNL     1     -42.841 -50.930  11.461  1.00  0.00     0.187 HD
HETATM    4  C   UNL     1     -42.660 -52.572  12.619  1.00  0.00     0.029 A 
HETATM    5  C   UNL     1     -44.155 -52.800  12.574  1.00  0.00     0.070 C 
HETATM    6  C   UNL     1     -41.813 -53.520  13.391  1.00  0.00    -0.013 A 
HETATM    7  C   UNL     1     -42.413 -54.697  14.106  1.00  0.00     0.052 C 
HETATM    8  C   UNL     1     -40.494 -53.247  13.397  1.00  0.00     0.103 A 
HETATM    9  C   UNL     1     -39.929 -52.091  12.668  1.00  0.00     0.282 A 
HETATM   10  O   UNL     1     -38.724 -51.874  12.688  1.00  0.00    -0.265 OA
ENDROOT
BRANCH   1  11
HETATM   11  C   UNL     1     -40.397 -50.106  11.291  1.00  0.00     0.255 C 
BRANCH  11  12
HETATM   12  C   UNL     1     -41.448 -49.000  11.270  1.00  0.00     0.238 C 
HETATM   13  N   UNL     1     -41.674 -48.425  10.039  1.00  0.00    -0.347 N 
HETATM   14  H   UNL     1     -41.036 -48.633   9.272  1.00  0.00     0.163 HD
HETATM   15  O   UNL     1     -42.143 -48.737  12.251  1.00  0.00    -0.272 OA
BRANCH  13  16
HETATM   16  C   UNL     1     -42.682 -47.390   9.845  1.00  0.00     0.172 C 
HETATM   17  C   UNL     1     -43.391 -47.553   8.503  1.00  0.00     0.042 C 
BRANCH  16  18
HETATM   18  C   UNL     1     -42.026 -45.998   9.950  1.00  0.00     0.240 C 
HETATM   19  N   UNL     1     -40.651 -46.027  10.070  1.00  0.00    -0.359 N 
HETATM   20  H   UNL     1     -40.176 -46.920  10.126  1.00  0.00     0.162 HD
HETATM   21  O   UNL     1     -42.679 -44.955   9.922  1.00  0.00    -0.271 OA
BRANCH  19  22
HETATM   22  C   UNL     1     -39.852 -44.827  10.204  1.00  0.00     0.122 C 
BRANCH  22  23
HETATM   23  C   UNL     1     -39.690 -44.382  11.656  1.00  0.00     0.015 C 
HETATM   24  C   UNL     1     -40.376 -43.056  11.949  1.00  0.00     0.006 C 
ENDBRANCH  22  23
ENDBRANCH  19  22
ENDBRANCH  16  18
ENDBRANCH  13  16
ENDBRANCH  11  12
ENDBRANCH   1  11
BRANCH   8  25
HETATM   25  C   UNL     1     -39.568 -54.172  14.170  1.00  0.00    -0.031 C 
BRANCH  25  26
HETATM   26  N   UNL     1     -38.800 -54.938  14.812  1.00  0.00    -0.365 N 
ATOM     27  HN2 UNL     1     -39.454 -54.325  14.324  1.00  0.00     0.165 HD
ATOM     28  HN1 UNL     1     -38.178 -55.558  15.331  1.00  0.00     0.165 HD
ENDBRANCH  25  26
ENDBRANCH   8  25
TORSDOF 8
ENDMDL
MODEL 2
REMARK VINA RESULT:      -6.6      2.442      4.333
REMARK  8 active torsions:
REMARK  status: ('A' for Active; 'I' for Inactive)
REMARK    1  A    between atoms: C_2  and  C_3 
REMARK    2  A    between atoms: C_3  and  N_4 
REMARK       I    between atoms: N_4  and  C_5 
REMARK    3  A    between atoms: C_5  and  C_7 
REMARK    4  A    between atoms: C_7  and  N_9 
REMARK       I    between atoms: N_9  and  C_10 
REMARK    5  A    between atoms: C_10  and  C_12 
REMARK    6  A    between atoms: C_12  and  N_13 
REMARK    7  A    between atoms: C_20  and  C_21 
REMARK    8  A    between atoms: C_21  and  N_22 
ROOT
HETATM    1  N   UNL     1     -41.576 -53.130  12.780  1.00  0.00    -0.247 N 
HETATM    2  N   UNL     1     -40.658 -53.598  13.689  1.00  0.00    -0.299 N 
ATOM      3  HN  UNL     1     -39.673 -53.343  13.615  1.00  0.00     0.187 HD
HETATM    4  C   UNL     1     -41.072 -54.372  14.643  1.00  0.00     0.029 A 
HETATM    5  C   UNL     1     -40.027 -54.873  15.615  1.00  0.00     0.070 C 
HETATM    6  C   UNL     1     -42.486 -54.795  14.830  1.00  0.00    -0.013 A 
HETATM    7  C   UNL     1     -42.889 -55.689  15.968  1.00  0.00     0.052 C 
HETATM    8  C   UNL     1     -43.359 -54.322  13.919  1.00  0.00     0.103 A 
HETATM    9  C   UNL     1     -42.936 -53.428  12.819  1.00  0.00     0.282 A 
HETATM   10  O   UNL     1     -43.756 -53.009  12.011  1.00  0.00    -0.265 OA
ENDROOT
BRANCH   1  11
HETATM   11  C   UNL     1     -41.059 -52.295  11.701  1.00  0.00     0.255 C 
BRANCH  11  12
HETATM   12  C   UNL     1     -40.967 -50.825  12.097  1.00  0.00     0.238 C 
HETATM   13  N   UNL     1     -42.015 -50.035  11.678  1.00  0.00    -0.347 N 
HETATM   14  H   UNL     1     -42.681 -50.414  11.006  1.00  0.00     0.163 HD
HETATM   15  O   UNL     1     -40.095 -50.402  12.856  1.00  0.00    -0.272 OA
BRANCH  13  16
HETATM   16  C   UNL     1     -42.099 -48.620  12.019  1.00  0.00     0.172 C 
HETATM   17  C   UNL     1     -43.043 -48.389  13.196  1.00  0.00     0.042 C 
BRANCH  16  18
HETATM   18  C   UNL     1     -42.557 -47.813  10.787  1.00  0.00     0.240 C 
HETATM   19  N   UNL     1     -43.887 -47.987  10.459  1.00  0.00    -0.359 N 
HETATM   20  H   UNL     1     -44.450 -48.637  10.993  1.00  0.00     0.162 HD
HETATM   21  O   UNL     1     -41.797 -47.077  10.158  1.00  0.00    -0.271 OA
BRANCH  19  22
HETATM   22  C   UNL     1     -44.504 -47.335   9.322  1.00  0.00     0.122 C 
BRANCH  22  23
HETATM   23  C   UNL     1     -46.028 -47.437   9.336  1.00  0.00     0.015 C 
HETATM   24  C   UNL     1     -46.551 -48.606   8.513  1.00  0.00     0.006 C 
ENDBRANCH  22  23
ENDBRANCH  19  22
ENDBRANCH  16  18
ENDBRANCH  13  16
ENDBRANCH  11  12
ENDBRANCH   1  11
BRANCH   8  25
HETATM   25  C   UNL     1     -44.821 -54.716  14.046  1.00  0.00    -0.031 C 
BRANCH  25  26
HETATM   26  N   UNL     1     -46.034 -55.043  14.151  1.00  0.00    -0.365 N 
ATOM     27  HN2 UNL     1     -45.066 -54.735  14.060  1.00  0.00     0.165 HD
ATOM     28  HN1 UNL     1     -47.015 -55.309  14.237  1.00  0.00     0.165 HD
ENDBRANCH  25  26
ENDBRANCH   8  25
TORSDOF 8
ENDMDL
MODEL 3
REMARK VINA RESULT:      -6.4      2.128      7.451
REMARK  8 active torsions:
REMARK  status: ('A' for Active; 'I' for Inactive)
REMARK    1  A    between atoms: C_2  and  C_3 
REMARK    2  A    between atoms: C_3  and  N_4 
REMARK       I    between atoms: N_4  and  C_5 
REMARK    3  A    between atoms: C_5  and  C_7 
REMARK    4  A    between atoms: C_7  and  N_9 
REMARK       I    between atoms: N_9  and  C_10 
REMARK    5  A    between atoms: C_10  and  C_12 
REMARK    6  A    between atoms: C_12  and  N_13 
REMARK    7  A    between atoms: C_20  and  C_21 
REMARK    8  A    between atoms: C_21  and  N_22 
ROOT
HETATM    1  N   UNL     1     -41.490 -48.371  10.705  1.00  0.00    -0.247 N 
HETATM    2  N   UNL     1     -42.730 -48.421  10.116  1.00  0.00    -0.299 N 
ATOM      3  HN  UNL     1     -43.177 -49.316   9.918  1.00  0.00     0.187 HD
HETATM    4  C   UNL     1     -43.319 -47.306   9.817  1.00  0.00     0.029 A 
HETATM    5  C   UNL     1     -44.678 -47.409   9.161  1.00  0.00     0.070 C 
HETATM    6  C   UNL     1     -42.745 -45.957  10.069  1.00  0.00    -0.013 A 
HETATM    7  C   UNL     1     -43.495 -44.708   9.700  1.00  0.00     0.052 C 
HETATM    8  C   UNL     1     -41.527 -45.943  10.643  1.00  0.00     0.103 A 
HETATM    9  C   UNL     1     -40.819 -47.188  11.012  1.00  0.00     0.282 A 
HETATM   10  O   UNL     1     -39.714 -47.141  11.540  1.00  0.00    -0.265 OA
ENDROOT
BRANCH   1  11
HETATM   11  C   UNL     1     -40.848 -49.649  10.988  1.00  0.00     0.255 C 
BRANCH  11  12
HETATM   12  C   UNL     1     -41.527 -50.401  12.128  1.00  0.00     0.238 C 
HETATM   13  N   UNL     1     -41.776 -51.734  11.889  1.00  0.00    -0.347 N 
HETATM   14  H   UNL     1     -41.663 -52.096  10.943  1.00  0.00     0.163 HD
HETATM   15  O   UNL     1     -41.710 -49.892  13.233  1.00  0.00    -0.272 OA
BRANCH  13  16
HETATM   16  C   UNL     1     -42.375 -52.600  12.898  1.00  0.00     0.172 C 
HETATM   17  C   UNL     1     -41.728 -53.983  12.894  1.00  0.00     0.042 C 
BRANCH  16  18
HETATM   18  C   UNL     1     -43.894 -52.709  12.658  1.00  0.00     0.240 C 
HETATM   19  N   UNL     1     -44.603 -51.572  12.993  1.00  0.00    -0.359 N 
HETATM   20  H   UNL     1     -44.115 -50.784  13.401  1.00  0.00     0.162 HD
HETATM   21  O   UNL     1     -44.421 -53.723  12.201  1.00  0.00    -0.271 OA
BRANCH  19  22
HETATM   22  C   UNL     1     -46.043 -51.482  12.863  1.00  0.00     0.122 C 
BRANCH  22  23
HETATM   23  C   UNL     1     -46.764 -51.559  14.207  1.00  0.00     0.015 C 
HETATM   24  C   UNL     1     -45.881 -51.155  15.378  1.00  0.00     0.006 C 
ENDBRANCH  22  23
ENDBRANCH  19  22
ENDBRANCH  16  18
ENDBRANCH  13  16
ENDBRANCH  11  12
ENDBRANCH   1  11
BRANCH   8  25
HETATM   25  C   UNL     1     -40.876 -44.599  10.927  1.00  0.00    -0.031 C 
BRANCH  25  26
HETATM   26  N   UNL     1     -40.337 -43.483  11.162  1.00  0.00    -0.365 N 
ATOM     27  HN2 UNL     1     -40.732 -44.402  10.959  1.00  0.00     0.165 HD
ATOM     28  HN1 UNL     1     -39.902 -42.581  11.352  1.00  0.00     0.165 HD
ENDBRANCH  25  26
ENDBRANCH   8  25
TORSDOF 8
ENDMDL
MODEL 4
REMARK VINA RESULT:      -6.4      2.396      3.545
REMARK  8 active torsions:
REMARK  status: ('A' for Active; 'I' for Inactive)
REMARK    1  A    between atoms: C_2  and  C_3 
REMARK    2  A    between atoms: C_3  and  N_4 
REMARK       I    between atoms: N_4  and  C_5 
REMARK    3  A    between atoms: C_5  and  C_7 
REMARK    4  A    between atoms: C_7  and  N_9 
REMARK       I    between atoms: N_9  and  C_10 
REMARK    5  A    between atoms: C_10  and  C_12 
REMARK    6  A    between atoms: C_12  and  N_13 
REMARK    7  A    between atoms: C_20  and  C_21 
REMARK    8  A    between atoms: C_21  and  N_22 
ROOT
HETATM    1  N   UNL     1     -42.192 -52.756  12.506  1.00  0.00    -0.247 N 
HETATM    2  N   UNL     1     -43.493 -52.450  12.186  1.00  0.00    -0.299 N 
ATOM      3  HN  UNL     1     -43.704 -51.782  11.445  1.00  0.00     0.187 HD
HETATM    4  C   UNL     1     -44.446 -53.029  12.848  1.00  0.00     0.029 A 
HETATM    5  C   UNL     1     -45.861 -52.654  12.469  1.00  0.00     0.070 C 
HETATM    6  C   UNL     1     -44.233 -54.014  13.941  1.00  0.00    -0.013 A 
HETATM    7  C   UNL     1     -45.392 -54.649  14.656  1.00  0.00     0.052 C 
HETATM    8  C   UNL     1     -42.947 -54.289  14.233  1.00  0.00     0.103 A 
HETATM    9  C   UNL     1     -41.825 -53.663  13.499  1.00  0.00     0.282 A 
HETATM   10  O   UNL     1     -40.666 -53.939  13.784  1.00  0.00    -0.265 OA
ENDROOT
BRANCH   1  11
HETATM   11  C   UNL     1     -41.153 -52.053  11.764  1.00  0.00     0.255 C 
BRANCH  11  12
HETATM   12  C   UNL     1     -41.061 -50.579  12.146  1.00  0.00     0.238 C 
HETATM   13  N   UNL     1     -41.891 -49.734  11.443  1.00  0.00    -0.347 N 
HETATM   14  H   UNL     1     -42.374 -50.090  10.618  1.00  0.00     0.163 HD
HETATM   15  O   UNL     1     -40.400 -50.190  13.109  1.00  0.00    -0.272 OA
BRANCH  13  16
HETATM   16  C   UNL     1     -41.956 -48.305  11.724  1.00  0.00     0.172 C 
HETATM   17  C   UNL     1     -42.886 -48.015  12.900  1.00  0.00     0.042 C 
BRANCH  16  18
HETATM   18  C   UNL     1     -42.417 -47.546  10.464  1.00  0.00     0.240 C 
HETATM   19  N   UNL     1     -43.509 -48.108   9.831  1.00  0.00    -0.359 N 
HETATM   20  H   UNL     1     -43.898 -48.972  10.188  1.00  0.00     0.162 HD
HETATM   21  O   UNL     1     -41.859 -46.524  10.065  1.00  0.00    -0.271 OA
BRANCH  19  22
HETATM   22  C   UNL     1     -44.079 -47.558   8.619  1.00  0.00     0.122 C 
BRANCH  22  23
HETATM   23  C   UNL     1     -45.535 -47.968   8.412  1.00  0.00     0.015 C 
HETATM   24  C   UNL     1     -46.515 -47.079   9.164  1.00  0.00     0.006 C 
ENDBRANCH  22  23
ENDBRANCH  19  22
ENDBRANCH  16  18
ENDBRANCH  13  16
ENDBRANCH  11  12
ENDBRANCH   1  11
BRANCH   8  25
HETATM   25  C   UNL     1     -42.654 -55.285  15.343  1.00  0.00    -0.031 C 
BRANCH  25  26
HETATM   26  N   UNL     1     -42.409 -56.112  16.263  1.00  0.00    -0.365 N 
ATOM     27  HN2 UNL     1     -42.645 -55.430  15.541  1.00  0.00     0.165 HD
ATOM     28  HN1 UNL     1     -42.212 -56.781  17.007  1.00  0.00     0.165 HD
ENDBRANCH  25  26
ENDBRANCH   8  25
TORSDOF 8
ENDMDL
MODEL 5
REMARK VINA RESULT:      -6.4      1.834      2.268
REMARK  8 active torsions:
REMARK  status: ('A' for Active; 'I' for Inactive)
REMARK    1  A    between atoms: C_2  and  C_3 
REMARK    2  A    between atoms: C_3  and  N_4 
REMARK       I    between atoms: N_4  and  C_5 
REMARK    3  A    between atoms: C_5  and  C_7 
REMARK    4  A    between atoms: C_7  and  N_9 
REMARK       I    between atoms: N_9  and  C_10 
REMARK    5  A    between atoms: C_10  and  C_12 
REMARK    6  A    between atoms: C_12  and  N_13 
REMARK    7  A    between atoms: C_20  and  C_21 
REMARK    8  A    between atoms: C_21  and  N_22 
ROOT
HETATM    1  N   UNL     1     -42.395 -52.401  12.660  1.00  0.00    -0.247 N 
HETATM    2  N   UNL     1     -43.701 -52.189  12.288  1.00  0.00    -0.299 N 
ATOM      3  HN  UNL     1     -43.939 -51.471  11.603  1.00  0.00     0.187 HD
HETATM    4  C   UNL     1     -44.625 -52.922  12.827  1.00  0.00     0.029 A 
HETATM    5  C   UNL     1     -46.049 -52.647  12.396  1.00  0.00     0.070 C 
HETATM    6  C   UNL     1     -44.372 -53.990  13.830  1.00  0.00    -0.013 A 
HETATM    7  C   UNL     1     -45.498 -54.804  14.403  1.00  0.00     0.052 C 
HETATM    8  C   UNL     1     -43.083 -54.170  14.176  1.00  0.00     0.103 A 
HETATM    9  C   UNL     1     -41.993 -53.366  13.581  1.00  0.00     0.282 A 
HETATM   10  O   UNL     1     -40.829 -53.558  13.911  1.00  0.00    -0.265 OA
ENDROOT
BRANCH   1  11
HETATM   11  C   UNL     1     -41.395 -51.528  12.058  1.00  0.00     0.255 C 
BRANCH  11  12
HETATM   12  C   UNL     1     -41.799 -50.058  12.108  1.00  0.00     0.238 C 
HETATM   13  N   UNL     1     -41.655 -49.366  10.927  1.00  0.00    -0.347 N 
HETATM   14  H   UNL     1     -41.143 -49.800  10.159  1.00  0.00     0.163 HD
HETATM   15  O   UNL     1     -42.347 -49.561  13.092  1.00  0.00    -0.272 OA
BRANCH  13  16
HETATM   16  C   UNL     1     -42.044 -47.966  10.799  1.00  0.00     0.172 C 
HETATM   17  C   UNL     1     -42.760 -47.709   9.475  1.00  0.00     0.042 C 
BRANCH  16  18
HETATM   18  C   UNL     1     -40.800 -47.065  10.930  1.00  0.00     0.240 C 
HETATM   19  N   UNL     1     -40.882 -45.880  10.225  1.00  0.00    -0.359 N 
HETATM   20  H   UNL     1     -41.697 -45.698   9.653  1.00  0.00     0.162 HD
HETATM   21  O   UNL     1     -39.823 -47.379  11.609  1.00  0.00    -0.271 OA
BRANCH  19  22
HETATM   22  C   UNL     1     -39.808 -44.908  10.201  1.00  0.00     0.122 C 
BRANCH  22  23
HETATM   23  C   UNL     1     -40.079 -43.705  11.103  1.00  0.00     0.015 C 
HETATM   24  C   UNL     1     -39.584 -43.909  12.527  1.00  0.00     0.006 C 
ENDBRANCH  22  23
ENDBRANCH  19  22
ENDBRANCH  16  18
ENDBRANCH  13  16
ENDBRANCH  11  12
ENDBRANCH   1  11
BRANCH   8  25
HETATM   25  C   UNL     1     -42.751 -55.242  15.200  1.00  0.00    -0.031 C 
BRANCH  25  26
HETATM   26  N   UNL     1     -42.475 -56.132  16.050  1.00  0.00    -0.365 N 
ATOM     27  HN2 UNL     1     -42.668 -55.431  15.333  1.00  0.00     0.165 HD
ATOM     28  HN1 UNL     1     -42.252 -56.851  16.738  1.00  0.00     0.165 HD
ENDBRANCH  25  26
ENDBRANCH   8  25
TORSDOF 8
ENDMDL
MODEL 6
REMARK VINA RESULT:      -6.1      2.525      4.441
REMARK  8 active torsions:
REMARK  status: ('A' for Active; 'I' for Inactive)
REMARK    1  A    between atoms: C_2  and  C_3 
REMARK    2  A    between atoms: C_3  and  N_4 
REMARK       I    between atoms: N_4  and  C_5 
REMARK    3  A    between atoms: C_5  and  C_7 
REMARK    4  A    between atoms: C_7  and  N_9 
REMARK       I    between atoms: N_9  and  C_10 
REMARK    5  A    between atoms: C_10  and  C_12 
REMARK    6  A    between atoms: C_12  and  N_13 
REMARK    7  A    between atoms: C_20  and  C_21 
REMARK    8  A    between atoms: C_21  and  N_22 
ROOT
HETATM    1  N   UNL     1     -43.274 -51.046  14.009  1.00  0.00    -0.247 N 
HETATM    2  N   UNL     1     -42.053 -51.553  14.383  1.00  0.00    -0.299 N 
ATOM      3  HN  UNL     1     -41.228 -50.954  14.417  1.00  0.00     0.187 HD
HETATM    4  C   UNL     1     -41.972 -52.810  14.690  1.00  0.00     0.029 A 
HETATM    5  C   UNL     1     -40.606 -53.327  15.085  1.00  0.00     0.070 C 
HETATM    6  C   UNL     1     -43.119 -53.757  14.669  1.00  0.00    -0.013 A 
HETATM    7  C   UNL     1     -42.946 -55.200  15.048  1.00  0.00     0.052 C 
HETATM    8  C   UNL     1     -44.300 -53.229  14.295  1.00  0.00     0.103 A 
HETATM    9  C   UNL     1     -44.445 -51.799  13.946  1.00  0.00     0.282 A 
HETATM   10  O   UNL     1     -45.536 -51.349  13.616  1.00  0.00    -0.265 OA
ENDROOT
BRANCH   1  11
HETATM   11  C   UNL     1     -43.311 -49.637  13.635  1.00  0.00     0.255 C 
BRANCH  11  12
HETATM   12  C   UNL     1     -42.551 -49.360  12.341  1.00  0.00     0.238 C 
HETATM   13  N   UNL     1     -42.625 -48.064  11.882  1.00  0.00    -0.347 N 
HETATM   14  H   UNL     1     -43.295 -47.425  12.309  1.00  0.00     0.163 HD
HETATM   15  O   UNL     1     -41.811 -50.194  11.822  1.00  0.00    -0.272 OA
BRANCH  13  16
HETATM   16  C   UNL     1     -41.914 -47.627  10.686  1.00  0.00     0.172 C 
HETATM   17  C   UNL     1     -40.632 -46.879  11.046  1.00  0.00     0.042 C 
BRANCH  16  18
HETATM   18  C   UNL     1     -42.837 -46.743   9.824  1.00  0.00     0.240 C 
HETATM   19  N   UNL     1     -44.110 -47.251   9.653  1.00  0.00    -0.359 N 
HETATM   20  H   UNL     1     -44.342 -48.154  10.047  1.00  0.00     0.162 HD
HETATM   21  O   UNL     1     -42.466 -45.675   9.337  1.00  0.00    -0.271 OA
BRANCH  19  22
HETATM   22  C   UNL     1     -45.119 -46.581   8.858  1.00  0.00     0.122 C 
BRANCH  22  23
HETATM   23  C   UNL     1     -46.532 -47.077   9.156  1.00  0.00     0.015 C 
HETATM   24  C   UNL     1     -46.733 -48.544   8.802  1.00  0.00     0.006 C 
ENDBRANCH  22  23
ENDBRANCH  19  22
ENDBRANCH  16  18
ENDBRANCH  13  16
ENDBRANCH  11  12
ENDBRANCH   1  11
BRANCH   8  25
HETATM   25  C   UNL     1     -45.517 -54.140  14.247  1.00  0.00    -0.031 C 
BRANCH  25  26
HETATM   26  N   UNL     1     -46.526 -54.894  14.208  1.00  0.00    -0.365 N 
ATOM     27  HN2 UNL     1     -45.726 -54.264  14.277  1.00  0.00     0.165 HD
ATOM     28  HN1 UNL     1     -47.342 -55.505  14.176  1.00  0.00     0.165 HD
ENDBRANCH  25  26
ENDBRANCH   8  25
TORSDOF 8
ENDMDL
MODEL 7
REMARK VINA RESULT:      -6.0      2.724      4.503
REMARK  8 active torsions:
REMARK  status: ('A' for Active; 'I' for Inactive)
REMARK    1  A    between atoms: C_2  and  C_3 
REMARK    2  A    between atoms: C_3  and  N_4 
REMARK       I    between atoms: N_4  and  C_5 
REMARK    3  A    between atoms: C_5  and  C_7 
REMARK    4  A    between atoms: C_7  and  N_9 
REMARK       I    between atoms: N_9  and  C_10 
REMARK    5  A    between atoms: C_10  and  C_12 
REMARK    6  A    between atoms: C_12  and  N_13 
REMARK    7  A    between atoms: C_20  and  C_21 
REMARK    8  A    between atoms: C_21  and  N_22 
ROOT
HETATM    1  N   UNL     1     -43.336 -52.174  13.096  1.00  0.00    -0.247 N 
HETATM    2  N   UNL     1     -44.511 -52.089  12.388  1.00  0.00    -0.299 N 
ATOM      3  HN  UNL     1     -44.522 -52.226  11.377  1.00  0.00     0.187 HD
HETATM    4  C   UNL     1     -45.605 -51.831  13.033  1.00  0.00     0.029 A 
HETATM    5  C   UNL     1     -46.872 -51.737  12.213  1.00  0.00     0.070 C 
HETATM    6  C   UNL     1     -45.685 -51.619  14.503  1.00  0.00    -0.013 A 
HETATM    7  C   UNL     1     -46.995 -51.332  15.180  1.00  0.00     0.052 C 
HETATM    8  C   UNL     1     -44.516 -51.705  15.167  1.00  0.00     0.103 A 
HETATM    9  C   UNL     1     -43.243 -52.007  14.476  1.00  0.00     0.282 A 
HETATM   10  O   UNL     1     -42.197 -52.085  15.110  1.00  0.00    -0.265 OA
ENDROOT
BRANCH   1  11
HETATM   11  C   UNL     1     -42.125 -52.427  12.324  1.00  0.00     0.255 C 
BRANCH  11  12
HETATM   12  C   UNL     1     -41.370 -51.144  11.990  1.00  0.00     0.238 C 
HETATM   13  N   UNL     1     -42.159 -50.040  11.756  1.00  0.00    -0.347 N 
HETATM   14  H   UNL     1     -43.165 -50.165  11.648  1.00  0.00     0.163 HD
HETATM   15  O   UNL     1     -40.144 -51.066  12.063  1.00  0.00    -0.272 OA
BRANCH  13  16
HETATM   16  C   UNL     1     -41.587 -48.729  11.473  1.00  0.00     0.172 C 
HETATM   17  C   UNL     1     -40.959 -48.117  12.723  1.00  0.00     0.042 C 
BRANCH  16  18
HETATM   18  C   UNL     1     -42.674 -47.799  10.898  1.00  0.00     0.240 C 
HETATM   19  N   UNL     1     -43.106 -48.147   9.632  1.00  0.00    -0.359 N 
HETATM   20  H   UNL     1     -42.673 -48.929   9.158  1.00  0.00     0.162 HD
HETATM   21  O   UNL     1     -43.118 -46.835  11.521  1.00  0.00    -0.271 OA
BRANCH  19  22
HETATM   22  C   UNL     1     -44.105 -47.386   8.911  1.00  0.00     0.122 C 
BRANCH  22  23
HETATM   23  C   UNL     1     -45.520 -47.624   9.433  1.00  0.00     0.015 C 
HETATM   24  C   UNL     1     -46.383 -48.422   8.467  1.00  0.00     0.006 C 
ENDBRANCH  22  23
ENDBRANCH  19  22
ENDBRANCH  16  18
ENDBRANCH  13  16
ENDBRANCH  11  12
ENDBRANCH   1  11
BRANCH   8  25
HETATM   25  C   UNL     1     -44.521 -51.495  16.672  1.00  0.00    -0.031 C 
BRANCH  25  26
HETATM   26  N   UNL     1     -44.526 -51.321  17.921  1.00  0.00    -0.365 N 
ATOM     27  HN2 UNL     1     -44.516 -51.506  16.918  1.00  0.00     0.165 HD
ATOM     28  HN1 UNL     1     -44.530 -51.179  18.931  1.00  0.00     0.165 HD
ENDBRANCH  25  26
ENDBRANCH   8  25
TORSDOF 8
ENDMDL
MODEL 8
REMARK VINA RESULT:      -5.8      2.546      3.567
REMARK  8 active torsions:
REMARK  status: ('A' for Active; 'I' for Inactive)
REMARK    1  A    between atoms: C_2  and  C_3 
REMARK    2  A    between atoms: C_3  and  N_4 
REMARK       I    between atoms: N_4  and  C_5 
REMARK    3  A    between atoms: C_5  and  C_7 
REMARK    4  A    between atoms: C_7  and  N_9 
REMARK       I    between atoms: N_9  and  C_10 
REMARK    5  A    between atoms: C_10  and  C_12 
REMARK    6  A    between atoms: C_12  and  N_13 
REMARK    7  A    between atoms: C_20  and  C_21 
REMARK    8  A    between atoms: C_21  and  N_22 
ROOT
HETATM    1  N   UNL     1     -41.748 -52.775  12.909  1.00  0.00    -0.247 N 
HETATM    2  N   UNL     1     -40.808 -53.186  13.824  1.00  0.00    -0.299 N 
ATOM      3  HN  UNL     1     -39.869 -52.789  13.821  1.00  0.00     0.187 HD
HETATM    4  C   UNL     1     -41.142 -54.090  14.691  1.00  0.00     0.029 A 
HETATM    5  C   UNL     1     -40.074 -54.519  15.672  1.00  0.00     0.070 C 
HETATM    6  C   UNL     1     -42.486 -54.723  14.770  1.00  0.00    -0.013 A 
HETATM    7  C   UNL     1     -42.799 -55.760  15.812  1.00  0.00     0.052 C 
HETATM    8  C   UNL     1     -43.382 -54.301  13.857  1.00  0.00     0.103 A 
HETATM    9  C   UNL     1     -43.051 -53.265  12.855  1.00  0.00     0.282 A 
HETATM   10  O   UNL     1     -43.891 -52.898  12.042  1.00  0.00    -0.265 OA
ENDROOT
BRANCH   1  11
HETATM   11  C   UNL     1     -41.316 -51.786  11.928  1.00  0.00     0.255 C 
BRANCH  11  12
HETATM   12  C   UNL     1     -41.577 -50.356  12.391  1.00  0.00     0.238 C 
HETATM   13  N   UNL     1     -42.113 -49.518  11.440  1.00  0.00    -0.347 N 
HETATM   14  H   UNL     1     -42.145 -49.827  10.469  1.00  0.00     0.163 HD
HETATM   15  O   UNL     1     -41.451 -50.013  13.566  1.00  0.00    -0.272 OA
BRANCH  13  16
HETATM   16  C   UNL     1     -42.466 -48.135  11.740  1.00  0.00     0.172 C 
HETATM   17  C   UNL     1     -43.492 -47.597  10.746  1.00  0.00     0.042 C 
BRANCH  16  18
HETATM   18  C   UNL     1     -41.195 -47.261  11.738  1.00  0.00     0.240 C 
HETATM   19  N   UNL     1     -40.707 -46.969  12.997  1.00  0.00    -0.359 N 
HETATM   20  H   UNL     1     -41.212 -47.293  13.813  1.00  0.00     0.162 HD
HETATM   21  O   UNL     1     -40.665 -46.865  10.701  1.00  0.00    -0.271 OA
BRANCH  19  22
HETATM   22  C   UNL     1     -39.536 -46.144  13.210  1.00  0.00     0.122 C 
BRANCH  22  23
HETATM   23  C   UNL     1     -38.492 -46.816  14.100  1.00  0.00     0.015 C 
HETATM   24  C   UNL     1     -38.262 -48.277  13.744  1.00  0.00     0.006 C 
ENDBRANCH  22  23
ENDBRANCH  19  22
ENDBRANCH  16  18
ENDBRANCH  13  16
ENDBRANCH  11  12
ENDBRANCH   1  11
BRANCH   8  25
HETATM   25  C   UNL     1     -44.775 -54.908  13.877  1.00  0.00    -0.031 C 
BRANCH  25  26
HETATM   26  N   UNL     1     -45.931 -55.411  13.892  1.00  0.00    -0.365 N 
ATOM     27  HN2 UNL     1     -45.015 -54.962  13.878  1.00  0.00     0.165 HD
ATOM     28  HN1 UNL     1     -46.866 -55.818  13.904  1.00  0.00     0.165 HD
ENDBRANCH  25  26
ENDBRANCH   8  25
TORSDOF 8
ENDMDL
MODEL 9
REMARK VINA RESULT:      -5.8      2.875      4.794
REMARK  8 active torsions:
REMARK  status: ('A' for Active; 'I' for Inactive)
REMARK    1  A    between atoms: C_2  and  C_3 
REMARK    2  A    between atoms: C_3  and  N_4 
REMARK       I    between atoms: N_4  and  C_5 
REMARK    3  A    between atoms: C_5  and  C_7 
REMARK    4  A    between atoms: C_7  and  N_9 
REMARK       I    between atoms: N_9  and  C_10 
REMARK    5  A    between atoms: C_10  and  C_12 
REMARK    6  A    between atoms: C_12  and  N_13 
REMARK    7  A    between atoms: C_20  and  C_21 
REMARK    8  A    between atoms: C_21  and  N_22 
ROOT
HETATM    1  N   UNL     1     -42.686 -52.093  14.273  1.00  0.00    -0.247 N 
HETATM    2  N   UNL     1     -43.571 -52.556  13.330  1.00  0.00    -0.299 N 
ATOM      3  HN  UNL     1     -43.244 -53.089  12.525  1.00  0.00     0.187 HD
HETATM    4  C   UNL     1     -44.832 -52.299  13.486  1.00  0.00     0.029 A 
HETATM    5  C   UNL     1     -45.769 -52.819  12.418  1.00  0.00     0.070 C 
HETATM    6  C   UNL     1     -45.400 -51.531  14.626  1.00  0.00    -0.013 A 
HETATM    7  C   UNL     1     -46.877 -51.282  14.741  1.00  0.00     0.052 C 
HETATM    8  C   UNL     1     -44.505 -51.088  15.531  1.00  0.00     0.103 A 
HETATM    9  C   UNL     1     -43.058 -51.365  15.402  1.00  0.00     0.282 A 
HETATM   10  O   UNL     1     -42.270 -50.954  16.246  1.00  0.00    -0.265 OA
ENDROOT
BRANCH   1  11
HETATM   11  C   UNL     1     -41.274 -52.371  14.037  1.00  0.00     0.255 C 
BRANCH  11  12
HETATM   12  C   UNL     1     -40.766 -51.744  12.743  1.00  0.00     0.238 C 
HETATM   13  N   UNL     1     -39.753 -50.823  12.893  1.00  0.00    -0.347 N 
HETATM   14  H   UNL     1     -39.522 -50.490  13.828  1.00  0.00     0.163 HD
HETATM   15  O   UNL     1     -41.134 -52.133  11.635  1.00  0.00    -0.272 OA
BRANCH  13  16
HETATM   16  C   UNL     1     -39.126 -50.172  11.748  1.00  0.00     0.172 C 
HETATM   17  C   UNL     1     -37.659 -49.856  12.026  1.00  0.00     0.042 C 
BRANCH  16  18
HETATM   18  C   UNL     1     -39.902 -48.888  11.390  1.00  0.00     0.240 C 
HETATM   19  N   UNL     1     -41.074 -49.110  10.694  1.00  0.00    -0.359 N 
HETATM   20  H   UNL     1     -41.324 -50.055  10.431  1.00  0.00     0.162 HD
HETATM   21  O   UNL     1     -39.506 -47.766  11.705  1.00  0.00    -0.271 OA
BRANCH  19  22
HETATM   22  C   UNL     1     -41.933 -48.034  10.246  1.00  0.00     0.122 C 
BRANCH  22  23
HETATM   23  C   UNL     1     -43.146 -47.829  11.152  1.00  0.00     0.015 C 
HETATM   24  C   UNL     1     -43.213 -48.838  12.290  1.00  0.00     0.006 C 
ENDBRANCH  22  23
ENDBRANCH  19  22
ENDBRANCH  16  18
ENDBRANCH  13  16
ENDBRANCH  11  12
ENDBRANCH   1  11
BRANCH   8  25
HETATM   25  C   UNL     1     -45.013 -50.292  16.722  1.00  0.00    -0.031 C 
BRANCH  25  26
HETATM   26  N   UNL     1     -45.434 -49.632  17.710  1.00  0.00    -0.365 N 
ATOM     27  HN2 UNL     1     -45.057 -50.179  16.935  1.00  0.00     0.165 HD
ATOM     28  HN1 UNL     1     -45.775 -49.097  18.509  1.00  0.00     0.165 HD
ENDBRANCH  25  26
ENDBRANCH   8  25
TORSDOF 8
ENDMDL
