MODEL 1
REMARK VINA RESULT:      -6.5      0.000      0.000
REMARK  4 active torsions:
REMARK  status: ('A' for Active; 'I' for Inactive)
REMARK    1  A    between atoms: C_7  and  N_8 
REMARK       I    between atoms: N_8  and  C_9 
REMARK    2  A    between atoms: C_9  and  C_11 
REMARK    3  A    between atoms: C_11  and  N_12 
REMARK    4  A    between atoms: C_14  and  N_19 
ROOT
HETATM    1  N   UNL     1     -42.094 -51.639  11.919  1.00  0.00    -0.355 N 
HETATM    2  C   UNL     1     -41.714 -50.329  12.135  1.00  0.00     0.236 C 
HETATM    3  O   UNL     1     -41.977 -49.704  13.160  1.00  0.00    -0.272 OA
HETATM    4  H   UNL     1     -41.580 -52.165  11.214  1.00  0.00     0.162 HD
ENDROOT
BRANCH   2   5
HETATM    5  C   UNL     1     -40.885 -49.712  11.011  1.00  0.00     0.234 C 
BRANCH   5   6
HETATM    6  N   UNL     1     -41.145 -48.281  10.870  1.00  0.00    -0.314 N 
HETATM    7  C   UNL     1     -42.245 -47.850  10.131  1.00  0.00     0.130 A 
HETATM    8  C   UNL     1     -42.461 -46.538   9.927  1.00  0.00     0.118 A 
HETATM    9  C   UNL     1     -41.550 -45.557  10.479  1.00  0.00     0.043 A 
HETATM   10  C   UNL     1     -40.505 -45.948  11.223  1.00  0.00     0.077 A 
HETATM   11  C   UNL     1     -40.261 -47.396  11.485  1.00  0.00     0.247 A 
HETATM   12  O   UNL     1     -39.323 -47.741  12.196  1.00  0.00    -0.268 OA
BRANCH   8  13
HETATM   13  N   UNL     1     -43.605 -46.144   9.105  1.00  0.00    -0.114 N 
HETATM   14  O   UNL     1     -44.286 -47.055   8.612  1.00  0.00    -0.532 OA
HETATM   15  O   UNL     1     -43.840 -44.936   8.958  1.00  0.00    -0.532 OA
ENDBRANCH   8  13
ENDBRANCH   5   6
ENDBRANCH   2   5
BRANCH   1  16
HETATM   16  C   UNL     1     -42.866 -52.379  12.910  1.00  0.00     0.088 C 
HETATM   17  C   UNL     1     -41.973 -53.188  13.879  1.00  0.00     0.004 C 
HETATM   18  C   UNL     1     -41.050 -54.184  13.166  1.00  0.00     0.012 C 
HETATM   19  C   UNL     1     -42.856 -53.903  14.918  1.00  0.00     0.006 C 
HETATM   20  C   UNL     1     -43.946 -54.766  14.282  1.00  0.00     0.001 C 
HETATM   21  C   UNL     1     -44.786 -53.980  13.278  1.00  0.00     0.002 C 
HETATM   22  C   UNL     1     -43.930 -53.258  12.240  1.00  0.00     0.025 C 
ENDBRANCH   1  16
TORSDOF 4
ENDMDL
MODEL 2
REMARK VINA RESULT:      -6.4      1.356      1.767
REMARK  4 active torsions:
REMARK  status: ('A' for Active; 'I' for Inactive)
REMARK    1  A    between atoms: C_7  and  N_8 
REMARK       I    between atoms: N_8  and  C_9 
REMARK    2  A    between atoms: C_9  and  C_11 
REMARK    3  A    between atoms: C_11  and  N_12 
REMARK    4  A    between atoms: C_14  and  N_19 
ROOT
HETATM    1  N   UNL     1     -43.188 -51.085  12.551  1.00  0.00    -0.355 N 
HETATM    2  C   UNL     1     -42.498 -49.894  12.670  1.00  0.00     0.236 C 
HETATM    3  O   UNL     1     -42.652 -49.109  13.602  1.00  0.00    -0.272 OA
HETATM    4  H   UNL     1     -42.784 -51.801  11.949  1.00  0.00     0.162 HD
ENDROOT
BRANCH   2   5
HETATM    5  C   UNL     1     -41.474 -49.637  11.567  1.00  0.00     0.234 C 
BRANCH   5   6
HETATM    6  N   UNL     1     -41.443 -48.230  11.174  1.00  0.00    -0.314 N 
HETATM    7  C   UNL     1     -42.492 -47.702  10.423  1.00  0.00     0.130 A 
HETATM    8  C   UNL     1     -42.449 -46.429   9.989  1.00  0.00     0.118 A 
HETATM    9  C   UNL     1     -41.309 -45.592  10.301  1.00  0.00     0.043 A 
HETATM   10  C   UNL     1     -40.305 -46.070  11.051  1.00  0.00     0.077 A 
HETATM   11  C   UNL     1     -40.344 -47.469  11.566  1.00  0.00     0.247 A 
HETATM   12  O   UNL     1     -39.437 -47.885  12.282  1.00  0.00    -0.268 OA
BRANCH   8  13
HETATM   13  N   UNL     1     -43.556 -45.941   9.167  1.00  0.00    -0.114 N 
HETATM   14  O   UNL     1     -43.743 -44.715   9.143  1.00  0.00    -0.532 OA
HETATM   15  O   UNL     1     -44.231 -46.764   8.533  1.00  0.00    -0.532 OA
ENDBRANCH   8  13
ENDBRANCH   5   6
ENDBRANCH   2   5
BRANCH   1  16
HETATM   16  C   UNL     1     -44.180 -51.489  13.539  1.00  0.00     0.088 C 
HETATM   17  C   UNL     1     -44.043 -52.974  13.950  1.00  0.00     0.004 C 
HETATM   18  C   UNL     1     -44.141 -53.943  12.765  1.00  0.00     0.012 C 
HETATM   19  C   UNL     1     -45.094 -53.310  15.024  1.00  0.00     0.006 C 
HETATM   20  C   UNL     1     -46.519 -52.960  14.595  1.00  0.00     0.001 C 
HETATM   21  C   UNL     1     -46.637 -51.511  14.130  1.00  0.00     0.002 C 
HETATM   22  C   UNL     1     -45.600 -51.152  13.067  1.00  0.00     0.025 C 
ENDBRANCH   1  16
TORSDOF 4
ENDMDL
MODEL 3
REMARK VINA RESULT:      -6.4      2.518      3.709
REMARK  4 active torsions:
REMARK  status: ('A' for Active; 'I' for Inactive)
REMARK    1  A    between atoms: C_7  and  N_8 
REMARK       I    between atoms: N_8  and  C_9 
REMARK    2  A    between atoms: C_9  and  C_11 
REMARK    3  A    between atoms: C_11  and  N_12 
REMARK    4  A    between atoms: C_14  and  N_19 
ROOT
HETATM    1  N   UNL     1     -43.598 -51.965  12.825  1.00  0.00    -0.355 N 
HETATM    2  C   UNL     1     -42.272 -52.288  13.042  1.00  0.00     0.236 C 
HETATM    3  O   UNL     1     -41.843 -52.723  14.108  1.00  0.00    -0.272 OA
HETATM    4  H   UNL     1     -43.916 -51.922  11.859  1.00  0.00     0.162 HD
ENDROOT
BRANCH   2   5
HETATM    5  C   UNL     1     -41.366 -52.108  11.827  1.00  0.00     0.234 C 
BRANCH   5   6
HETATM    6  N   UNL     1     -40.593 -50.871  11.906  1.00  0.00    -0.314 N 
HETATM    7  C   UNL     1     -41.152 -49.679  11.449  1.00  0.00     0.130 A 
HETATM    8  C   UNL     1     -40.432 -48.543  11.445  1.00  0.00     0.118 A 
HETATM    9  C   UNL     1     -39.064 -48.547  11.920  1.00  0.00     0.043 A 
HETATM   10  C   UNL     1     -38.518 -49.675  12.397  1.00  0.00     0.077 A 
HETATM   11  C   UNL     1     -39.306 -50.941  12.437  1.00  0.00     0.247 A 
HETATM   12  O   UNL     1     -38.808 -51.959  12.908  1.00  0.00    -0.268 OA
BRANCH   8  13
HETATM   13  N   UNL     1     -41.053 -47.331  10.911  1.00  0.00    -0.114 N 
HETATM   14  O   UNL     1     -40.309 -46.362  10.699  1.00  0.00    -0.532 OA
HETATM   15  O   UNL     1     -42.272 -47.340  10.689  1.00  0.00    -0.532 OA
ENDBRANCH   8  13
ENDBRANCH   5   6
ENDBRANCH   2   5
BRANCH   1  16
HETATM   16  C   UNL     1     -44.595 -52.108  13.879  1.00  0.00     0.088 C 
HETATM   17  C   UNL     1     -45.963 -52.592  13.343  1.00  0.00     0.004 C 
HETATM   18  C   UNL     1     -46.551 -51.675  12.263  1.00  0.00     0.012 C 
HETATM   19  C   UNL     1     -46.946 -52.759  14.517  1.00  0.00     0.006 C 
HETATM   20  C   UNL     1     -47.074 -51.498  15.372  1.00  0.00     0.001 C 
HETATM   21  C   UNL     1     -45.717 -50.987  15.847  1.00  0.00     0.002 C 
HETATM   22  C   UNL     1     -44.723 -50.818  14.699  1.00  0.00     0.025 C 
ENDBRANCH   1  16
TORSDOF 4
ENDMDL
MODEL 4
REMARK VINA RESULT:      -6.1      2.230      2.704
REMARK  4 active torsions:
REMARK  status: ('A' for Active; 'I' for Inactive)
REMARK    1  A    between atoms: C_7  and  N_8 
REMARK       I    between atoms: N_8  and  C_9 
REMARK    2  A    between atoms: C_9  and  C_11 
REMARK    3  A    between atoms: C_11  and  N_12 
REMARK    4  A    between atoms: C_14  and  N_19 
ROOT
HETATM    1  N   UNL     1     -43.144 -50.163  12.409  1.00  0.00    -0.355 N 
HETATM    2  C   UNL     1     -42.851 -48.813  12.382  1.00  0.00     0.236 C 
HETATM    3  O   UNL     1     -43.023 -48.061  13.338  1.00  0.00    -0.272 OA
HETATM    4  H   UNL     1     -42.689 -50.754  11.716  1.00  0.00     0.162 HD
ENDROOT
BRANCH   2   5
HETATM    5  C   UNL     1     -42.242 -48.319  11.073  1.00  0.00     0.234 C 
BRANCH   5   6
HETATM    6  N   UNL     1     -43.151 -47.430  10.354  1.00  0.00    -0.314 N 
HETATM    7  C   UNL     1     -44.377 -47.916   9.904  1.00  0.00     0.130 A 
HETATM    8  C   UNL     1     -45.197 -47.136   9.177  1.00  0.00     0.118 A 
HETATM    9  C   UNL     1     -44.814 -45.777   8.857  1.00  0.00     0.043 A 
HETATM   10  C   UNL     1     -43.654 -45.277   9.309  1.00  0.00     0.077 A 
HETATM   11  C   UNL     1     -42.741 -46.115  10.140  1.00  0.00     0.247 A 
HETATM   12  O   UNL     1     -41.700 -45.637  10.579  1.00  0.00    -0.268 OA
BRANCH   8  13
HETATM   13  N   UNL     1     -46.451 -47.712   8.692  1.00  0.00    -0.114 N 
HETATM   14  O   UNL     1     -46.366 -48.624   7.856  1.00  0.00    -0.532 OA
HETATM   15  O   UNL     1     -47.518 -47.275   9.144  1.00  0.00    -0.532 OA
ENDBRANCH   8  13
ENDBRANCH   5   6
ENDBRANCH   2   5
BRANCH   1  16
HETATM   16  C   UNL     1     -43.706 -50.794  13.597  1.00  0.00     0.088 C 
HETATM   17  C   UNL     1     -42.922 -52.055  14.029  1.00  0.00     0.004 C 
HETATM   18  C   UNL     1     -42.833 -53.122  12.931  1.00  0.00     0.012 C 
HETATM   19  C   UNL     1     -43.548 -52.636  15.310  1.00  0.00     0.006 C 
HETATM   20  C   UNL     1     -45.046 -52.908  15.173  1.00  0.00     0.001 C 
HETATM   21  C   UNL     1     -45.809 -51.679  14.684  1.00  0.00     0.002 C 
HETATM   22  C   UNL     1     -45.202 -51.081  13.416  1.00  0.00     0.025 C 
ENDBRANCH   1  16
TORSDOF 4
ENDMDL
MODEL 5
REMARK VINA RESULT:      -5.9      2.822      7.381
REMARK  4 active torsions:
REMARK  status: ('A' for Active; 'I' for Inactive)
REMARK    1  A    between atoms: C_7  and  N_8 
REMARK       I    between atoms: N_8  and  C_9 
REMARK    2  A    between atoms: C_9  and  C_11 
REMARK    3  A    between atoms: C_11  and  N_12 
REMARK    4  A    between atoms: C_14  and  N_19 
ROOT
HETATM    1  N   UNL     1     -41.666 -49.894  11.406  1.00  0.00    -0.355 N 
HETATM    2  C   UNL     1     -41.315 -50.881  12.308  1.00  0.00     0.236 C 
HETATM    3  O   UNL     1     -40.993 -50.655  13.472  1.00  0.00    -0.272 OA
HETATM    4  H   UNL     1     -42.210 -50.177  10.593  1.00  0.00     0.162 HD
ENDROOT
BRANCH   2   5
HETATM    5  C   UNL     1     -41.402 -52.304  11.762  1.00  0.00     0.234 C 
BRANCH   5   6
HETATM    6  N   UNL     1     -41.916 -53.236  12.762  1.00  0.00    -0.314 N 
HETATM    7  C   UNL     1     -43.290 -53.447  12.865  1.00  0.00     0.130 A 
HETATM    8  C   UNL     1     -43.789 -54.245  13.826  1.00  0.00     0.118 A 
HETATM    9  C   UNL     1     -42.900 -54.897  14.765  1.00  0.00     0.043 A 
HETATM   10  C   UNL     1     -41.573 -54.736  14.662  1.00  0.00     0.077 A 
HETATM   11  C   UNL     1     -40.995 -53.878  13.587  1.00  0.00     0.247 A 
HETATM   12  O   UNL     1     -39.778 -53.766  13.480  1.00  0.00    -0.268 OA
BRANCH   8  13
HETATM   13  N   UNL     1     -45.242 -54.394  13.917  1.00  0.00    -0.114 N 
HETATM   14  O   UNL     1     -45.690 -55.550  13.944  1.00  0.00    -0.532 OA
HETATM   15  O   UNL     1     -45.939 -53.372  13.975  1.00  0.00    -0.532 OA
ENDBRANCH   8  13
ENDBRANCH   5   6
ENDBRANCH   2   5
BRANCH   1  16
HETATM   16  C   UNL     1     -41.660 -48.486  11.782  1.00  0.00     0.088 C 
HETATM   17  C   UNL     1     -42.813 -47.689  11.128  1.00  0.00     0.004 C 
HETATM   18  C   UNL     1     -42.810 -47.764   9.596  1.00  0.00     0.012 C 
HETATM   19  C   UNL     1     -42.765 -46.227  11.607  1.00  0.00     0.006 C 
HETATM   20  C   UNL     1     -41.405 -45.567  11.376  1.00  0.00     0.001 C 
HETATM   21  C   UNL     1     -40.263 -46.388  11.968  1.00  0.00     0.002 C 
HETATM   22  C   UNL     1     -40.293 -47.846  11.511  1.00  0.00     0.025 C 
ENDBRANCH   1  16
TORSDOF 4
ENDMDL
MODEL 6
REMARK VINA RESULT:      -5.9      2.917      4.086
REMARK  4 active torsions:
REMARK  status: ('A' for Active; 'I' for Inactive)
REMARK    1  A    between atoms: C_7  and  N_8 
REMARK       I    between atoms: N_8  and  C_9 
REMARK    2  A    between atoms: C_9  and  C_11 
REMARK    3  A    between atoms: C_11  and  N_12 
REMARK    4  A    between atoms: C_14  and  N_19 
ROOT
HETATM    1  N   UNL     1     -41.114 -52.767  14.293  1.00  0.00    -0.355 N 
HETATM    2  C   UNL     1     -39.816 -53.001  13.880  1.00  0.00     0.236 C 
HETATM    3  O   UNL     1     -39.495 -53.929  13.141  1.00  0.00    -0.272 OA
HETATM    4  H   UNL     1     -41.336 -51.830  14.625  1.00  0.00     0.162 HD
ENDROOT
BRANCH   2   5
HETATM    5  C   UNL     1     -38.795 -51.979  14.374  1.00  0.00     0.234 C 
BRANCH   5   6
HETATM    6  N   UNL     1     -38.634 -50.875  13.430  1.00  0.00    -0.314 N 
HETATM    7  C   UNL     1     -39.501 -49.785  13.491  1.00  0.00     0.130 A 
HETATM    8  C   UNL     1     -39.417 -48.793  12.587  1.00  0.00     0.118 A 
HETATM    9  C   UNL     1     -38.419 -48.847  11.538  1.00  0.00     0.043 A 
HETATM   10  C   UNL     1     -37.553 -49.869  11.482  1.00  0.00     0.077 A 
HETATM   11  C   UNL     1     -37.610 -50.967  12.491  1.00  0.00     0.247 A 
HETATM   12  O   UNL     1     -36.789 -51.879  12.451  1.00  0.00    -0.268 OA
BRANCH   8  13
HETATM   13  N   UNL     1     -40.381 -47.696  12.670  1.00  0.00    -0.114 N 
HETATM   14  O   UNL     1     -40.653 -47.269  13.802  1.00  0.00    -0.532 OA
HETATM   15  O   UNL     1     -40.859 -47.247  11.620  1.00  0.00    -0.532 OA
ENDBRANCH   8  13
ENDBRANCH   5   6
ENDBRANCH   2   5
BRANCH   1  16
HETATM   16  C   UNL     1     -42.209 -53.636  13.884  1.00  0.00     0.088 C 
HETATM   17  C   UNL     1     -43.207 -52.932  12.935  1.00  0.00     0.004 C 
HETATM   18  C   UNL     1     -43.819 -51.659  13.533  1.00  0.00     0.012 C 
HETATM   19  C   UNL     1     -44.306 -53.926  12.515  1.00  0.00     0.006 C 
HETATM   20  C   UNL     1     -45.007 -54.580  13.706  1.00  0.00     0.001 C 
HETATM   21  C   UNL     1     -44.015 -55.219  14.673  1.00  0.00     0.002 C 
HETATM   22  C   UNL     1     -42.911 -54.253  15.101  1.00  0.00     0.025 C 
ENDBRANCH   1  16
TORSDOF 4
ENDMDL
MODEL 7
REMARK VINA RESULT:      -5.8      2.434      7.028
REMARK  4 active torsions:
REMARK  status: ('A' for Active; 'I' for Inactive)
REMARK    1  A    between atoms: C_7  and  N_8 
REMARK       I    between atoms: N_8  and  C_9 
REMARK    2  A    between atoms: C_9  and  C_11 
REMARK    3  A    between atoms: C_11  and  N_12 
REMARK    4  A    between atoms: C_14  and  N_19 
ROOT
HETATM    1  N   UNL     1     -42.441 -48.625  11.872  1.00  0.00    -0.355 N 
HETATM    2  C   UNL     1     -41.402 -49.537  11.884  1.00  0.00     0.236 C 
HETATM    3  O   UNL     1     -40.676 -49.754  10.917  1.00  0.00    -0.272 OA
HETATM    4  H   UNL     1     -42.772 -48.283  12.772  1.00  0.00     0.162 HD
ENDROOT
BRANCH   2   5
HETATM    5  C   UNL     1     -41.182 -50.234  13.224  1.00  0.00     0.234 C 
BRANCH   5   6
HETATM    6  N   UNL     1     -41.450 -51.668  13.138  1.00  0.00    -0.314 N 
HETATM    7  C   UNL     1     -42.764 -52.117  13.021  1.00  0.00     0.130 A 
HETATM    8  C   UNL     1     -43.040 -53.433  13.014  1.00  0.00     0.118 A 
HETATM    9  C   UNL     1     -41.968 -54.401  13.126  1.00  0.00     0.043 A 
HETATM   10  C   UNL     1     -40.694 -53.992  13.205  1.00  0.00     0.077 A 
HETATM   11  C   UNL     1     -40.362 -52.537  13.187  1.00  0.00     0.247 A 
HETATM   12  O   UNL     1     -39.191 -52.175  13.223  1.00  0.00    -0.268 OA
BRANCH   8  13
HETATM   13  N   UNL     1     -44.441 -53.847  12.935  1.00  0.00    -0.114 N 
HETATM   14  O   UNL     1     -45.181 -53.194  12.185  1.00  0.00    -0.532 OA
HETATM   15  O   UNL     1     -44.807 -54.825  13.602  1.00  0.00    -0.532 OA
ENDBRANCH   8  13
ENDBRANCH   5   6
ENDBRANCH   2   5
BRANCH   1  16
HETATM   16  C   UNL     1     -42.762 -47.857  10.676  1.00  0.00     0.088 C 
HETATM   17  C   UNL     1     -42.127 -46.446  10.686  1.00  0.00     0.004 C 
HETATM   18  C   UNL     1     -42.532 -45.607  11.904  1.00  0.00     0.012 C 
HETATM   19  C   UNL     1     -42.475 -45.717   9.375  1.00  0.00     0.006 C 
HETATM   20  C   UNL     1     -43.978 -45.671   9.097  1.00  0.00     0.001 C 
HETATM   21  C   UNL     1     -44.612 -47.058   9.151  1.00  0.00     0.002 C 
HETATM   22  C   UNL     1     -44.277 -47.804  10.442  1.00  0.00     0.025 C 
ENDBRANCH   1  16
TORSDOF 4
ENDMDL
MODEL 8
REMARK VINA RESULT:      -5.8      2.576      4.283
REMARK  4 active torsions:
REMARK  status: ('A' for Active; 'I' for Inactive)
REMARK    1  A    between atoms: C_7  and  N_8 
REMARK       I    between atoms: N_8  and  C_9 
REMARK    2  A    between atoms: C_9  and  C_11 
REMARK    3  A    between atoms: C_11  and  N_12 
REMARK    4  A    between atoms: C_14  and  N_19 
ROOT
HETATM    1  N   UNL     1     -43.068 -51.434  12.582  1.00  0.00    -0.355 N 
HETATM    2  C   UNL     1     -42.907 -50.133  13.018  1.00  0.00     0.236 C 
HETATM    3  O   UNL     1     -43.306 -49.726  14.107  1.00  0.00    -0.272 OA
HETATM    4  H   UNL     1     -42.449 -51.758  11.841  1.00  0.00     0.162 HD
ENDROOT
BRANCH   2   5
HETATM    5  C   UNL     1     -42.140 -49.228  12.057  1.00  0.00     0.234 C 
BRANCH   5   6
HETATM    6  N   UNL     1     -40.727 -49.131  12.415  1.00  0.00    -0.314 N 
HETATM    7  C   UNL     1     -39.946 -50.285  12.456  1.00  0.00     0.130 A 
HETATM    8  C   UNL     1     -38.663 -50.229  12.854  1.00  0.00     0.118 A 
HETATM    9  C   UNL     1     -38.077 -48.963  13.243  1.00  0.00     0.043 A 
HETATM   10  C   UNL     1     -38.800 -47.835  13.178  1.00  0.00     0.077 A 
HETATM   11  C   UNL     1     -40.217 -47.869  12.714  1.00  0.00     0.247 A 
HETATM   12  O   UNL     1     -40.858 -46.827  12.624  1.00  0.00    -0.268 OA
BRANCH   8  13
HETATM   13  N   UNL     1     -37.903 -51.477  12.922  1.00  0.00    -0.114 N 
HETATM   14  O   UNL     1     -38.392 -52.399  13.592  1.00  0.00    -0.532 OA
HETATM   15  O   UNL     1     -36.832 -51.553  12.304  1.00  0.00    -0.532 OA
ENDBRANCH   8  13
ENDBRANCH   5   6
ENDBRANCH   2   5
BRANCH   1  16
HETATM   16  C   UNL     1     -43.754 -52.428  13.398  1.00  0.00     0.088 C 
HETATM   17  C   UNL     1     -42.776 -53.330  14.187  1.00  0.00     0.004 C 
HETATM   18  C   UNL     1     -41.775 -54.070  13.290  1.00  0.00     0.012 C 
HETATM   19  C   UNL     1     -43.575 -54.321  15.053  1.00  0.00     0.006 C 
HETATM   20  C   UNL     1     -44.589 -55.135  14.249  1.00  0.00     0.001 C 
HETATM   21  C   UNL     1     -45.512 -54.244  13.422  1.00  0.00     0.002 C 
HETATM   22  C   UNL     1     -44.741 -53.248  12.557  1.00  0.00     0.025 C 
ENDBRANCH   1  16
TORSDOF 4
ENDMDL
MODEL 9
REMARK VINA RESULT:      -5.5      3.936      7.939
REMARK  4 active torsions:
REMARK  status: ('A' for Active; 'I' for Inactive)
REMARK    1  A    between atoms: C_7  and  N_8 
REMARK       I    between atoms: N_8  and  C_9 
REMARK    2  A    between atoms: C_9  and  C_11 
REMARK    3  A    between atoms: C_11  and  N_12 
REMARK    4  A    between atoms: C_14  and  N_19 
ROOT
HETATM    1  N   UNL     1     -40.311 -51.399  13.130  1.00  0.00    -0.355 N 
HETATM    2  C   UNL     1     -41.691 -51.331  13.097  1.00  0.00     0.236 C 
HETATM    3  O   UNL     1     -42.341 -50.444  13.644  1.00  0.00    -0.272 OA
HETATM    4  H   UNL     1     -39.853 -51.955  12.411  1.00  0.00     0.162 HD
ENDROOT
BRANCH   2   5
HETATM    5  C   UNL     1     -42.363 -52.427  12.275  1.00  0.00     0.234 C 
BRANCH   5   6
HETATM    6  N   UNL     1     -43.039 -53.404  13.126  1.00  0.00    -0.314 N 
HETATM    7  C   UNL     1     -42.337 -54.018  14.161  1.00  0.00     0.130 A 
HETATM    8  C   UNL     1     -42.917 -54.972  14.910  1.00  0.00     0.118 A 
HETATM    9  C   UNL     1     -44.285 -55.371  14.648  1.00  0.00     0.043 A 
HETATM   10  C   UNL     1     -44.990 -54.768  13.680  1.00  0.00     0.077 A 
HETATM   11  C   UNL     1     -44.376 -53.688  12.855  1.00  0.00     0.247 A 
HETATM   12  O   UNL     1     -45.042 -53.119  11.995  1.00  0.00    -0.268 OA
BRANCH   8  13
HETATM   13  N   UNL     1     -42.119 -55.616  15.953  1.00  0.00    -0.114 N 
HETATM   14  O   UNL     1     -41.012 -55.116  16.205  1.00  0.00    -0.532 OA
HETATM   15  O   UNL     1     -42.589 -56.605  16.533  1.00  0.00    -0.532 OA
ENDBRANCH   8  13
ENDBRANCH   5   6
ENDBRANCH   2   5
BRANCH   1  16
HETATM   16  C   UNL     1     -39.520 -50.408  13.850  1.00  0.00     0.088 C 
HETATM   17  C   UNL     1     -38.477 -49.708  12.948  1.00  0.00     0.004 C 
HETATM   18  C   UNL     1     -37.505 -50.684  12.273  1.00  0.00     0.012 C 
HETATM   19  C   UNL     1     -37.715 -48.650  13.767  1.00  0.00     0.006 C 
HETATM   20  C   UNL     1     -37.087 -49.219  15.039  1.00  0.00     0.001 C 
HETATM   21  C   UNL     1     -38.105 -49.965  15.897  1.00  0.00     0.002 C 
HETATM   22  C   UNL     1     -38.878 -51.017  15.104  1.00  0.00     0.025 C 
ENDBRANCH   1  16
TORSDOF 4
ENDMDL
