MODEL 1
REMARK VINA RESULT:      -5.8      0.000      0.000
REMARK  3 active torsions:
REMARK  status: ('A' for Active; 'I' for Inactive)
REMARK    1  A    between atoms: O_1  and  C_2 
REMARK    2  A    between atoms: C_5  and  N_8 
REMARK       I    between atoms: N_8  and  C_9 
REMARK       I    between atoms: C_9  and  N_11 
REMARK    3  A    between atoms: N_11  and  C_12 
ROOT
HETATM    1  N   UNL     1     -43.477 -51.174  12.645  1.00  0.00    -0.338 N 
HETATM    2  C   UNL     1     -42.126 -51.221  12.351  1.00  0.00     0.322 C 
HETATM    3  O   UNL     1     -41.460 -52.230  12.530  1.00  0.00    -0.247 OA
HETATM    4  N   UNL     1     -41.665 -50.002  11.924  1.00  0.00    -0.288 N 
HETATM    5  H   UNL     1     -44.036 -50.566  12.065  1.00  0.00     0.164 HD
HETATM    6  H   UNL     1     -42.224 -49.183  12.082  1.00  0.00     0.172 HD
ENDROOT
BRANCH   1   7
HETATM    7  C   UNL     1     -44.133 -52.345  13.233  1.00  0.00     0.086 C 
HETATM    8  C   UNL     1     -45.481 -52.641  12.561  1.00  0.00     0.028 C 
HETATM    9  C   UNL     1     -46.557 -51.621  12.939  1.00  0.00     0.034 C 
HETATM   10  C   UNL     1     -46.702 -51.475  14.454  1.00  0.00     0.118 C 
HETATM   11  C   UNL     1     -45.365 -51.165  15.126  1.00  0.00     0.034 C 
HETATM   12  C   UNL     1     -44.283 -52.177  14.746  1.00  0.00     0.028 C 
BRANCH  10  13
HETATM   13  O   UNL     1     -47.214 -52.685  15.005  1.00  0.00    -0.396 OA
HETATM   14  H   UNL     1     -47.047 -52.669  15.963  1.00  0.00     0.210 HD
ENDBRANCH  10  13
ENDBRANCH   1   7
BRANCH   4  15
HETATM   15  C   UNL     1     -40.327 -49.817  11.694  1.00  0.00     0.168 A 
HETATM   16  N   UNL     1     -39.603 -50.091  10.635  1.00  0.00    -0.279 N 
HETATM   17  N   UNL     1     -38.262 -49.824  10.838  1.00  0.00    -0.303 N 
ATOM     18  HN  UNL     1     -39.986 -50.458   9.764  1.00  0.00     0.189 HD
HETATM   19  C   UNL     1     -38.043 -49.360  12.050  1.00  0.00     0.160 A 
ATOM     20  HN  UNL     1     -37.536 -49.968  10.136  1.00  0.00     0.186 HD
HETATM   21  S   UNL     1     -39.454 -49.154  13.007  1.00  0.00    -0.046 SA
ENDBRANCH   4  15
TORSDOF 3
ENDMDL
MODEL 2
REMARK VINA RESULT:      -5.7      1.749      1.887
REMARK  3 active torsions:
REMARK  status: ('A' for Active; 'I' for Inactive)
REMARK    1  A    between atoms: O_1  and  C_2 
REMARK    2  A    between atoms: C_5  and  N_8 
REMARK       I    between atoms: N_8  and  C_9 
REMARK       I    between atoms: C_9  and  N_11 
REMARK    3  A    between atoms: N_11  and  C_12 
ROOT
HETATM    1  N   UNL     1     -42.319 -52.623  13.425  1.00  0.00    -0.338 N 
HETATM    2  C   UNL     1     -41.265 -52.306  12.588  1.00  0.00     0.322 C 
HETATM    3  O   UNL     1     -40.841 -53.092  11.754  1.00  0.00    -0.247 OA
HETATM    4  N   UNL     1     -40.751 -51.067  12.879  1.00  0.00    -0.288 N 
HETATM    5  H   UNL     1     -42.909 -51.854  13.707  1.00  0.00     0.164 HD
HETATM    6  H   UNL     1     -40.984 -50.632  13.754  1.00  0.00     0.172 HD
ENDROOT
BRANCH   1   7
HETATM    7  C   UNL     1     -42.927 -53.954  13.354  1.00  0.00     0.086 C 
HETATM    8  C   UNL     1     -44.145 -53.978  12.421  1.00  0.00     0.028 C 
HETATM    9  C   UNL     1     -45.354 -53.258  13.021  1.00  0.00     0.034 C 
HETATM   10  C   UNL     1     -45.701 -53.785  14.414  1.00  0.00     0.118 C 
HETATM   11  C   UNL     1     -44.495 -53.750  15.352  1.00  0.00     0.034 C 
HETATM   12  C   UNL     1     -43.281 -54.462  14.754  1.00  0.00     0.028 C 
BRANCH  10  13
HETATM   13  O   UNL     1     -46.158 -55.131  14.317  1.00  0.00    -0.396 OA
HETATM   14  H   UNL     1     -46.433 -55.416  15.205  1.00  0.00     0.210 HD
ENDBRANCH  10  13
ENDBRANCH   1   7
BRANCH   4  15
HETATM   15  C   UNL     1     -39.626 -50.623  12.235  1.00  0.00     0.168 A 
HETATM   16  N   UNL     1     -39.476 -50.155  11.019  1.00  0.00    -0.279 N 
HETATM   17  N   UNL     1     -38.152 -49.889  10.724  1.00  0.00    -0.303 N 
ATOM     18  HN  UNL     1     -40.246 -50.006  10.367  1.00  0.00     0.189 HD
HETATM   19  C   UNL     1     -37.366 -50.173  11.742  1.00  0.00     0.160 A 
ATOM     20  HN  UNL     1     -37.826 -49.519   9.831  1.00  0.00     0.186 HD
HETATM   21  S   UNL     1     -38.184 -50.722  13.149  1.00  0.00    -0.046 SA
ENDBRANCH   4  15
TORSDOF 3
ENDMDL
MODEL 3
REMARK VINA RESULT:      -5.6      2.417      2.732
REMARK  3 active torsions:
REMARK  status: ('A' for Active; 'I' for Inactive)
REMARK    1  A    between atoms: O_1  and  C_2 
REMARK    2  A    between atoms: C_5  and  N_8 
REMARK       I    between atoms: N_8  and  C_9 
REMARK       I    between atoms: C_9  and  N_11 
REMARK    3  A    between atoms: N_11  and  C_12 
ROOT
HETATM    1  N   UNL     1     -43.645 -50.339  12.465  1.00  0.00    -0.338 N 
HETATM    2  C   UNL     1     -42.556 -49.506  12.283  1.00  0.00     0.322 C 
HETATM    3  O   UNL     1     -41.635 -49.460  13.086  1.00  0.00    -0.247 OA
HETATM    4  N   UNL     1     -42.701 -48.729  11.162  1.00  0.00    -0.288 N 
HETATM    5  H   UNL     1     -44.078 -50.692  11.625  1.00  0.00     0.164 HD
HETATM    6  H   UNL     1     -43.609 -48.644  10.739  1.00  0.00     0.172 HD
ENDROOT
BRANCH   1   7
HETATM    7  C   UNL     1     -43.735 -51.162  13.673  1.00  0.00     0.086 C 
HETATM    8  C   UNL     1     -43.339 -52.620  13.403  1.00  0.00     0.028 C 
HETATM    9  C   UNL     1     -44.397 -53.371  12.592  1.00  0.00     0.034 C 
HETATM   10  C   UNL     1     -45.784 -53.273  13.228  1.00  0.00     0.118 C 
HETATM   11  C   UNL     1     -46.189 -51.822  13.486  1.00  0.00     0.034 C 
HETATM   12  C   UNL     1     -45.132 -51.064  14.291  1.00  0.00     0.028 C 
BRANCH  10  13
HETATM   13  O   UNL     1     -45.792 -53.970  14.470  1.00  0.00    -0.396 OA
HETATM   14  H   UNL     1     -45.336 -54.819  14.337  1.00  0.00     0.210 HD
ENDBRANCH  10  13
ENDBRANCH   1   7
BRANCH   4  15
HETATM   15  C   UNL     1     -41.780 -47.757  10.876  1.00  0.00     0.168 A 
HETATM   16  N   UNL     1     -40.470 -47.817  10.836  1.00  0.00    -0.279 N 
HETATM   17  N   UNL     1     -39.900 -46.583  10.585  1.00  0.00    -0.303 N 
ATOM     18  HN  UNL     1     -39.935 -48.674  10.975  1.00  0.00     0.189 HD
HETATM   19  C   UNL     1     -40.817 -45.649  10.448  1.00  0.00     0.160 A 
ATOM     20  HN  UNL     1     -38.895 -46.418  10.514  1.00  0.00     0.186 HD
HETATM   21  S   UNL     1     -42.437 -46.212  10.551  1.00  0.00    -0.046 SA
ENDBRANCH   4  15
TORSDOF 3
ENDMDL
MODEL 4
REMARK VINA RESULT:      -5.5      4.662      7.039
REMARK  3 active torsions:
REMARK  status: ('A' for Active; 'I' for Inactive)
REMARK    1  A    between atoms: O_1  and  C_2 
REMARK    2  A    between atoms: C_5  and  N_8 
REMARK       I    between atoms: N_8  and  C_9 
REMARK       I    between atoms: C_9  and  N_11 
REMARK    3  A    between atoms: N_11  and  C_12 
ROOT
HETATM    1  N   UNL     1     -41.158 -46.898  11.487  1.00  0.00    -0.338 N 
HETATM    2  C   UNL     1     -41.283 -48.227  11.126  1.00  0.00     0.322 C 
HETATM    3  O   UNL     1     -41.491 -48.567   9.971  1.00  0.00    -0.247 OA
HETATM    4  N   UNL     1     -41.214 -49.052  12.220  1.00  0.00    -0.288 N 
HETATM    5  H   UNL     1     -40.541 -46.704  12.262  1.00  0.00     0.164 HD
HETATM    6  H   UNL     1     -41.325 -48.658  13.138  1.00  0.00     0.172 HD
ENDROOT
BRANCH   1   7
HETATM    7  C   UNL     1     -41.326 -45.852  10.475  1.00  0.00     0.086 C 
HETATM    8  C   UNL     1     -40.036 -45.048  10.265  1.00  0.00     0.028 C 
HETATM    9  C   UNL     1     -39.731 -44.117  11.440  1.00  0.00     0.034 C 
HETATM   10  C   UNL     1     -40.914 -43.207  11.772  1.00  0.00     0.118 C 
HETATM   11  C   UNL     1     -42.199 -44.004  11.996  1.00  0.00     0.034 C 
HETATM   12  C   UNL     1     -42.505 -44.942  10.828  1.00  0.00     0.028 C 
BRANCH  10  13
HETATM   13  O   UNL     1     -41.132 -42.294  10.701  1.00  0.00    -0.396 OA
HETATM   14  H   UNL     1     -41.098 -42.797   9.869  1.00  0.00     0.210 HD
ENDBRANCH  10  13
ENDBRANCH   1   7
BRANCH   4  15
HETATM   15  C   UNL     1     -41.432 -50.397  12.081  1.00  0.00     0.168 A 
HETATM   16  N   UNL     1     -40.881 -51.264  11.267  1.00  0.00    -0.279 N 
HETATM   17  N   UNL     1     -41.442 -52.522  11.388  1.00  0.00    -0.303 N 
ATOM     18  HN  UNL     1     -40.126 -51.037  10.620  1.00  0.00     0.189 HD
HETATM   19  C   UNL     1     -42.397 -52.536  12.294  1.00  0.00     0.160 A 
ATOM     20  HN  UNL     1     -41.152 -53.335  10.843  1.00  0.00     0.186 HD
HETATM   21  S   UNL     1     -42.637 -51.043  13.107  1.00  0.00    -0.046 SA
ENDBRANCH   4  15
TORSDOF 3
ENDMDL
MODEL 5
REMARK VINA RESULT:      -5.2      4.103      5.336
REMARK  3 active torsions:
REMARK  status: ('A' for Active; 'I' for Inactive)
REMARK    1  A    between atoms: O_1  and  C_2 
REMARK    2  A    between atoms: C_5  and  N_8 
REMARK       I    between atoms: N_8  and  C_9 
REMARK       I    between atoms: C_9  and  N_11 
REMARK    3  A    between atoms: N_11  and  C_12 
ROOT
HETATM    1  N   UNL     1     -42.397 -48.750  10.830  1.00  0.00    -0.338 N 
HETATM    2  C   UNL     1     -41.914 -49.557  11.844  1.00  0.00     0.322 C 
HETATM    3  O   UNL     1     -42.340 -49.484  12.988  1.00  0.00    -0.247 OA
HETATM    4  N   UNL     1     -40.888 -50.354  11.404  1.00  0.00    -0.288 N 
HETATM    5  H   UNL     1     -42.394 -49.151   9.904  1.00  0.00     0.164 HD
HETATM    6  H   UNL     1     -40.435 -50.135  10.535  1.00  0.00     0.172 HD
ENDROOT
BRANCH   1   7
HETATM    7  C   UNL     1     -43.414 -47.739  11.129  1.00  0.00     0.086 C 
HETATM    8  C   UNL     1     -44.554 -47.755  10.102  1.00  0.00     0.028 C 
HETATM    9  C   UNL     1     -44.126 -47.187   8.747  1.00  0.00     0.034 C 
HETATM   10  C   UNL     1     -43.505 -45.796   8.878  1.00  0.00     0.118 C 
HETATM   11  C   UNL     1     -42.360 -45.778   9.890  1.00  0.00     0.034 C 
HETATM   12  C   UNL     1     -42.780 -46.351  11.244  1.00  0.00     0.028 C 
BRANCH  10  13
HETATM   13  O   UNL     1     -44.498 -44.867   9.305  1.00  0.00    -0.396 OA
HETATM   14  H   UNL     1     -44.212 -43.979   9.030  1.00  0.00     0.210 HD
ENDBRANCH  10  13
ENDBRANCH   1   7
BRANCH   4  15
HETATM   15  C   UNL     1     -40.202 -51.142  12.290  1.00  0.00     0.168 A 
HETATM   16  N   UNL     1     -40.560 -52.252  12.889  1.00  0.00    -0.279 N 
HETATM   17  N   UNL     1     -39.601 -52.696  13.780  1.00  0.00    -0.303 N 
ATOM     18  HN  UNL     1     -41.444 -52.733  12.718  1.00  0.00     0.189 HD
HETATM   19  C   UNL     1     -38.561 -51.889  13.808  1.00  0.00     0.160 A 
ATOM     20  HN  UNL     1     -39.688 -53.542  14.344  1.00  0.00     0.186 HD
HETATM   21  S   UNL     1     -38.646 -50.571  12.709  1.00  0.00    -0.046 SA
ENDBRANCH   4  15
TORSDOF 3
ENDMDL
MODEL 6
REMARK VINA RESULT:      -5.1      3.586      5.202
REMARK  3 active torsions:
REMARK  status: ('A' for Active; 'I' for Inactive)
REMARK    1  A    between atoms: O_1  and  C_2 
REMARK    2  A    between atoms: C_5  and  N_8 
REMARK       I    between atoms: N_8  and  C_9 
REMARK       I    between atoms: C_9  and  N_11 
REMARK    3  A    between atoms: N_11  and  C_12 
ROOT
HETATM    1  N   UNL     1     -41.970 -50.304  11.845  1.00  0.00    -0.338 N 
HETATM    2  C   UNL     1     -42.555 -49.063  11.669  1.00  0.00     0.322 C 
HETATM    3  O   UNL     1     -43.248 -48.546  12.533  1.00  0.00    -0.247 OA
HETATM    4  N   UNL     1     -42.309 -48.567  10.414  1.00  0.00    -0.288 N 
HETATM    5  H   UNL     1     -41.086 -50.448  11.379  1.00  0.00     0.164 HD
HETATM    6  H   UNL     1     -41.974 -49.187   9.698  1.00  0.00     0.172 HD
ENDROOT
BRANCH   1   7
HETATM    7  C   UNL     1     -42.217 -51.055  13.078  1.00  0.00     0.086 C 
HETATM    8  C   UNL     1     -41.080 -50.878  14.093  1.00  0.00     0.028 C 
HETATM    9  C   UNL     1     -39.808 -51.621  13.680  1.00  0.00     0.034 C 
HETATM   10  C   UNL     1     -40.077 -53.097  13.386  1.00  0.00     0.118 C 
HETATM   11  C   UNL     1     -41.199 -53.279  12.365  1.00  0.00     0.034 C 
HETATM   12  C   UNL     1     -42.471 -52.532  12.769  1.00  0.00     0.028 C 
BRANCH  10  13
HETATM   13  O   UNL     1     -40.450 -53.764  14.588  1.00  0.00    -0.396 OA
HETATM   14  H   UNL     1     -41.029 -54.508  14.349  1.00  0.00     0.210 HD
ENDBRANCH  10  13
ENDBRANCH   1   7
BRANCH   4  15
HETATM   15  C   UNL     1     -42.902 -47.400  10.009  1.00  0.00     0.168 A 
HETATM   16  N   UNL     1     -43.023 -46.252  10.630  1.00  0.00    -0.279 N 
HETATM   17  N   UNL     1     -43.768 -45.342   9.903  1.00  0.00    -0.303 N 
ATOM     18  HN  UNL     1     -42.616 -46.053  11.544  1.00  0.00     0.189 HD
HETATM   19  C   UNL     1     -44.173 -45.857   8.761  1.00  0.00     0.160 A 
ATOM     20  HN  UNL     1     -43.976 -44.392  10.212  1.00  0.00     0.186 HD
HETATM   21  S   UNL     1     -43.626 -47.458   8.461  1.00  0.00    -0.046 SA
ENDBRANCH   4  15
TORSDOF 3
ENDMDL
MODEL 7
REMARK VINA RESULT:      -5.0      3.909      4.417
REMARK  3 active torsions:
REMARK  status: ('A' for Active; 'I' for Inactive)
REMARK    1  A    between atoms: O_1  and  C_2 
REMARK    2  A    between atoms: C_5  and  N_8 
REMARK       I    between atoms: N_8  and  C_9 
REMARK       I    between atoms: C_9  and  N_11 
REMARK    3  A    between atoms: N_11  and  C_12 
ROOT
HETATM    1  N   UNL     1     -41.534 -51.060  12.788  1.00  0.00    -0.338 N 
HETATM    2  C   UNL     1     -41.420 -50.122  11.778  1.00  0.00     0.322 C 
HETATM    3  O   UNL     1     -40.437 -50.066  11.054  1.00  0.00    -0.247 OA
HETATM    4  N   UNL     1     -42.491 -49.264  11.769  1.00  0.00    -0.288 N 
HETATM    5  H   UNL     1     -42.469 -51.375  12.998  1.00  0.00     0.164 HD
HETATM    6  H   UNL     1     -43.093 -49.223  12.572  1.00  0.00     0.172 HD
ENDROOT
BRANCH   1   7
HETATM    7  C   UNL     1     -40.432 -51.992  13.040  1.00  0.00     0.086 C 
HETATM    8  C   UNL     1     -40.783 -53.423  12.611  1.00  0.00     0.028 C 
HETATM    9  C   UNL     1     -41.797 -54.080  13.550  1.00  0.00     0.034 C 
HETATM   10  C   UNL     1     -41.346 -54.025  15.010  1.00  0.00     0.118 C 
HETATM   11  C   UNL     1     -41.008 -52.600  15.447  1.00  0.00     0.034 C 
HETATM   12  C   UNL     1     -40.001 -51.934  14.508  1.00  0.00     0.028 C 
BRANCH  10  13
HETATM   13  O   UNL     1     -40.188 -54.836  15.185  1.00  0.00    -0.396 OA
HETATM   14  H   UNL     1     -39.498 -54.285  15.593  1.00  0.00     0.210 HD
ENDBRANCH  10  13
ENDBRANCH   1   7
BRANCH   4  15
HETATM   15  C   UNL     1     -42.505 -48.193  10.915  1.00  0.00     0.168 A 
HETATM   16  N   UNL     1     -42.377 -48.148   9.610  1.00  0.00    -0.279 N 
HETATM   17  N   UNL     1     -42.367 -46.852   9.132  1.00  0.00    -0.303 N 
ATOM     18  HN  UNL     1     -42.294 -48.975   9.018  1.00  0.00     0.189 HD
HETATM   19  C   UNL     1     -42.487 -45.978  10.110  1.00  0.00     0.160 A 
ATOM     20  HN  UNL     1     -42.277 -46.603   8.147  1.00  0.00     0.186 HD
HETATM   21  S   UNL     1     -42.687 -46.670  11.670  1.00  0.00    -0.046 SA
ENDBRANCH   4  15
TORSDOF 3
ENDMDL
MODEL 8
REMARK VINA RESULT:      -4.9      3.555      7.013
REMARK  3 active torsions:
REMARK  status: ('A' for Active; 'I' for Inactive)
REMARK    1  A    between atoms: O_1  and  C_2 
REMARK    2  A    between atoms: C_5  and  N_8 
REMARK       I    between atoms: N_8  and  C_9 
REMARK       I    between atoms: C_9  and  N_11 
REMARK    3  A    between atoms: N_11  and  C_12 
ROOT
HETATM    1  N   UNL     1     -39.472 -50.687  14.240  1.00  0.00    -0.338 N 
HETATM    2  C   UNL     1     -40.206 -51.586  13.487  1.00  0.00     0.322 C 
HETATM    3  O   UNL     1     -39.760 -52.092  12.468  1.00  0.00    -0.247 OA
HETATM    4  N   UNL     1     -41.469 -51.751  13.996  1.00  0.00    -0.288 N 
HETATM    5  H   UNL     1     -39.650 -50.691  15.233  1.00  0.00     0.164 HD
HETATM    6  H   UNL     1     -41.822 -51.084  14.660  1.00  0.00     0.172 HD
ENDROOT
BRANCH   1   7
HETATM    7  C   UNL     1     -38.138 -50.282  13.791  1.00  0.00     0.086 C 
HETATM    8  C   UNL     1     -37.153 -50.161  14.961  1.00  0.00     0.028 C 
HETATM    9  C   UNL     1     -37.431 -48.935  15.833  1.00  0.00     0.034 C 
HETATM   10  C   UNL     1     -37.488 -47.648  15.009  1.00  0.00     0.118 C 
HETATM   11  C   UNL     1     -38.478 -47.758  13.851  1.00  0.00     0.034 C 
HETATM   12  C   UNL     1     -38.211 -48.986  12.980  1.00  0.00     0.028 C 
BRANCH  10  13
HETATM   13  O   UNL     1     -36.199 -47.363  14.474  1.00  0.00    -0.396 OA
HETATM   14  H   UNL     1     -36.303 -47.188  13.523  1.00  0.00     0.210 HD
ENDBRANCH  10  13
ENDBRANCH   1   7
BRANCH   4  15
HETATM   15  C   UNL     1     -42.386 -52.515  13.323  1.00  0.00     0.168 A 
HETATM   16  N   UNL     1     -42.737 -52.498  12.059  1.00  0.00    -0.279 N 
HETATM   17  N   UNL     1     -43.766 -53.382  11.793  1.00  0.00    -0.303 N 
ATOM     18  HN  UNL     1     -42.301 -51.903  11.355  1.00  0.00     0.189 HD
HETATM   19  C   UNL     1     -44.141 -54.023  12.881  1.00  0.00     0.160 A 
ATOM     20  HN  UNL     1     -44.181 -53.520  10.872  1.00  0.00     0.186 HD
HETATM   21  S   UNL     1     -43.230 -53.647  14.287  1.00  0.00    -0.046 SA
ENDBRANCH   4  15
TORSDOF 3
ENDMDL
MODEL 9
REMARK VINA RESULT:      -4.6      4.977      5.931
REMARK  3 active torsions:
REMARK  status: ('A' for Active; 'I' for Inactive)
REMARK    1  A    between atoms: O_1  and  C_2 
REMARK    2  A    between atoms: C_5  and  N_8 
REMARK       I    between atoms: N_8  and  C_9 
REMARK       I    between atoms: C_9  and  N_11 
REMARK    3  A    between atoms: N_11  and  C_12 
ROOT
HETATM    1  N   UNL     1     -44.170 -53.915  15.397  1.00  0.00    -0.338 N 
HETATM    2  C   UNL     1     -43.211 -54.785  15.882  1.00  0.00     0.322 C 
HETATM    3  O   UNL     1     -43.143 -55.946  15.509  1.00  0.00    -0.247 OA
HETATM    4  N   UNL     1     -42.440 -54.191  16.850  1.00  0.00    -0.288 N 
HETATM    5  H   UNL     1     -43.901 -52.943  15.342  1.00  0.00     0.164 HD
HETATM    6  H   UNL     1     -42.758 -53.339  17.276  1.00  0.00     0.172 HD
ENDROOT
BRANCH   1   7
HETATM    7  C   UNL     1     -45.171 -54.396  14.442  1.00  0.00     0.086 C 
HETATM    8  C   UNL     1     -44.667 -54.312  12.995  1.00  0.00     0.028 C 
HETATM    9  C   UNL     1     -44.605 -52.871  12.482  1.00  0.00     0.034 C 
HETATM   10  C   UNL     1     -45.938 -52.142  12.659  1.00  0.00     0.118 C 
HETATM   11  C   UNL     1     -46.437 -52.212  14.102  1.00  0.00     0.034 C 
HETATM   12  C   UNL     1     -46.494 -53.649  14.623  1.00  0.00     0.028 C 
BRANCH  10  13
HETATM   13  O   UNL     1     -46.922 -52.731  11.814  1.00  0.00    -0.396 OA
HETATM   14  H   UNL     1     -46.793 -52.379  10.916  1.00  0.00     0.210 HD
ENDBRANCH  10  13
ENDBRANCH   1   7
BRANCH   4  15
HETATM   15  C   UNL     1     -41.510 -54.928  17.534  1.00  0.00     0.168 A 
HETATM   16  N   UNL     1     -40.526 -55.673  17.090  1.00  0.00    -0.279 N 
HETATM   17  N   UNL     1     -39.860 -56.321  18.113  1.00  0.00    -0.303 N 
ATOM     18  HN  UNL     1     -40.280 -55.762  16.104  1.00  0.00     0.189 HD
HETATM   19  C   UNL     1     -40.383 -56.031  19.286  1.00  0.00     0.160 A 
ATOM     20  HN  UNL     1     -39.065 -56.946  17.976  1.00  0.00     0.186 HD
HETATM   21  S   UNL     1     -41.676 -54.901  19.235  1.00  0.00    -0.046 SA
ENDBRANCH   4  15
TORSDOF 3
ENDMDL
