MODEL 1
REMARK VINA RESULT:      -5.1      0.000      0.000
REMARK  3 active torsions:
REMARK  status: ('A' for Active; 'I' for Inactive)
REMARK    1  A    between atoms: N_4  and  C_8 
REMARK    2  A    between atoms: C_11  and  C_12 
REMARK    3  A    between atoms: C_12  and  N_13 
ROOT
HETATM    1  C   UNL     1     -43.506 -52.036  13.517  1.00  0.00     0.103 A 
HETATM    2  C   UNL     1     -43.806 -50.674  13.577  1.00  0.00     0.049 A 
HETATM    3  C   UNL     1     -43.023 -49.743  12.898  1.00  0.00     0.014 A 
HETATM    4  C   UNL     1     -41.924 -50.165  12.160  1.00  0.00    -0.015 A 
HETATM    5  C   UNL     1     -41.665 -51.525  12.170  1.00  0.00     0.098 A 
HETATM    6  N   UNL     1     -42.420 -52.444  12.819  1.00  0.00    -0.352 N 
ATOM      7  HN  UNL     1     -42.173 -53.433  12.782  1.00  0.00     0.166 HD
ENDROOT
BRANCH   1   8
HETATM    8  N   UNL     1     -44.239 -52.975  14.206  1.00  0.00    -0.363 N 
HETATM    9  C   UNL     1     -44.593 -52.732  15.612  1.00  0.00     0.155 C 
HETATM   10  C   UNL     1     -46.022 -53.269  15.870  1.00  0.00     0.135 C 
HETATM   11  C   UNL     1     -47.086 -52.379  15.229  1.00  0.00     0.041 C 
HETATM   12  O   UNL     1     -46.171 -54.645  15.456  1.00  0.00    -0.383 OA
HETATM   13  C   UNL     1     -45.766 -54.866  14.095  1.00  0.00     0.188 C 
HETATM   14  C   UNL     1     -44.329 -54.389  13.837  1.00  0.00     0.150 C 
ENDBRANCH   1   8
BRANCH   4  15
HETATM   15  C   UNL     1     -41.071 -49.193  11.403  1.00  0.00     0.306 C 
BRANCH  15  16
HETATM   16  N   UNL     1     -40.392 -49.846  10.290  1.00  0.00     0.082 N 
HETATM   17  H   UNL     1     -39.384 -49.740  10.401  1.00  0.00     0.313 HD
HETATM   18  H   UNL     1     -40.640 -49.380   9.420  1.00  0.00     0.313 HD
ENDBRANCH  15  16
ENDBRANCH   4  15
TORSDOF 3
ENDMDL
MODEL 2
REMARK VINA RESULT:      -5.0      4.976      7.694
REMARK  3 active torsions:
REMARK  status: ('A' for Active; 'I' for Inactive)
REMARK    1  A    between atoms: N_4  and  C_8 
REMARK    2  A    between atoms: C_11  and  C_12 
REMARK    3  A    between atoms: C_12  and  N_13 
ROOT
HETATM    1  C   UNL     1     -41.145 -47.632  11.308  1.00  0.00     0.103 A 
HETATM    2  C   UNL     1     -42.265 -48.232  11.887  1.00  0.00     0.049 A 
HETATM    3  C   UNL     1     -42.257 -49.587  12.214  1.00  0.00     0.014 A 
HETATM    4  C   UNL     1     -41.131 -50.357  11.954  1.00  0.00    -0.015 A 
HETATM    5  C   UNL     1     -40.069 -49.707  11.349  1.00  0.00     0.098 A 
HETATM    6  N   UNL     1     -40.057 -48.390  11.032  1.00  0.00    -0.352 N 
ATOM      7  HN  UNL     1     -39.239 -47.973  10.589  1.00  0.00     0.166 HD
ENDROOT
BRANCH   1   8
HETATM    8  N   UNL     1     -41.136 -46.306  10.941  1.00  0.00    -0.363 N 
HETATM    9  C   UNL     1     -42.399 -45.640  10.590  1.00  0.00     0.155 C 
HETATM   10  C   UNL     1     -42.367 -44.189  11.126  1.00  0.00     0.135 C 
HETATM   11  C   UNL     1     -42.522 -44.142  12.646  1.00  0.00     0.041 C 
HETATM   12  O   UNL     1     -41.188 -43.474  10.697  1.00  0.00    -0.383 OA
HETATM   13  C   UNL     1     -39.970 -44.172  11.003  1.00  0.00     0.188 C 
HETATM   14  C   UNL     1     -39.962 -45.596  10.430  1.00  0.00     0.150 C 
ENDBRANCH   1   8
BRANCH   4  15
HETATM   15  C   UNL     1     -41.082 -51.812  12.309  1.00  0.00     0.306 C 
BRANCH  15  16
HETATM   16  N   UNL     1     -41.249 -52.648  11.126  1.00  0.00     0.082 N 
HETATM   17  H   UNL     1     -42.199 -53.016  11.104  1.00  0.00     0.313 HD
HETATM   18  H   UNL     1     -40.627 -53.451  11.186  1.00  0.00     0.313 HD
ENDBRANCH  15  16
ENDBRANCH   4  15
TORSDOF 3
ENDMDL
MODEL 3
REMARK VINA RESULT:      -4.9      0.915      1.458
REMARK  3 active torsions:
REMARK  status: ('A' for Active; 'I' for Inactive)
REMARK    1  A    between atoms: N_4  and  C_8 
REMARK    2  A    between atoms: C_11  and  C_12 
REMARK    3  A    between atoms: C_12  and  N_13 
ROOT
HETATM    1  C   UNL     1     -43.002 -52.663  13.638  1.00  0.00     0.103 A 
HETATM    2  C   UNL     1     -41.897 -53.245  13.014  1.00  0.00     0.049 A 
HETATM    3  C   UNL     1     -40.955 -52.457  12.357  1.00  0.00     0.014 A 
HETATM    4  C   UNL     1     -41.114 -51.077  12.310  1.00  0.00    -0.015 A 
HETATM    5  C   UNL     1     -42.248 -50.570  12.920  1.00  0.00     0.098 A 
HETATM    6  N   UNL     1     -43.171 -51.321  13.569  1.00  0.00    -0.352 N 
ATOM      7  HN  UNL     1     -43.983 -50.881  14.000  1.00  0.00     0.166 HD
ENDROOT
BRANCH   1   8
HETATM    8  N   UNL     1     -43.969 -53.417  14.262  1.00  0.00    -0.363 N 
HETATM    9  C   UNL     1     -44.475 -53.006  15.579  1.00  0.00     0.155 C 
HETATM   10  C   UNL     1     -45.994 -53.295  15.646  1.00  0.00     0.135 C 
HETATM   11  C   UNL     1     -46.797 -52.310  14.797  1.00  0.00     0.041 C 
HETATM   12  O   UNL     1     -46.306 -54.662  15.298  1.00  0.00    -0.383 OA
HETATM   13  C   UNL     1     -45.753 -55.055  14.032  1.00  0.00     0.188 C 
HETATM   14  C   UNL     1     -44.236 -54.827  13.969  1.00  0.00     0.150 C 
ENDBRANCH   1   8
BRANCH   4  15
HETATM   15  C   UNL     1     -40.110 -50.198  11.628  1.00  0.00     0.306 C 
BRANCH  15  16
HETATM   16  N   UNL     1     -40.523 -49.889  10.264  1.00  0.00     0.082 N 
HETATM   17  H   UNL     1     -41.493 -49.576  10.267  1.00  0.00     0.313 HD
HETATM   18  H   UNL     1     -40.492 -50.735   9.699  1.00  0.00     0.313 HD
ENDBRANCH  15  16
ENDBRANCH   4  15
TORSDOF 3
ENDMDL
MODEL 4
REMARK VINA RESULT:      -4.9      6.584      8.456
REMARK  3 active torsions:
REMARK  status: ('A' for Active; 'I' for Inactive)
REMARK    1  A    between atoms: N_4  and  C_8 
REMARK    2  A    between atoms: C_11  and  C_12 
REMARK    3  A    between atoms: C_12  and  N_13 
ROOT
HETATM    1  C   UNL     1     -42.276 -46.593  10.388  1.00  0.00     0.103 A 
HETATM    2  C   UNL     1     -43.282 -47.266  11.083  1.00  0.00     0.049 A 
HETATM    3  C   UNL     1     -44.414 -47.733  10.419  1.00  0.00     0.014 A 
HETATM    4  C   UNL     1     -44.555 -47.522   9.053  1.00  0.00    -0.015 A 
HETATM    5  C   UNL     1     -43.536 -46.820   8.433  1.00  0.00     0.098 A 
HETATM    6  N   UNL     1     -42.426 -46.365   9.062  1.00  0.00    -0.352 N 
ATOM      7  HN  UNL     1     -41.711 -45.856   8.543  1.00  0.00     0.166 HD
ENDROOT
BRANCH   1   8
HETATM    8  N   UNL     1     -41.164 -46.087  11.023  1.00  0.00    -0.363 N 
HETATM    9  C   UNL     1     -40.203 -45.271  10.267  1.00  0.00     0.155 C 
HETATM   10  C   UNL     1     -39.686 -44.131  11.177  1.00  0.00     0.135 C 
HETATM   11  C   UNL     1     -40.749 -43.054  11.395  1.00  0.00     0.041 C 
HETATM   12  O   UNL     1     -39.176 -44.626  12.434  1.00  0.00    -0.383 OA
HETATM   13  C   UNL     1     -40.114 -45.465  13.128  1.00  0.00     0.188 C 
HETATM   14  C   UNL     1     -40.594 -46.634  12.256  1.00  0.00     0.150 C 
ENDBRANCH   1   8
BRANCH   4  15
HETATM   15  C   UNL     1     -45.751 -48.028   8.305  1.00  0.00     0.306 C 
BRANCH  15  16
HETATM   16  N   UNL     1     -46.545 -48.930   9.131  1.00  0.00     0.082 N 
HETATM   17  H   UNL     1     -45.935 -49.634   9.545  1.00  0.00     0.313 HD
HETATM   18  H   UNL     1     -47.211 -49.430   8.545  1.00  0.00     0.313 HD
ENDBRANCH  15  16
ENDBRANCH   4  15
TORSDOF 3
ENDMDL
MODEL 5
REMARK VINA RESULT:      -4.9      1.801      2.769
REMARK  3 active torsions:
REMARK  status: ('A' for Active; 'I' for Inactive)
REMARK    1  A    between atoms: N_4  and  C_8 
REMARK    2  A    between atoms: C_11  and  C_12 
REMARK    3  A    between atoms: C_12  and  N_13 
ROOT
HETATM    1  C   UNL     1     -42.225 -51.739  12.801  1.00  0.00     0.103 A 
HETATM    2  C   UNL     1     -41.152 -52.320  13.478  1.00  0.00     0.049 A 
HETATM    3  C   UNL     1     -39.848 -51.882  13.254  1.00  0.00     0.014 A 
HETATM    4  C   UNL     1     -39.605 -50.865  12.340  1.00  0.00    -0.015 A 
HETATM    5  C   UNL     1     -40.711 -50.356  11.680  1.00  0.00     0.098 A 
HETATM    6  N   UNL     1     -41.985 -50.765  11.891  1.00  0.00    -0.352 N 
ATOM      7  HN  UNL     1     -42.754 -50.345  11.371  1.00  0.00     0.166 HD
ENDROOT
BRANCH   1   8
HETATM    8  N   UNL     1     -43.519 -52.175  12.973  1.00  0.00    -0.363 N 
HETATM    9  C   UNL     1     -43.956 -53.426  12.337  1.00  0.00     0.155 C 
HETATM   10  C   UNL     1     -44.912 -54.172  13.298  1.00  0.00     0.135 C 
HETATM   11  C   UNL     1     -44.161 -54.790  14.478  1.00  0.00     0.041 C 
HETATM   12  O   UNL     1     -45.997 -53.332  13.749  1.00  0.00    -0.383 OA
HETATM   13  C   UNL     1     -45.545 -52.093  14.318  1.00  0.00     0.188 C 
HETATM   14  C   UNL     1     -44.639 -51.313  13.354  1.00  0.00     0.150 C 
ENDBRANCH   1   8
BRANCH   4  15
HETATM   15  C   UNL     1     -38.218 -50.357  12.088  1.00  0.00     0.306 C 
BRANCH  15  16
HETATM   16  N   UNL     1     -38.013 -50.067  10.674  1.00  0.00     0.082 N 
HETATM   17  H   UNL     1     -38.096 -49.063  10.519  1.00  0.00     0.313 HD
HETATM   18  H   UNL     1     -38.749 -50.508  10.126  1.00  0.00     0.313 HD
ENDBRANCH  15  16
ENDBRANCH   4  15
TORSDOF 3
ENDMDL
MODEL 6
REMARK VINA RESULT:      -4.9      4.498      6.924
REMARK  3 active torsions:
REMARK  status: ('A' for Active; 'I' for Inactive)
REMARK    1  A    between atoms: N_4  and  C_8 
REMARK    2  A    between atoms: C_11  and  C_12 
REMARK    3  A    between atoms: C_12  and  N_13 
ROOT
HETATM    1  C   UNL     1     -42.145 -48.612  11.372  1.00  0.00     0.103 A 
HETATM    2  C   UNL     1     -42.815 -49.358  12.344  1.00  0.00     0.049 A 
HETATM    3  C   UNL     1     -42.327 -50.598  12.750  1.00  0.00     0.014 A 
HETATM    4  C   UNL     1     -41.167 -51.109  12.180  1.00  0.00    -0.015 A 
HETATM    5  C   UNL     1     -40.572 -50.332  11.201  1.00  0.00     0.098 A 
HETATM    6  N   UNL     1     -41.029 -49.122  10.799  1.00  0.00    -0.352 N 
ATOM      7  HN  UNL     1     -40.539 -48.601  10.073  1.00  0.00     0.166 HD
ENDROOT
BRANCH   1   8
HETATM    8  N   UNL     1     -42.622 -47.402  10.924  1.00  0.00    -0.363 N 
HETATM    9  C   UNL     1     -42.538 -46.219  11.794  1.00  0.00     0.155 C 
HETATM   10  C   UNL     1     -42.206 -44.981  10.927  1.00  0.00     0.135 C 
HETATM   11  C   UNL     1     -40.753 -44.994  10.453  1.00  0.00     0.041 C 
HETATM   12  O   UNL     1     -43.118 -44.830   9.818  1.00  0.00    -0.383 OA
HETATM   13  C   UNL     1     -43.223 -46.017   9.016  1.00  0.00     0.188 C 
HETATM   14  C   UNL     1     -43.608 -47.246   9.853  1.00  0.00     0.150 C 
ENDBRANCH   1   8
BRANCH   4  15
HETATM   15  C   UNL     1     -40.605 -52.431  12.607  1.00  0.00     0.306 C 
BRANCH  15  16
HETATM   16  N   UNL     1     -40.853 -53.457  11.601  1.00  0.00     0.082 N 
HETATM   17  H   UNL     1     -41.835 -53.432  11.329  1.00  0.00     0.313 HD
HETATM   18  H   UNL     1     -40.687 -54.376  12.005  1.00  0.00     0.313 HD
ENDBRANCH  15  16
ENDBRANCH   4  15
TORSDOF 3
ENDMDL
MODEL 7
REMARK VINA RESULT:      -4.8      3.223      5.200
REMARK  3 active torsions:
REMARK  status: ('A' for Active; 'I' for Inactive)
REMARK    1  A    between atoms: N_4  and  C_8 
REMARK    2  A    between atoms: C_11  and  C_12 
REMARK    3  A    between atoms: C_12  and  N_13 
ROOT
HETATM    1  C   UNL     1     -42.488 -52.556  13.070  1.00  0.00     0.103 A 
HETATM    2  C   UNL     1     -43.017 -51.352  13.538  1.00  0.00     0.049 A 
HETATM    3  C   UNL     1     -44.377 -51.077  13.414  1.00  0.00     0.014 A 
HETATM    4  C   UNL     1     -45.221 -52.001  12.811  1.00  0.00    -0.015 A 
HETATM    5  C   UNL     1     -44.626 -53.159  12.341  1.00  0.00     0.098 A 
HETATM    6  N   UNL     1     -43.307 -53.445  12.459  1.00  0.00    -0.352 N 
ATOM      7  HN  UNL     1     -42.934 -54.321  12.091  1.00  0.00     0.166 HD
ENDROOT
BRANCH   1   8
HETATM    8  N   UNL     1     -41.144 -52.840  13.144  1.00  0.00    -0.363 N 
HETATM    9  C   UNL     1     -40.163 -51.833  12.716  1.00  0.00     0.155 C 
HETATM   10  C   UNL     1     -38.941 -51.886  13.664  1.00  0.00     0.135 C 
HETATM   11  C   UNL     1     -39.262 -51.294  15.036  1.00  0.00     0.041 C 
HETATM   12  O   UNL     1     -38.400 -53.220  13.782  1.00  0.00    -0.383 OA
HETATM   13  C   UNL     1     -39.390 -54.194  14.149  1.00  0.00     0.188 C 
HETATM   14  C   UNL     1     -40.584 -54.193  13.184  1.00  0.00     0.150 C 
ENDBRANCH   1   8
BRANCH   4  15
HETATM   15  C   UNL     1     -46.692 -51.745  12.679  1.00  0.00     0.306 C 
BRANCH  15  16
HETATM   16  N   UNL     1     -47.156 -52.037  11.327  1.00  0.00     0.082 N 
HETATM   17  H   UNL     1     -46.740 -52.910  11.008  1.00  0.00     0.313 HD
HETATM   18  H   UNL     1     -46.831 -51.311  10.692  1.00  0.00     0.313 HD
ENDBRANCH  15  16
ENDBRANCH   4  15
TORSDOF 3
ENDMDL
MODEL 8
REMARK VINA RESULT:      -4.8      4.991      6.273
REMARK  3 active torsions:
REMARK  status: ('A' for Active; 'I' for Inactive)
REMARK    1  A    between atoms: N_4  and  C_8 
REMARK    2  A    between atoms: C_11  and  C_12 
REMARK    3  A    between atoms: C_12  and  N_13 
ROOT
HETATM    1  C   UNL     1     -40.298 -49.046  11.567  1.00  0.00     0.103 A 
HETATM    2  C   UNL     1     -39.801 -47.758  11.772  1.00  0.00     0.049 A 
HETATM    3  C   UNL     1     -40.482 -46.646  11.280  1.00  0.00     0.014 A 
HETATM    4  C   UNL     1     -41.664 -46.814  10.569  1.00  0.00    -0.015 A 
HETATM    5  C   UNL     1     -42.082 -48.120  10.375  1.00  0.00     0.098 A 
HETATM    6  N   UNL     1     -41.436 -49.211  10.852  1.00  0.00    -0.352 N 
ATOM      7  HN  UNL     1     -41.802 -50.145  10.674  1.00  0.00     0.166 HD
ENDROOT
BRANCH   1   8
HETATM    8  N   UNL     1     -39.629 -50.165  12.008  1.00  0.00    -0.363 N 
HETATM    9  C   UNL     1     -38.179 -50.277  11.791  1.00  0.00     0.155 C 
HETATM   10  C   UNL     1     -37.537 -50.951  13.028  1.00  0.00     0.135 C 
HETATM   11  C   UNL     1     -37.496 -50.007  14.230  1.00  0.00     0.041 C 
HETATM   12  O   UNL     1     -38.179 -52.200  13.364  1.00  0.00    -0.383 OA
HETATM   13  C   UNL     1     -39.602 -52.073  13.517  1.00  0.00     0.188 C 
HETATM   14  C   UNL     1     -40.262 -51.457  12.274  1.00  0.00     0.150 C 
ENDBRANCH   1   8
BRANCH   4  15
HETATM   15  C   UNL     1     -42.432 -45.640  10.043  1.00  0.00     0.306 C 
BRANCH  15  16
HETATM   16  N   UNL     1     -42.865 -44.766  11.128  1.00  0.00     0.082 N 
HETATM   17  H   UNL     1     -43.877 -44.824  11.224  1.00  0.00     0.313 HD
HETATM   18  H   UNL     1     -42.649 -43.800  10.892  1.00  0.00     0.313 HD
ENDBRANCH  15  16
ENDBRANCH   4  15
TORSDOF 3
ENDMDL
MODEL 9
REMARK VINA RESULT:      -4.8      5.616      6.847
REMARK  3 active torsions:
REMARK  status: ('A' for Active; 'I' for Inactive)
REMARK    1  A    between atoms: N_4  and  C_8 
REMARK    2  A    between atoms: C_11  and  C_12 
REMARK    3  A    between atoms: C_12  and  N_13 
ROOT
HETATM    1  C   UNL     1     -41.183 -47.975  11.346  1.00  0.00     0.103 A 
HETATM    2  C   UNL     1     -40.962 -46.608  11.165  1.00  0.00     0.049 A 
HETATM    3  C   UNL     1     -41.791 -45.858  10.334  1.00  0.00     0.014 A 
HETATM    4  C   UNL     1     -42.845 -46.470   9.668  1.00  0.00    -0.015 A 
HETATM    5  C   UNL     1     -42.987 -47.833   9.866  1.00  0.00     0.098 A 
HETATM    6  N   UNL     1     -42.195 -48.576  10.676  1.00  0.00    -0.352 N 
ATOM      7  HN  UNL     1     -42.358 -49.577  10.779  1.00  0.00     0.166 HD
ENDROOT
BRANCH   1   8
HETATM    8  N   UNL     1     -40.360 -48.750  12.130  1.00  0.00    -0.363 N 
HETATM    9  C   UNL     1     -40.062 -50.132  11.729  1.00  0.00     0.155 C 
HETATM   10  C   UNL     1     -38.586 -50.448  12.070  1.00  0.00     0.135 C 
HETATM   11  C   UNL     1     -37.620 -49.742  11.119  1.00  0.00     0.041 C 
HETATM   12  O   UNL     1     -38.271 -50.156  13.449  1.00  0.00    -0.383 OA
HETATM   13  C   UNL     1     -38.621 -48.816  13.831  1.00  0.00     0.188 C 
HETATM   14  C   UNL     1     -40.098 -48.505  13.550  1.00  0.00     0.150 C 
ENDBRANCH   1   8
BRANCH   4  15
HETATM   15  C   UNL     1     -43.767 -45.689   8.781  1.00  0.00     0.306 C 
BRANCH  15  16
HETATM   16  N   UNL     1     -45.140 -46.165   8.903  1.00  0.00     0.082 N 
HETATM   17  H   UNL     1     -45.551 -45.796   9.759  1.00  0.00     0.313 HD
HETATM   18  H   UNL     1     -45.142 -47.178   8.992  1.00  0.00     0.313 HD
ENDBRANCH  15  16
ENDBRANCH   4  15
TORSDOF 3
ENDMDL
