MODEL 1
REMARK VINA RESULT:      -7.1      0.000      0.000
REMARK  5 active torsions:
REMARK  status: ('A' for Active; 'I' for Inactive)
REMARK    1  A    between atoms: C_5  and  N_6 
REMARK       I    between atoms: N_6  and  C_7 
REMARK       I    between atoms: C_7  and  N_9 
REMARK    2  A    between atoms: N_9  and  C_10 
REMARK    3  A    between atoms: C_10  and  C_15 
REMARK       I    between atoms: C_15  and  N_17 
REMARK    4  A    between atoms: N_17  and  C_18 
REMARK    5  A    between atoms: C_18  and  C_19 
ROOT
HETATM    1  N   UNL     1     -40.923 -48.812  10.695  1.00  0.00    -0.295 N 
HETATM    2  C   UNL     1     -40.734 -50.005  11.343  1.00  0.00     0.322 C 
HETATM    3  O   UNL     1     -39.592 -50.348  11.635  1.00  0.00    -0.247 OA
HETATM    4  N   UNL     1     -41.861 -50.660  11.724  1.00  0.00    -0.325 N 
HETATM    5  H   UNL     1     -40.077 -48.268  10.606  1.00  0.00     0.172 HD
HETATM    6  H   UNL     1     -42.662 -50.473  11.125  1.00  0.00     0.165 HD
ENDROOT
BRANCH   4   7
HETATM    7  C   UNL     1     -41.922 -51.845  12.586  1.00  0.00     0.115 C 
HETATM    8  C   UNL     1     -41.488 -51.533  14.038  1.00  0.00     0.041 C 
HETATM    9  C   UNL     1     -40.541 -52.654  14.471  1.00  0.00     0.003 C 
HETATM   10  C   UNL     1     -40.612 -53.722  13.393  1.00  0.00     0.003 C 
HETATM   11  C   UNL     1     -40.978 -52.970  12.121  1.00  0.00     0.041 C 
BRANCH   7  12
HETATM   12  C   UNL     1     -43.403 -52.364  12.602  1.00  0.00     0.246 C 
HETATM   13  O   UNL     1     -43.693 -53.559  12.560  1.00  0.00    -0.271 OA
HETATM   14  N   UNL     1     -44.366 -51.390  12.821  1.00  0.00    -0.359 N 
HETATM   15  H   UNL     1     -44.052 -50.445  13.004  1.00  0.00     0.162 HD
BRANCH  14  16
HETATM   16  C   UNL     1     -45.768 -51.706  13.003  1.00  0.00     0.127 C 
BRANCH  16  17
HETATM   17  C   UNL     1     -46.246 -51.262  14.352  1.00  0.00     0.003 A 
HETATM   18  C   UNL     1     -45.676 -51.800  15.642  1.00  0.00     0.007 A 
HETATM   19  C   UNL     1     -47.039 -52.229  15.201  1.00  0.00     0.007 A 
ENDBRANCH  16  17
ENDBRANCH  14  16
ENDBRANCH   7  12
ENDBRANCH   4   7
BRANCH   1  20
HETATM   20  C   UNL     1     -42.129 -48.259  10.268  1.00  0.00     0.108 A 
HETATM   21  C   UNL     1     -42.988 -47.718  11.220  1.00  0.00     0.050 A 
HETATM   22  C   UNL     1     -44.229 -47.226  10.806  1.00  0.00     0.029 A 
HETATM   23  C   UNL     1     -44.543 -47.230   9.455  1.00  0.00     0.049 A 
HETATM   24 CL   UNL     1     -46.061 -46.650   8.902  1.00  0.00    -0.083 Cl
HETATM   25  C   UNL     1     -43.602 -47.724   8.572  1.00  0.00     0.113 A 
HETATM   26  N   UNL     1     -42.425 -48.274   8.952  1.00  0.00    -0.351 N 
ATOM     27  HN  UNL     1     -41.786 -48.684   8.270  1.00  0.00     0.166 HD
ENDBRANCH   1  20
TORSDOF 5
ENDMDL
MODEL 2
REMARK VINA RESULT:      -6.9      1.832      2.706
REMARK  5 active torsions:
REMARK  status: ('A' for Active; 'I' for Inactive)
REMARK    1  A    between atoms: C_5  and  N_6 
REMARK       I    between atoms: N_6  and  C_7 
REMARK       I    between atoms: C_7  and  N_9 
REMARK    2  A    between atoms: N_9  and  C_10 
REMARK    3  A    between atoms: C_10  and  C_15 
REMARK       I    between atoms: C_15  and  N_17 
REMARK    4  A    between atoms: N_17  and  C_18 
REMARK    5  A    between atoms: C_18  and  C_19 
ROOT
HETATM    1  N   UNL     1     -41.853 -46.549   9.993  1.00  0.00    -0.295 N 
HETATM    2  C   UNL     1     -40.916 -47.204  10.748  1.00  0.00     0.322 C 
HETATM    3  O   UNL     1     -39.949 -46.576  11.171  1.00  0.00    -0.247 OA
HETATM    4  N   UNL     1     -41.207 -48.489  11.073  1.00  0.00    -0.325 N 
HETATM    5  H   UNL     1     -41.697 -45.552   9.939  1.00  0.00     0.172 HD
HETATM    6  H   UNL     1     -41.797 -48.959  10.390  1.00  0.00     0.165 HD
ENDROOT
BRANCH   4   7
HETATM    7  C   UNL     1     -40.465 -49.331  12.016  1.00  0.00     0.115 C 
HETATM    8  C   UNL     1     -40.204 -48.611  13.362  1.00  0.00     0.041 C 
HETATM    9  C   UNL     1     -38.740 -48.862  13.727  1.00  0.00     0.003 C 
HETATM   10  C   UNL     1     -38.223 -49.904  12.750  1.00  0.00     0.003 C 
HETATM   11  C   UNL     1     -39.067 -49.720  11.497  1.00  0.00     0.041 C 
BRANCH   7  12
HETATM   12  C   UNL     1     -41.309 -50.624  12.291  1.00  0.00     0.246 C 
HETATM   13  O   UNL     1     -40.807 -51.743  12.395  1.00  0.00    -0.271 OA
HETATM   14  N   UNL     1     -42.651 -50.403  12.563  1.00  0.00    -0.359 N 
HETATM   15  H   UNL     1     -42.974 -49.445  12.616  1.00  0.00     0.162 HD
BRANCH  14  16
HETATM   16  C   UNL     1     -43.550 -51.464  12.972  1.00  0.00     0.127 C 
BRANCH  16  17
HETATM   17  C   UNL     1     -44.880 -50.910  13.383  1.00  0.00     0.003 A 
HETATM   18  C   UNL     1     -45.802 -51.620  14.344  1.00  0.00     0.007 A 
HETATM   19  C   UNL     1     -46.138 -51.587  12.887  1.00  0.00     0.007 A 
ENDBRANCH  16  17
ENDBRANCH  14  16
ENDBRANCH   7  12
ENDBRANCH   4   7
BRANCH   1  20
HETATM   20  C   UNL     1     -43.003 -47.084   9.413  1.00  0.00     0.108 A 
HETATM   21  C   UNL     1     -44.189 -47.062  10.141  1.00  0.00     0.050 A 
HETATM   22  C   UNL     1     -45.326 -47.659   9.594  1.00  0.00     0.029 A 
HETATM   23  C   UNL     1     -45.262 -48.199   8.318  1.00  0.00     0.049 A 
HETATM   24 CL   UNL     1     -46.630 -48.957   7.611  1.00  0.00    -0.083 Cl
HETATM   25  C   UNL     1     -44.060 -48.117   7.640  1.00  0.00     0.113 A 
HETATM   26  N   UNL     1     -42.925 -47.610   8.173  1.00  0.00    -0.351 N 
ATOM     27  HN  UNL     1     -42.044 -47.626   7.658  1.00  0.00     0.166 HD
ENDBRANCH   1  20
TORSDOF 5
ENDMDL
MODEL 3
REMARK VINA RESULT:      -6.7      3.274      5.591
REMARK  5 active torsions:
REMARK  status: ('A' for Active; 'I' for Inactive)
REMARK    1  A    between atoms: C_5  and  N_6 
REMARK       I    between atoms: N_6  and  C_7 
REMARK       I    between atoms: C_7  and  N_9 
REMARK    2  A    between atoms: N_9  and  C_10 
REMARK    3  A    between atoms: C_10  and  C_15 
REMARK       I    between atoms: C_15  and  N_17 
REMARK    4  A    between atoms: N_17  and  C_18 
REMARK    5  A    between atoms: C_18  and  C_19 
ROOT
HETATM    1  N   UNL     1     -42.549 -52.791  11.749  1.00  0.00    -0.295 N 
HETATM    2  C   UNL     1     -43.682 -52.932  12.507  1.00  0.00     0.322 C 
HETATM    3  O   UNL     1     -44.530 -53.751  12.162  1.00  0.00    -0.247 OA
HETATM    4  N   UNL     1     -43.713 -52.226  13.666  1.00  0.00    -0.325 N 
HETATM    5  H   UNL     1     -42.479 -53.472  11.006  1.00  0.00     0.172 HD
HETATM    6  H   UNL     1     -43.168 -51.367  13.635  1.00  0.00     0.165 HD
ENDROOT
BRANCH   4   7
HETATM    7  C   UNL     1     -44.718 -52.351  14.727  1.00  0.00     0.115 C 
HETATM    8  C   UNL     1     -46.161 -52.359  14.167  1.00  0.00     0.041 C 
HETATM    9  C   UNL     1     -46.985 -51.416  15.046  1.00  0.00     0.003 C 
HETATM   10  C   UNL     1     -46.111 -51.056  16.235  1.00  0.00     0.003 C 
HETATM   11  C   UNL     1     -44.683 -51.175  15.722  1.00  0.00     0.041 C 
BRANCH   7  12
HETATM   12  C   UNL     1     -44.464 -53.699  15.488  1.00  0.00     0.246 C 
HETATM   13  O   UNL     1     -45.319 -54.579  15.594  1.00  0.00    -0.271 OA
HETATM   14  N   UNL     1     -43.158 -53.902  15.907  1.00  0.00    -0.359 N 
HETATM   15  H   UNL     1     -42.465 -53.210  15.653  1.00  0.00     0.162 HD
BRANCH  14  16
HETATM   16  C   UNL     1     -42.714 -55.146  16.503  1.00  0.00     0.127 C 
BRANCH  16  17
HETATM   17  C   UNL     1     -41.272 -55.063  16.904  1.00  0.00     0.003 A 
HETATM   18  C   UNL     1     -40.141 -55.100  15.906  1.00  0.00     0.007 A 
HETATM   19  C   UNL     1     -40.404 -56.293  16.769  1.00  0.00     0.007 A 
ENDBRANCH  16  17
ENDBRANCH  14  16
ENDBRANCH   7  12
ENDBRANCH   4   7
BRANCH   1  20
HETATM   20  C   UNL     1     -41.488 -51.913  11.962  1.00  0.00     0.108 A 
HETATM   21  C   UNL     1     -40.429 -52.331  12.764  1.00  0.00     0.050 A 
HETATM   22  C   UNL     1     -39.396 -51.431  13.038  1.00  0.00     0.029 A 
HETATM   23  C   UNL     1     -39.420 -50.172  12.455  1.00  0.00     0.049 A 
HETATM   24 CL   UNL     1     -38.182 -49.029  12.776  1.00  0.00    -0.083 Cl
HETATM   25  C   UNL     1     -40.476 -49.867  11.617  1.00  0.00     0.113 A 
HETATM   26  N   UNL     1     -41.526 -50.691  11.392  1.00  0.00    -0.351 N 
ATOM     27  HN  UNL     1     -42.315 -50.400  10.815  1.00  0.00     0.166 HD
ENDBRANCH   1  20
TORSDOF 5
ENDMDL
MODEL 4
REMARK VINA RESULT:      -6.7      2.055      2.726
REMARK  5 active torsions:
REMARK  status: ('A' for Active; 'I' for Inactive)
REMARK    1  A    between atoms: C_5  and  N_6 
REMARK       I    between atoms: N_6  and  C_7 
REMARK       I    between atoms: C_7  and  N_9 
REMARK    2  A    between atoms: N_9  and  C_10 
REMARK    3  A    between atoms: C_10  and  C_15 
REMARK       I    between atoms: C_15  and  N_17 
REMARK    4  A    between atoms: N_17  and  C_18 
REMARK    5  A    between atoms: C_18  and  C_19 
ROOT
HETATM    1  N   UNL     1     -40.409 -50.740  11.249  1.00  0.00    -0.295 N 
HETATM    2  C   UNL     1     -41.176 -51.747  11.774  1.00  0.00     0.322 C 
HETATM    3  O   UNL     1     -40.747 -52.897  11.748  1.00  0.00    -0.247 OA
HETATM    4  N   UNL     1     -42.315 -51.360  12.404  1.00  0.00    -0.325 N 
HETATM    5  H   UNL     1     -39.488 -51.046  10.967  1.00  0.00     0.172 HD
HETATM    6  H   UNL     1     -42.707 -50.494  12.041  1.00  0.00     0.165 HD
ENDROOT
BRANCH   4   7
HETATM    7  C   UNL     1     -43.196 -52.219  13.201  1.00  0.00     0.115 C 
HETATM    8  C   UNL     1     -42.422 -52.995  14.294  1.00  0.00     0.041 C 
HETATM    9  C   UNL     1     -42.917 -54.442  14.250  1.00  0.00     0.003 C 
HETATM   10  C   UNL     1     -44.122 -54.459  13.325  1.00  0.00     0.003 C 
HETATM   11  C   UNL     1     -43.892 -53.305  12.359  1.00  0.00     0.041 C 
BRANCH   7  12
HETATM   12  C   UNL     1     -44.272 -51.311  13.894  1.00  0.00     0.246 C 
HETATM   13  O   UNL     1     -45.220 -50.814  13.286  1.00  0.00    -0.271 OA
HETATM   14  N   UNL     1     -44.171 -51.227  15.274  1.00  0.00    -0.359 N 
HETATM   15  H   UNL     1     -43.462 -51.785  15.733  1.00  0.00     0.162 HD
BRANCH  14  16
HETATM   16  C   UNL     1     -45.157 -50.546  16.089  1.00  0.00     0.127 C 
BRANCH  16  17
HETATM   17  C   UNL     1     -46.184 -51.510  16.603  1.00  0.00     0.003 A 
HETATM   18  C   UNL     1     -47.344 -51.994  15.768  1.00  0.00     0.007 A 
HETATM   19  C   UNL     1     -47.586 -51.010  16.869  1.00  0.00     0.007 A 
ENDBRANCH  16  17
ENDBRANCH  14  16
ENDBRANCH   7  12
ENDBRANCH   4   7
BRANCH   1  20
HETATM   20  C   UNL     1     -40.724 -49.385  11.170  1.00  0.00     0.108 A 
HETATM   21  C   UNL     1     -40.124 -48.508  12.070  1.00  0.00     0.050 A 
HETATM   22  C   UNL     1     -40.489 -47.160  12.042  1.00  0.00     0.029 A 
HETATM   23  C   UNL     1     -41.386 -46.719  11.080  1.00  0.00     0.049 A 
HETATM   24 CL   UNL     1     -41.875 -45.076  11.018  1.00  0.00    -0.083 Cl
HETATM   25  C   UNL     1     -41.880 -47.648  10.183  1.00  0.00     0.113 A 
HETATM   26  N   UNL     1     -41.602 -48.971  10.233  1.00  0.00    -0.351 N 
ATOM     27  HN  UNL     1     -42.038 -49.630   9.587  1.00  0.00     0.166 HD
ENDBRANCH   1  20
TORSDOF 5
ENDMDL
MODEL 5
REMARK VINA RESULT:      -6.6      2.233      4.287
REMARK  5 active torsions:
REMARK  status: ('A' for Active; 'I' for Inactive)
REMARK    1  A    between atoms: C_5  and  N_6 
REMARK       I    between atoms: N_6  and  C_7 
REMARK       I    between atoms: C_7  and  N_9 
REMARK    2  A    between atoms: N_9  and  C_10 
REMARK    3  A    between atoms: C_10  and  C_15 
REMARK       I    between atoms: C_15  and  N_17 
REMARK    4  A    between atoms: N_17  and  C_18 
REMARK    5  A    between atoms: C_18  and  C_19 
ROOT
HETATM    1  N   UNL     1     -40.514 -50.725  11.239  1.00  0.00    -0.295 N 
HETATM    2  C   UNL     1     -41.369 -51.633  11.806  1.00  0.00     0.322 C 
HETATM    3  O   UNL     1     -41.050 -52.819  11.825  1.00  0.00    -0.247 OA
HETATM    4  N   UNL     1     -42.463 -51.116  12.421  1.00  0.00    -0.325 N 
HETATM    5  H   UNL     1     -39.627 -51.126  10.969  1.00  0.00     0.172 HD
HETATM    6  H   UNL     1     -42.775 -50.232  12.024  1.00  0.00     0.165 HD
ENDROOT
BRANCH   4   7
HETATM    7  C   UNL     1     -43.417 -51.856  13.253  1.00  0.00     0.115 C 
HETATM    8  C   UNL     1     -44.039 -53.058  12.501  1.00  0.00     0.041 C 
HETATM    9  C   UNL     1     -45.543 -53.028  12.777  1.00  0.00     0.003 C 
HETATM   10  C   UNL     1     -45.765 -51.984  13.858  1.00  0.00     0.003 C 
HETATM   11  C   UNL     1     -44.619 -50.996  13.690  1.00  0.00     0.041 C 
BRANCH   7  12
HETATM   12  C   UNL     1     -42.657 -52.391  14.517  1.00  0.00     0.246 C 
HETATM   13  O   UNL     1     -42.580 -51.758  15.570  1.00  0.00    -0.271 OA
HETATM   14  N   UNL     1     -42.201 -53.697  14.420  1.00  0.00    -0.359 N 
HETATM   15  H   UNL     1     -42.432 -54.220  13.585  1.00  0.00     0.162 HD
BRANCH  14  16
HETATM   16  C   UNL     1     -41.600 -54.398  15.536  1.00  0.00     0.127 C 
BRANCH  16  17
HETATM   17  C   UNL     1     -40.115 -54.190  15.562  1.00  0.00     0.003 A 
HETATM   18  C   UNL     1     -39.212 -54.598  14.424  1.00  0.00     0.007 A 
HETATM   19  C   UNL     1     -39.211 -55.394  15.691  1.00  0.00     0.007 A 
ENDBRANCH  16  17
ENDBRANCH  14  16
ENDBRANCH   7  12
ENDBRANCH   4   7
BRANCH   1  20
HETATM   20  C   UNL     1     -40.700 -49.349  11.107  1.00  0.00     0.108 A 
HETATM   21  C   UNL     1     -39.897 -48.493  11.854  1.00  0.00     0.050 A 
HETATM   22  C   UNL     1     -40.126 -47.117  11.779  1.00  0.00     0.029 A 
HETATM   23  C   UNL     1     -41.101 -46.638  10.916  1.00  0.00     0.049 A 
HETATM   24 CL   UNL     1     -41.429 -44.958  10.803  1.00  0.00    -0.083 Cl
HETATM   25  C   UNL     1     -41.805 -47.557  10.161  1.00  0.00     0.113 A 
HETATM   26  N   UNL     1     -41.655 -48.897  10.268  1.00  0.00    -0.351 N 
ATOM     27  HN  UNL     1     -42.241 -49.541   9.735  1.00  0.00     0.166 HD
ENDBRANCH   1  20
TORSDOF 5
ENDMDL
MODEL 6
REMARK VINA RESULT:      -6.5      2.912      6.131
REMARK  5 active torsions:
REMARK  status: ('A' for Active; 'I' for Inactive)
REMARK    1  A    between atoms: C_5  and  N_6 
REMARK       I    between atoms: N_6  and  C_7 
REMARK       I    between atoms: C_7  and  N_9 
REMARK    2  A    between atoms: N_9  and  C_10 
REMARK    3  A    between atoms: C_10  and  C_15 
REMARK       I    between atoms: C_15  and  N_17 
REMARK    4  A    between atoms: N_17  and  C_18 
REMARK    5  A    between atoms: C_18  and  C_19 
ROOT
HETATM    1  N   UNL     1     -43.164 -51.045  12.757  1.00  0.00    -0.295 N 
HETATM    2  C   UNL     1     -42.482 -49.904  12.426  1.00  0.00     0.322 C 
HETATM    3  O   UNL     1     -41.527 -49.984  11.658  1.00  0.00    -0.247 OA
HETATM    4  N   UNL     1     -43.008 -48.741  12.887  1.00  0.00    -0.325 N 
HETATM    5  H   UNL     1     -42.859 -51.857  12.240  1.00  0.00     0.172 HD
HETATM    6  H   UNL     1     -43.528 -48.845  13.756  1.00  0.00     0.165 HD
ENDROOT
BRANCH   4   7
HETATM    7  C   UNL     1     -42.577 -47.389  12.517  1.00  0.00     0.115 C 
HETATM    8  C   UNL     1     -41.076 -47.154  12.811  1.00  0.00     0.041 C 
HETATM    9  C   UNL     1     -40.962 -45.788  13.491  1.00  0.00     0.003 C 
HETATM   10  C   UNL     1     -42.328 -45.133  13.377  1.00  0.00     0.003 C 
HETATM   11  C   UNL     1     -43.314 -46.291  13.306  1.00  0.00     0.041 C 
BRANCH   7  12
HETATM   12  C   UNL     1     -42.825 -47.198  10.980  1.00  0.00     0.246 C 
HETATM   13  O   UNL     1     -41.925 -46.927  10.185  1.00  0.00    -0.271 OA
HETATM   14  N   UNL     1     -44.107 -47.503  10.548  1.00  0.00    -0.359 N 
HETATM   15  H   UNL     1     -44.762 -47.871  11.227  1.00  0.00     0.162 HD
BRANCH  14  16
HETATM   16  C   UNL     1     -44.477 -47.515   9.147  1.00  0.00     0.127 C 
BRANCH  16  17
HETATM   17  C   UNL     1     -45.958 -47.674   8.986  1.00  0.00     0.003 A 
HETATM   18  C   UNL     1     -46.712 -48.883   9.485  1.00  0.00     0.007 A 
HETATM   19  C   UNL     1     -46.480 -48.711   8.017  1.00  0.00     0.007 A 
ENDBRANCH  16  17
ENDBRANCH  14  16
ENDBRANCH   7  12
ENDBRANCH   4   7
BRANCH   1  20
HETATM   20  C   UNL     1     -44.256 -51.163  13.617  1.00  0.00     0.108 A 
HETATM   21  C   UNL     1     -45.518 -51.365  13.067  1.00  0.00     0.050 A 
HETATM   22  C   UNL     1     -46.624 -51.414  13.919  1.00  0.00     0.029 A 
HETATM   23  C   UNL     1     -46.429 -51.326  15.289  1.00  0.00     0.049 A 
HETATM   24 CL   UNL     1     -47.759 -51.365  16.373  1.00  0.00    -0.083 Cl
HETATM   25  C   UNL     1     -45.133 -51.194  15.752  1.00  0.00     0.113 A 
HETATM   26  N   UNL     1     -44.052 -51.070  14.947  1.00  0.00    -0.351 N 
ATOM     27  HN  UNL     1     -43.120 -50.913  15.331  1.00  0.00     0.166 HD
ENDBRANCH   1  20
TORSDOF 5
ENDMDL
MODEL 7
REMARK VINA RESULT:      -6.2      3.361      6.609
REMARK  5 active torsions:
REMARK  status: ('A' for Active; 'I' for Inactive)
REMARK    1  A    between atoms: C_5  and  N_6 
REMARK       I    between atoms: N_6  and  C_7 
REMARK       I    between atoms: C_7  and  N_9 
REMARK    2  A    between atoms: N_9  and  C_10 
REMARK    3  A    between atoms: C_10  and  C_15 
REMARK       I    between atoms: C_15  and  N_17 
REMARK    4  A    between atoms: N_17  and  C_18 
REMARK    5  A    between atoms: C_18  and  C_19 
ROOT
HETATM    1  N   UNL     1     -40.652 -52.165  12.076  1.00  0.00    -0.295 N 
HETATM    2  C   UNL     1     -40.452 -50.809  12.045  1.00  0.00     0.322 C 
HETATM    3  O   UNL     1     -39.378 -50.376  11.638  1.00  0.00    -0.247 OA
HETATM    4  N   UNL     1     -41.527 -50.043  12.359  1.00  0.00    -0.325 N 
HETATM    5  H   UNL     1     -39.900 -52.689  11.652  1.00  0.00     0.172 HD
HETATM    6  H   UNL     1     -42.177 -50.494  12.999  1.00  0.00     0.165 HD
ENDROOT
BRANCH   4   7
HETATM    7  C   UNL     1     -41.621 -48.586  12.218  1.00  0.00     0.115 C 
HETATM    8  C   UNL     1     -43.083 -48.084  12.304  1.00  0.00     0.041 C 
HETATM    9  C   UNL     1     -43.278 -47.079  11.167  1.00  0.00     0.003 C 
HETATM   10  C   UNL     1     -41.901 -46.814  10.583  1.00  0.00     0.003 C 
HETATM   11  C   UNL     1     -41.109 -48.085  10.854  1.00  0.00     0.041 C 
BRANCH   7  12
HETATM   12  C   UNL     1     -40.792 -47.925  13.374  1.00  0.00     0.246 C 
HETATM   13  O   UNL     1     -41.219 -47.810  14.523  1.00  0.00    -0.271 OA
HETATM   14  N   UNL     1     -39.480 -47.613  13.053  1.00  0.00    -0.359 N 
HETATM   15  H   UNL     1     -39.140 -47.874  12.136  1.00  0.00     0.162 HD
BRANCH  14  16
HETATM   16  C   UNL     1     -38.532 -47.123  14.034  1.00  0.00     0.127 C 
BRANCH  16  17
HETATM   17  C   UNL     1     -37.379 -48.070  14.182  1.00  0.00     0.003 A 
HETATM   18  C   UNL     1     -37.544 -49.495  14.649  1.00  0.00     0.007 A 
HETATM   19  C   UNL     1     -36.945 -48.480  15.571  1.00  0.00     0.007 A 
ENDBRANCH  16  17
ENDBRANCH  14  16
ENDBRANCH   7  12
ENDBRANCH   4   7
BRANCH   1  20
HETATM   20  C   UNL     1     -41.785 -52.847  12.515  1.00  0.00     0.108 A 
HETATM   21  C   UNL     1     -41.696 -53.609  13.677  1.00  0.00     0.050 A 
HETATM   22  C   UNL     1     -42.808 -54.350  14.083  1.00  0.00     0.029 A 
HETATM   23  C   UNL     1     -43.988 -54.256  13.359  1.00  0.00     0.049 A 
HETATM   24 CL   UNL     1     -45.374 -55.161  13.811  1.00  0.00    -0.083 Cl
HETATM   25  C   UNL     1     -44.006 -53.422  12.257  1.00  0.00     0.113 A 
HETATM   26  N   UNL     1     -42.925 -52.750  11.799  1.00  0.00    -0.351 N 
ATOM     27  HN  UNL     1     -42.968 -52.194  10.945  1.00  0.00     0.166 HD
ENDBRANCH   1  20
TORSDOF 5
ENDMDL
MODEL 8
REMARK VINA RESULT:      -6.2      2.660      3.127
REMARK  5 active torsions:
REMARK  status: ('A' for Active; 'I' for Inactive)
REMARK    1  A    between atoms: C_5  and  N_6 
REMARK       I    between atoms: N_6  and  C_7 
REMARK       I    between atoms: C_7  and  N_9 
REMARK    2  A    between atoms: N_9  and  C_10 
REMARK    3  A    between atoms: C_10  and  C_15 
REMARK       I    between atoms: C_15  and  N_17 
REMARK    4  A    between atoms: N_17  and  C_18 
REMARK    5  A    between atoms: C_18  and  C_19 
ROOT
HETATM    1  N   UNL     1     -38.302 -49.307  12.326  1.00  0.00    -0.295 N 
HETATM    2  C   UNL     1     -38.775 -50.577  12.530  1.00  0.00     0.322 C 
HETATM    3  O   UNL     1     -37.988 -51.518  12.491  1.00  0.00    -0.247 OA
HETATM    4  N   UNL     1     -40.081 -50.674  12.889  1.00  0.00    -0.325 N 
HETATM    5  H   UNL     1     -37.295 -49.263  12.256  1.00  0.00     0.172 HD
HETATM    6  H   UNL     1     -40.659 -49.916  12.532  1.00  0.00     0.165 HD
ENDROOT
BRANCH   4   7
HETATM    7  C   UNL     1     -40.765 -51.890  13.341  1.00  0.00     0.115 C 
HETATM    8  C   UNL     1     -39.991 -52.608  14.473  1.00  0.00     0.041 C 
HETATM    9  C   UNL     1     -39.974 -54.098  14.127  1.00  0.00     0.003 C 
HETATM   10  C   UNL     1     -40.921 -54.281  12.953  1.00  0.00     0.003 C 
HETATM   11  C   UNL     1     -40.907 -52.943  12.226  1.00  0.00     0.041 C 
BRANCH   7  12
HETATM   12  C   UNL     1     -42.183 -51.486  13.877  1.00  0.00     0.246 C 
HETATM   13  O   UNL     1     -42.436 -51.363  15.075  1.00  0.00    -0.271 OA
HETATM   14  N   UNL     1     -43.100 -51.125  12.901  1.00  0.00    -0.359 N 
HETATM   15  H   UNL     1     -42.784 -51.097  11.939  1.00  0.00     0.162 HD
BRANCH  14  16
HETATM   16  C   UNL     1     -44.411 -50.596  13.219  1.00  0.00     0.127 C 
BRANCH  16  17
HETATM   17  C   UNL     1     -45.422 -51.698  13.324  1.00  0.00     0.003 A 
HETATM   18  C   UNL     1     -46.810 -51.594  12.741  1.00  0.00     0.007 A 
HETATM   19  C   UNL     1     -46.622 -51.505  14.223  1.00  0.00     0.007 A 
ENDBRANCH  16  17
ENDBRANCH  14  16
ENDBRANCH   7  12
ENDBRANCH   4   7
BRANCH   1  20
HETATM   20  C   UNL     1     -39.032 -48.119  12.315  1.00  0.00     0.108 A 
HETATM   21  C   UNL     1     -39.070 -47.350  13.474  1.00  0.00     0.050 A 
HETATM   22  C   UNL     1     -39.856 -46.196  13.491  1.00  0.00     0.029 A 
HETATM   23  C   UNL     1     -40.524 -45.813  12.337  1.00  0.00     0.049 A 
HETATM   24 CL   UNL     1     -41.514 -44.412  12.316  1.00  0.00    -0.083 Cl
HETATM   25  C   UNL     1     -40.375 -46.601  11.211  1.00  0.00     0.113 A 
HETATM   26  N   UNL     1     -39.681 -47.762  11.187  1.00  0.00    -0.351 N 
ATOM     27  HN  UNL     1     -39.648 -48.344  10.350  1.00  0.00     0.166 HD
ENDBRANCH   1  20
TORSDOF 5
ENDMDL
MODEL 9
REMARK VINA RESULT:      -6.1      3.338      6.282
REMARK  5 active torsions:
REMARK  status: ('A' for Active; 'I' for Inactive)
REMARK    1  A    between atoms: C_5  and  N_6 
REMARK       I    between atoms: N_6  and  C_7 
REMARK       I    between atoms: C_7  and  N_9 
REMARK    2  A    between atoms: N_9  and  C_10 
REMARK    3  A    between atoms: C_10  and  C_15 
REMARK       I    between atoms: C_15  and  N_17 
REMARK    4  A    between atoms: N_17  and  C_18 
REMARK    5  A    between atoms: C_18  and  C_19 
ROOT
HETATM    1  N   UNL     1     -39.524 -51.106  11.781  1.00  0.00    -0.295 N 
HETATM    2  C   UNL     1     -39.253 -49.788  12.038  1.00  0.00     0.322 C 
HETATM    3  O   UNL     1     -38.292 -49.260  11.486  1.00  0.00    -0.247 OA
HETATM    4  N   UNL     1     -40.163 -49.131  12.802  1.00  0.00    -0.325 N 
HETATM    5  H   UNL     1     -38.939 -51.500  11.059  1.00  0.00     0.172 HD
HETATM    6  H   UNL     1     -40.658 -49.735  13.456  1.00  0.00     0.165 HD
ENDROOT
BRANCH   4   7
HETATM    7  C   UNL     1     -40.197 -47.688  13.058  1.00  0.00     0.115 C 
HETATM    8  C   UNL     1     -38.827 -47.146  13.531  1.00  0.00     0.041 C 
HETATM    9  C   UNL     1     -39.098 -46.225  14.722  1.00  0.00     0.003 C 
HETATM   10  C   UNL     1     -40.603 -46.038  14.792  1.00  0.00     0.003 C 
HETATM   11  C   UNL     1     -41.185 -47.303  14.176  1.00  0.00     0.041 C 
BRANCH   7  12
HETATM   12  C   UNL     1     -40.593 -46.961  11.725  1.00  0.00     0.246 C 
HETATM   13  O   UNL     1     -39.770 -46.418  10.988  1.00  0.00    -0.271 OA
HETATM   14  N   UNL     1     -41.921 -47.102  11.350  1.00  0.00    -0.359 N 
HETATM   15  H   UNL     1     -42.515 -47.692  11.919  1.00  0.00     0.162 HD
BRANCH  14  16
HETATM   16  C   UNL     1     -42.430 -46.615  10.084  1.00  0.00     0.127 C 
BRANCH  16  17
HETATM   17  C   UNL     1     -43.235 -47.671   9.389  1.00  0.00     0.003 A 
HETATM   18  C   UNL     1     -43.593 -47.597   7.925  1.00  0.00     0.007 A 
HETATM   19  C   UNL     1     -44.647 -47.348   8.957  1.00  0.00     0.007 A 
ENDBRANCH  16  17
ENDBRANCH  14  16
ENDBRANCH   7  12
ENDBRANCH   4   7
BRANCH   1  20
HETATM   20  C   UNL     1     -40.551 -51.882  12.317  1.00  0.00     0.108 A 
HETATM   21  C   UNL     1     -40.269 -52.699  13.408  1.00  0.00     0.050 A 
HETATM   22  C   UNL     1     -41.275 -53.531  13.904  1.00  0.00     0.029 A 
HETATM   23  C   UNL     1     -42.542 -53.474  13.342  1.00  0.00     0.049 A 
HETATM   24 CL   UNL     1     -43.804 -54.489  13.908  1.00  0.00    -0.083 Cl
HETATM   25  C   UNL     1     -42.750 -52.584  12.305  1.00  0.00     0.113 A 
HETATM   26  N   UNL     1     -41.777 -51.821  11.757  1.00  0.00    -0.351 N 
ATOM     27  HN  UNL     1     -41.962 -51.222  10.951  1.00  0.00     0.166 HD
ENDBRANCH   1  20
TORSDOF 5
ENDMDL
