MODEL 1
REMARK VINA RESULT:      -6.3      0.000      0.000
REMARK  8 active torsions:
REMARK  status: ('A' for Active; 'I' for Inactive)
REMARK    1  A    between atoms: N_2  and  C_3 
REMARK    2  A    between atoms: N_13  and  C_14 
REMARK    3  A    between atoms: C_14  and  C_15 
REMARK    4  A    between atoms: C_15  and  O_16 
REMARK    5  A    between atoms: C_15  and  C_17 
REMARK    6  A    between atoms: C_17  and  O_18 
REMARK    7  A    between atoms: O_18  and  C_19 
REMARK    8  A    between atoms: C_19  and  C_20 
ROOT
HETATM    1  C   UNL     1     -39.636 -50.103  11.334  1.00  0.00     0.112 A 
HETATM    2  N   UNL     1     -38.422 -49.735  10.867  1.00  0.00    -0.341 N 
ATOM      3  HN  UNL     1     -38.344 -49.215   9.994  1.00  0.00     0.167 HD
HETATM    4  C   UNL     1     -37.317 -50.060  11.563  1.00  0.00     0.183 A 
HETATM    5  N   UNL     1     -37.240 -50.749  12.703  1.00  0.00    -0.337 N 
ATOM      6  HN  UNL     1     -36.364 -50.950  13.185  1.00  0.00     0.168 HD
HETATM    7  C   UNL     1     -38.444 -51.148  13.144  1.00  0.00     0.137 A 
HETATM    8  N   UNL     1     -38.635 -51.880  14.284  1.00  0.00    -0.336 N 
ATOM      9  HN  UNL     1     -37.926 -52.212  14.938  1.00  0.00     0.168 HD
HETATM   10  C   UNL     1     -39.932 -52.060  14.349  1.00  0.00     0.185 A 
HETATM   11  N   UNL     1     -40.588 -51.452  13.307  1.00  0.00    -0.335 N 
HETATM   12  C   UNL     1     -39.645 -50.849  12.510  1.00  0.00     0.118 A 
ENDROOT
BRANCH  11  13
HETATM   13  C   UNL     1     -42.031 -51.419  13.189  1.00  0.00     0.164 C 
BRANCH  13  14
HETATM   14  C   UNL     1     -42.603 -52.439  12.193  1.00  0.00     0.160 C 
BRANCH  14  15
HETATM   15  O   UNL     1     -41.638 -52.774  11.189  1.00  0.00    -0.392 OA
HETATM   16  H   UNL     1     -41.334 -51.962  10.748  1.00  0.00     0.210 HD
ENDBRANCH  14  15
BRANCH  14  17
HETATM   17  C   UNL     1     -43.024 -53.718  12.933  1.00  0.00     0.201 C 
BRANCH  17  18
HETATM   18  O   UNL     1     -44.298 -54.132  12.460  1.00  0.00    -0.384 OA
BRANCH  18  19
HETATM   19  C   UNL     1     -45.135 -54.623  13.504  1.00  0.00     0.213 C 
BRANCH  19  20
HETATM   20  C   UNL     1     -45.763 -53.418  14.122  1.00  0.00     0.006 A 
HETATM   21  C   UNL     1     -46.334 -52.332  13.484  1.00  0.00     0.017 A 
HETATM   22  C   UNL     1     -46.837 -51.366  14.400  1.00  0.00     0.008 A 
HETATM   23  C   UNL     1     -46.633 -51.743  15.709  1.00  0.00     0.050 A 
HETATM   24  S   UNL     1     -45.838 -53.252  15.825  1.00  0.00    -0.104 SA
ENDBRANCH  19  20
ENDBRANCH  18  19
ENDBRANCH  17  18
ENDBRANCH  14  17
ENDBRANCH  13  14
ENDBRANCH  11  13
BRANCH   1  25
HETATM   25  N   UNL     1     -40.795 -49.728  10.653  1.00  0.00    -0.281 NA
HETATM   26  C   UNL     1     -41.338 -48.421  10.990  1.00  0.00     0.114 C 
HETATM   27  H   UNL     1     -41.498 -50.454  10.682  1.00  0.00     0.128 HD
ENDBRANCH   1  25
TORSDOF 8
ENDMDL
MODEL 2
REMARK VINA RESULT:      -6.0      1.611      2.870
REMARK  8 active torsions:
REMARK  status: ('A' for Active; 'I' for Inactive)
REMARK    1  A    between atoms: N_2  and  C_3 
REMARK    2  A    between atoms: N_13  and  C_14 
REMARK    3  A    between atoms: C_14  and  C_15 
REMARK    4  A    between atoms: C_15  and  O_16 
REMARK    5  A    between atoms: C_15  and  C_17 
REMARK    6  A    between atoms: C_17  and  O_18 
REMARK    7  A    between atoms: O_18  and  C_19 
REMARK    8  A    between atoms: C_19  and  C_20 
ROOT
HETATM    1  C   UNL     1     -42.423 -49.359  11.940  1.00  0.00     0.112 A 
HETATM    2  N   UNL     1     -42.847 -48.249  11.295  1.00  0.00    -0.341 N 
ATOM      3  HN  UNL     1     -43.838 -48.008  11.285  1.00  0.00     0.167 HD
HETATM    4  C   UNL     1     -41.952 -47.464  10.668  1.00  0.00     0.183 A 
HETATM    5  N   UNL     1     -40.634 -47.642  10.568  1.00  0.00    -0.337 N 
ATOM      6  HN  UNL     1     -40.009 -46.996  10.084  1.00  0.00     0.168 HD
HETATM    7  C   UNL     1     -40.220 -48.767  11.175  1.00  0.00     0.137 A 
HETATM    8  N   UNL     1     -38.918 -49.183  11.205  1.00  0.00    -0.336 N 
ATOM      9  HN  UNL     1     -38.106 -48.722  10.794  1.00  0.00     0.168 HD
HETATM   10  C   UNL     1     -38.944 -50.307  11.879  1.00  0.00     0.185 A 
HETATM   11  N   UNL     1     -40.211 -50.620  12.306  1.00  0.00    -0.335 N 
HETATM   12  C   UNL     1     -41.060 -49.634  11.865  1.00  0.00     0.118 A 
ENDROOT
BRANCH  11  13
HETATM   13  C   UNL     1     -40.505 -51.761  13.149  1.00  0.00     0.164 C 
BRANCH  13  14
HETATM   14  C   UNL     1     -41.279 -52.882  12.441  1.00  0.00     0.160 C 
BRANCH  14  15
HETATM   15  O   UNL     1     -40.505 -53.448  11.377  1.00  0.00    -0.392 OA
HETATM   16  H   UNL     1     -39.620 -53.679  11.707  1.00  0.00     0.210 HD
ENDBRANCH  14  15
BRANCH  14  17
HETATM   17  C   UNL     1     -41.639 -53.988  13.445  1.00  0.00     0.201 C 
BRANCH  17  18
HETATM   18  O   UNL     1     -42.729 -53.553  14.245  1.00  0.00    -0.384 OA
BRANCH  18  19
HETATM   19  C   UNL     1     -43.923 -54.291  13.990  1.00  0.00     0.213 C 
BRANCH  19  20
HETATM   20  C   UNL     1     -45.006 -53.273  13.844  1.00  0.00     0.006 A 
HETATM   21  C   UNL     1     -45.548 -52.767  12.678  1.00  0.00     0.017 A 
HETATM   22  C   UNL     1     -46.570 -51.807  12.924  1.00  0.00     0.008 A 
HETATM   23  C   UNL     1     -46.775 -51.609  14.272  1.00  0.00     0.050 A 
HETATM   24  S   UNL     1     -45.737 -52.575  15.227  1.00  0.00    -0.104 SA
ENDBRANCH  19  20
ENDBRANCH  18  19
ENDBRANCH  17  18
ENDBRANCH  14  17
ENDBRANCH  13  14
ENDBRANCH  11  13
BRANCH   1  25
HETATM   25  N   UNL     1     -43.331 -50.154  12.641  1.00  0.00    -0.281 NA
HETATM   26  C   UNL     1     -43.517 -49.825  14.046  1.00  0.00     0.114 C 
HETATM   27  H   UNL     1     -43.152 -51.139  12.499  1.00  0.00     0.128 HD
ENDBRANCH   1  25
TORSDOF 8
ENDMDL
MODEL 3
REMARK VINA RESULT:      -5.9      2.017      3.335
REMARK  8 active torsions:
REMARK  status: ('A' for Active; 'I' for Inactive)
REMARK    1  A    between atoms: N_2  and  C_3 
REMARK    2  A    between atoms: N_13  and  C_14 
REMARK    3  A    between atoms: C_14  and  C_15 
REMARK    4  A    between atoms: C_15  and  O_16 
REMARK    5  A    between atoms: C_15  and  C_17 
REMARK    6  A    between atoms: C_17  and  O_18 
REMARK    7  A    between atoms: O_18  and  C_19 
REMARK    8  A    between atoms: C_19  and  C_20 
ROOT
HETATM    1  C   UNL     1     -40.827 -49.484  11.012  1.00  0.00     0.112 A 
HETATM    2  N   UNL     1     -41.123 -48.455  10.187  1.00  0.00    -0.341 N 
ATOM      3  HN  UNL     1     -40.430 -48.118   9.519  1.00  0.00     0.167 HD
HETATM    4  C   UNL     1     -42.337 -47.878  10.255  1.00  0.00     0.183 A 
HETATM    5  N   UNL     1     -43.342 -48.179  11.078  1.00  0.00    -0.337 N 
ATOM      6  HN  UNL     1     -44.246 -47.705  11.066  1.00  0.00     0.168 HD
HETATM    7  C   UNL     1     -43.033 -49.176  11.924  1.00  0.00     0.137 A 
HETATM    8  N   UNL     1     -43.887 -49.663  12.875  1.00  0.00    -0.336 N 
ATOM      9  HN  UNL     1     -44.841 -49.358  13.070  1.00  0.00     0.168 HD
HETATM   10  C   UNL     1     -43.208 -50.607  13.478  1.00  0.00     0.185 A 
HETATM   11  N   UNL     1     -41.956 -50.765  12.938  1.00  0.00    -0.335 N 
HETATM   12  C   UNL     1     -41.816 -49.849  11.923  1.00  0.00     0.118 A 
ENDROOT
BRANCH  11  13
HETATM   13  C   UNL     1     -41.034 -51.801  13.358  1.00  0.00     0.164 C 
BRANCH  13  14
HETATM   14  C   UNL     1     -41.261 -53.158  12.676  1.00  0.00     0.160 C 
BRANCH  14  15
HETATM   15  O   UNL     1     -40.422 -53.301  11.524  1.00  0.00    -0.392 OA
HETATM   16  H   UNL     1     -39.530 -52.974  11.730  1.00  0.00     0.210 HD
ENDBRANCH  14  15
BRANCH  14  17
HETATM   17  C   UNL     1     -40.962 -54.298  13.661  1.00  0.00     0.201 C 
BRANCH  17  18
HETATM   18  O   UNL     1     -41.743 -54.117  14.835  1.00  0.00    -0.384 OA
BRANCH  18  19
HETATM   19  C   UNL     1     -42.764 -55.102  14.968  1.00  0.00     0.213 C 
BRANCH  19  20
HETATM   20  C   UNL     1     -44.056 -54.352  14.945  1.00  0.00     0.006 A 
HETATM   21  C   UNL     1     -44.429 -53.272  15.723  1.00  0.00     0.017 A 
HETATM   22  C   UNL     1     -45.742 -52.813  15.422  1.00  0.00     0.008 A 
HETATM   23  C   UNL     1     -46.331 -53.557  14.424  1.00  0.00     0.050 A 
HETATM   24  S   UNL     1     -45.303 -54.801  13.860  1.00  0.00    -0.104 SA
ENDBRANCH  19  20
ENDBRANCH  18  19
ENDBRANCH  17  18
ENDBRANCH  14  17
ENDBRANCH  13  14
ENDBRANCH  11  13
BRANCH   1  25
HETATM   25  N   UNL     1     -39.593 -50.129  10.918  1.00  0.00    -0.281 NA
HETATM   26  C   UNL     1     -38.507 -49.545  11.691  1.00  0.00     0.114 C 
HETATM   27  H   UNL     1     -39.331 -50.296   9.956  1.00  0.00     0.128 HD
ENDBRANCH   1  25
TORSDOF 8
ENDMDL
MODEL 4
REMARK VINA RESULT:      -5.9      0.714      2.376
REMARK  8 active torsions:
REMARK  status: ('A' for Active; 'I' for Inactive)
REMARK    1  A    between atoms: N_2  and  C_3 
REMARK    2  A    between atoms: N_13  and  C_14 
REMARK    3  A    between atoms: C_14  and  C_15 
REMARK    4  A    between atoms: C_15  and  O_16 
REMARK    5  A    between atoms: C_15  and  C_17 
REMARK    6  A    between atoms: C_17  and  O_18 
REMARK    7  A    between atoms: O_18  and  C_19 
REMARK    8  A    between atoms: C_19  and  C_20 
ROOT
HETATM    1  C   UNL     1     -38.613 -51.381  12.874  1.00  0.00     0.112 A 
HETATM    2  N   UNL     1     -37.407 -50.913  12.484  1.00  0.00    -0.341 N 
ATOM      3  HN  UNL     1     -36.552 -51.305  12.879  1.00  0.00     0.167 HD
HETATM    4  C   UNL     1     -37.342 -49.925  11.572  1.00  0.00     0.183 A 
HETATM    5  N   UNL     1     -38.353 -49.291  10.977  1.00  0.00    -0.337 N 
ATOM      6  HN  UNL     1     -38.230 -48.555  10.281  1.00  0.00     0.168 HD
HETATM    7  C   UNL     1     -39.552 -49.731  11.395  1.00  0.00     0.137 A 
HETATM    8  N   UNL     1     -40.745 -49.235  10.947  1.00  0.00    -0.336 N 
ATOM      9  HN  UNL     1     -40.895 -48.496  10.260  1.00  0.00     0.168 HD
HETATM   10  C   UNL     1     -41.654 -49.920  11.598  1.00  0.00     0.185 A 
HETATM   11  N   UNL     1     -41.093 -50.855  12.431  1.00  0.00    -0.335 N 
HETATM   12  C   UNL     1     -39.727 -50.756  12.317  1.00  0.00     0.118 A 
ENDROOT
BRANCH  11  13
HETATM   13  C   UNL     1     -41.873 -51.806  13.196  1.00  0.00     0.164 C 
BRANCH  13  14
HETATM   14  C   UNL     1     -42.199 -53.103  12.441  1.00  0.00     0.160 C 
BRANCH  14  15
HETATM   15  O   UNL     1     -41.003 -53.814  12.101  1.00  0.00    -0.392 OA
HETATM   16  H   UNL     1     -40.441 -53.899  12.890  1.00  0.00     0.210 HD
ENDBRANCH  14  15
BRANCH  14  17
HETATM   17  C   UNL     1     -43.093 -54.005  13.306  1.00  0.00     0.201 C 
BRANCH  17  18
HETATM   18  O   UNL     1     -44.333 -54.207  12.642  1.00  0.00    -0.384 OA
BRANCH  18  19
HETATM   19  C   UNL     1     -45.352 -54.678  13.520  1.00  0.00     0.213 C 
BRANCH  19  20
HETATM   20  C   UNL     1     -45.910 -53.463  14.185  1.00  0.00     0.006 A 
HETATM   21  C   UNL     1     -46.385 -52.309  13.591  1.00  0.00     0.017 A 
HETATM   22  C   UNL     1     -46.843 -51.355  14.544  1.00  0.00     0.008 A 
HETATM   23  C   UNL     1     -46.702 -51.811  15.836  1.00  0.00     0.050 A 
HETATM   24  S   UNL     1     -46.019 -53.378  15.892  1.00  0.00    -0.104 SA
ENDBRANCH  19  20
ENDBRANCH  18  19
ENDBRANCH  17  18
ENDBRANCH  14  17
ENDBRANCH  13  14
ENDBRANCH  11  13
BRANCH   1  25
HETATM   25  N   UNL     1     -38.697 -52.441  13.778  1.00  0.00    -0.281 NA
HETATM   26  C   UNL     1     -38.833 -52.075  15.180  1.00  0.00     0.114 C 
HETATM   27  H   UNL     1     -37.962 -53.119  13.628  1.00  0.00     0.128 HD
ENDBRANCH   1  25
TORSDOF 8
ENDMDL
MODEL 5
REMARK VINA RESULT:      -5.9      3.396      5.172
REMARK  8 active torsions:
REMARK  status: ('A' for Active; 'I' for Inactive)
REMARK    1  A    between atoms: N_2  and  C_3 
REMARK    2  A    between atoms: N_13  and  C_14 
REMARK    3  A    between atoms: C_14  and  C_15 
REMARK    4  A    between atoms: C_15  and  O_16 
REMARK    5  A    between atoms: C_15  and  C_17 
REMARK    6  A    between atoms: C_17  and  O_18 
REMARK    7  A    between atoms: O_18  and  C_19 
REMARK    8  A    between atoms: C_19  and  C_20 
ROOT
HETATM    1  C   UNL     1     -41.203 -47.015  10.595  1.00  0.00     0.112 A 
HETATM    2  N   UNL     1     -42.147 -46.441   9.816  1.00  0.00    -0.341 N 
ATOM      3  HN  UNL     1     -41.908 -45.649   9.220  1.00  0.00     0.167 HD
HETATM    4  C   UNL     1     -43.403 -46.923   9.832  1.00  0.00     0.183 A 
HETATM    5  N   UNL     1     -43.885 -47.930  10.561  1.00  0.00    -0.337 N 
ATOM      6  HN  UNL     1     -44.852 -48.252  10.514  1.00  0.00     0.168 HD
HETATM    7  C   UNL     1     -42.956 -48.473  11.365  1.00  0.00     0.137 A 
HETATM    8  N   UNL     1     -43.199 -49.512  12.221  1.00  0.00    -0.336 N 
ATOM      9  HN  UNL     1     -44.080 -50.006  12.366  1.00  0.00     0.168 HD
HETATM   10  C   UNL     1     -42.051 -49.730  12.813  1.00  0.00     0.185 A 
HETATM   11  N   UNL     1     -41.068 -48.888  12.355  1.00  0.00    -0.335 N 
HETATM   12  C   UNL     1     -41.628 -48.062  11.410  1.00  0.00     0.118 A 
ENDROOT
BRANCH  11  13
HETATM   13  C   UNL     1     -39.685 -48.978  12.776  1.00  0.00     0.164 C 
BRANCH  13  14
HETATM   14  C   UNL     1     -38.830 -49.928  11.925  1.00  0.00     0.160 C 
BRANCH  14  15
HETATM   15  O   UNL     1     -38.067 -49.203  10.953  1.00  0.00    -0.392 OA
HETATM   16  H   UNL     1     -37.180 -49.022  11.307  1.00  0.00     0.210 HD
ENDBRANCH  14  15
BRANCH  14  17
HETATM   17  C   UNL     1     -37.872 -50.723  12.826  1.00  0.00     0.201 C 
BRANCH  17  18
HETATM   18  O   UNL     1     -38.392 -52.031  13.019  1.00  0.00    -0.384 OA
BRANCH  18  19
HETATM   19  C   UNL     1     -38.923 -52.220  14.329  1.00  0.00     0.213 C 
BRANCH  19  20
HETATM   20  C   UNL     1     -40.178 -53.009  14.148  1.00  0.00     0.006 A 
HETATM   21  C   UNL     1     -40.889 -53.224  12.982  1.00  0.00     0.017 A 
HETATM   22  C   UNL     1     -42.043 -54.032  13.189  1.00  0.00     0.008 A 
HETATM   23  C   UNL     1     -42.177 -54.407  14.508  1.00  0.00     0.050 A 
HETATM   24  S   UNL     1     -40.919 -53.785  15.483  1.00  0.00    -0.104 SA
ENDBRANCH  19  20
ENDBRANCH  18  19
ENDBRANCH  17  18
ENDBRANCH  14  17
ENDBRANCH  13  14
ENDBRANCH  11  13
BRANCH   1  25
HETATM   25  N   UNL     1     -39.884 -46.562  10.551  1.00  0.00    -0.281 NA
HETATM   26  C   UNL     1     -39.705 -45.140  10.303  1.00  0.00     0.114 C 
HETATM   27  H   UNL     1     -39.313 -47.132   9.940  1.00  0.00     0.128 HD
ENDBRANCH   1  25
TORSDOF 8
ENDMDL
MODEL 6
REMARK VINA RESULT:      -5.7      3.496      6.666
REMARK  8 active torsions:
REMARK  status: ('A' for Active; 'I' for Inactive)
REMARK    1  A    between atoms: N_2  and  C_3 
REMARK    2  A    between atoms: N_13  and  C_14 
REMARK    3  A    between atoms: C_14  and  C_15 
REMARK    4  A    between atoms: C_15  and  O_16 
REMARK    5  A    between atoms: C_15  and  C_17 
REMARK    6  A    between atoms: C_17  and  O_18 
REMARK    7  A    between atoms: O_18  and  C_19 
REMARK    8  A    between atoms: C_19  and  C_20 
ROOT
HETATM    1  C   UNL     1     -45.743 -53.172  13.250  1.00  0.00     0.112 A 
HETATM    2  N   UNL     1     -46.811 -53.514  14.005  1.00  0.00    -0.341 N 
ATOM      3  HN  UNL     1     -47.753 -53.455  13.619  1.00  0.00     0.167 HD
HETATM    4  C   UNL     1     -46.622 -53.931  15.270  1.00  0.00     0.183 A 
HETATM    5  N   UNL     1     -45.470 -54.046  15.932  1.00  0.00    -0.337 N 
ATOM      6  HN  UNL     1     -45.399 -54.383  16.893  1.00  0.00     0.168 HD
HETATM    7  C   UNL     1     -44.413 -53.668  15.193  1.00  0.00     0.137 A 
HETATM    8  N   UNL     1     -43.123 -53.680  15.645  1.00  0.00    -0.336 N 
ATOM      9  HN  UNL     1     -42.787 -53.967  16.565  1.00  0.00     0.168 HD
HETATM   10  C   UNL     1     -42.414 -53.241  14.634  1.00  0.00     0.185 A 
HETATM   11  N   UNL     1     -43.194 -52.968  13.539  1.00  0.00    -0.335 N 
HETATM   12  C   UNL     1     -44.499 -53.240  13.873  1.00  0.00     0.118 A 
ENDROOT
BRANCH  11  13
HETATM   13  C   UNL     1     -42.653 -52.557  12.260  1.00  0.00     0.164 C 
BRANCH  13  14
HETATM   14  C   UNL     1     -41.119 -52.475  12.225  1.00  0.00     0.160 C 
BRANCH  14  15
HETATM   15  O   UNL     1     -40.581 -53.341  11.219  1.00  0.00    -0.392 OA
HETATM   16  H   UNL     1     -41.264 -53.973  10.937  1.00  0.00     0.210 HD
ENDBRANCH  14  15
BRANCH  14  17
HETATM   17  C   UNL     1     -40.677 -51.032  11.936  1.00  0.00     0.201 C 
BRANCH  17  18
HETATM   18  O   UNL     1     -41.805 -50.172  12.023  1.00  0.00    -0.384 OA
BRANCH  18  19
HETATM   19  C   UNL     1     -41.542 -49.002  12.793  1.00  0.00     0.213 C 
BRANCH  19  20
HETATM   20  C   UNL     1     -41.597 -47.862  11.830  1.00  0.00     0.006 A 
HETATM   21  C   UNL     1     -40.596 -46.960  11.520  1.00  0.00     0.017 A 
HETATM   22  C   UNL     1     -41.008 -46.002  10.550  1.00  0.00     0.008 A 
HETATM   23  C   UNL     1     -42.311 -46.202  10.152  1.00  0.00     0.050 A 
HETATM   24  S   UNL     1     -43.028 -47.535  10.947  1.00  0.00    -0.104 SA
ENDBRANCH  19  20
ENDBRANCH  18  19
ENDBRANCH  17  18
ENDBRANCH  14  17
ENDBRANCH  13  14
ENDBRANCH  11  13
BRANCH   1  25
HETATM   25  N   UNL     1     -45.917 -52.789  11.920  1.00  0.00    -0.281 NA
HETATM   26  C   UNL     1     -46.952 -51.797  11.671  1.00  0.00     0.114 C 
HETATM   27  H   UNL     1     -45.999 -53.590  11.307  1.00  0.00     0.128 HD
ENDBRANCH   1  25
TORSDOF 8
ENDMDL
MODEL 7
REMARK VINA RESULT:      -5.6      3.353      6.815
REMARK  8 active torsions:
REMARK  status: ('A' for Active; 'I' for Inactive)
REMARK    1  A    between atoms: N_2  and  C_3 
REMARK    2  A    between atoms: N_13  and  C_14 
REMARK    3  A    between atoms: C_14  and  C_15 
REMARK    4  A    between atoms: C_15  and  O_16 
REMARK    5  A    between atoms: C_15  and  C_17 
REMARK    6  A    between atoms: C_17  and  O_18 
REMARK    7  A    between atoms: O_18  and  C_19 
REMARK    8  A    between atoms: C_19  and  C_20 
ROOT
HETATM    1  C   UNL     1     -44.939 -51.441  14.172  1.00  0.00     0.112 A 
HETATM    2  N   UNL     1     -46.236 -51.234  14.492  1.00  0.00    -0.341 N 
ATOM      3  HN  UNL     1     -46.584 -50.286  14.635  1.00  0.00     0.167 HD
HETATM    4  C   UNL     1     -47.063 -52.288  14.620  1.00  0.00     0.183 A 
HETATM    5  N   UNL     1     -46.769 -53.582  14.488  1.00  0.00    -0.337 N 
ATOM      6  HN  UNL     1     -47.453 -54.332  14.588  1.00  0.00     0.168 HD
HETATM    7  C   UNL     1     -45.471 -53.787  14.210  1.00  0.00     0.137 A 
HETATM    8  N   UNL     1     -44.914 -55.024  14.040  1.00  0.00    -0.336 N 
ATOM      9  HN  UNL     1     -45.379 -55.931  14.093  1.00  0.00     0.168 HD
HETATM   10  C   UNL     1     -43.648 -54.787  13.793  1.00  0.00     0.185 A 
HETATM   11  N   UNL     1     -43.372 -53.443  13.775  1.00  0.00    -0.335 N 
HETATM   12  C   UNL     1     -44.540 -52.769  14.040  1.00  0.00     0.118 A 
ENDROOT
BRANCH  11  13
HETATM   13  C   UNL     1     -42.070 -52.904  13.436  1.00  0.00     0.164 C 
BRANCH  13  14
HETATM   14  C   UNL     1     -41.075 -53.950  12.911  1.00  0.00     0.160 C 
BRANCH  14  15
HETATM   15  O   UNL     1     -40.526 -53.549  11.650  1.00  0.00    -0.392 OA
HETATM   16  H   UNL     1     -41.219 -53.128  11.114  1.00  0.00     0.210 HD
ENDBRANCH  14  15
BRANCH  14  17
HETATM   17  C   UNL     1     -39.933 -54.141  13.920  1.00  0.00     0.201 C 
BRANCH  17  18
HETATM   18  O   UNL     1     -38.815 -53.365  13.511  1.00  0.00    -0.384 OA
BRANCH  18  19
HETATM   19  C   UNL     1     -38.693 -52.151  14.248  1.00  0.00     0.213 C 
BRANCH  19  20
HETATM   20  C   UNL     1     -38.501 -51.075  13.229  1.00  0.00     0.006 A 
HETATM   21  C   UNL     1     -37.432 -50.896  12.371  1.00  0.00     0.017 A 
HETATM   22  C   UNL     1     -37.593 -49.757  11.532  1.00  0.00     0.008 A 
HETATM   23  C   UNL     1     -38.779 -49.101  11.778  1.00  0.00     0.050 A 
HETATM   24  S   UNL     1     -39.686 -49.858  13.013  1.00  0.00    -0.104 SA
ENDBRANCH  19  20
ENDBRANCH  18  19
ENDBRANCH  17  18
ENDBRANCH  14  17
ENDBRANCH  13  14
ENDBRANCH  11  13
BRANCH   1  25
HETATM   25  N   UNL     1     -44.080 -50.357  13.983  1.00  0.00    -0.281 NA
HETATM   26  C   UNL     1     -43.510 -49.775  15.189  1.00  0.00     0.114 C 
HETATM   27  H   UNL     1     -44.488 -49.658  13.376  1.00  0.00     0.128 HD
ENDBRANCH   1  25
TORSDOF 8
ENDMDL
MODEL 8
REMARK VINA RESULT:      -5.6      3.677      6.988
REMARK  8 active torsions:
REMARK  status: ('A' for Active; 'I' for Inactive)
REMARK    1  A    between atoms: N_2  and  C_3 
REMARK    2  A    between atoms: N_13  and  C_14 
REMARK    3  A    between atoms: C_14  and  C_15 
REMARK    4  A    between atoms: C_15  and  O_16 
REMARK    5  A    between atoms: C_15  and  C_17 
REMARK    6  A    between atoms: C_17  and  O_18 
REMARK    7  A    between atoms: O_18  and  C_19 
REMARK    8  A    between atoms: C_19  and  C_20 
ROOT
HETATM    1  C   UNL     1     -45.706 -53.246  13.277  1.00  0.00     0.112 A 
HETATM    2  N   UNL     1     -46.793 -53.610  13.994  1.00  0.00    -0.341 N 
ATOM      3  HN  UNL     1     -47.722 -53.567  13.575  1.00  0.00     0.167 HD
HETATM    4  C   UNL     1     -46.640 -54.030  15.263  1.00  0.00     0.183 A 
HETATM    5  N   UNL     1     -45.510 -54.126  15.964  1.00  0.00    -0.337 N 
ATOM      6  HN  UNL     1     -45.466 -54.467  16.925  1.00  0.00     0.168 HD
HETATM    7  C   UNL     1     -44.436 -53.726  15.263  1.00  0.00     0.137 A 
HETATM    8  N   UNL     1     -43.161 -53.716  15.759  1.00  0.00    -0.336 N 
ATOM      9  HN  UNL     1     -42.852 -54.001  16.689  1.00  0.00     0.168 HD
HETATM   10  C   UNL     1     -42.426 -53.259  14.775  1.00  0.00     0.185 A 
HETATM   11  N   UNL     1     -43.173 -52.996  13.655  1.00  0.00    -0.335 N 
HETATM   12  C   UNL     1     -44.484 -53.293  13.943  1.00  0.00     0.118 A 
ENDROOT
BRANCH  11  13
HETATM   13  C   UNL     1     -42.595 -52.569  12.397  1.00  0.00     0.164 C 
BRANCH  13  14
HETATM   14  C   UNL     1     -41.064 -52.673  12.342  1.00  0.00     0.160 C 
BRANCH  14  15
HETATM   15  O   UNL     1     -40.639 -53.389  11.177  1.00  0.00    -0.392 OA
HETATM   16  H   UNL     1     -40.122 -54.168  11.446  1.00  0.00     0.210 HD
ENDBRANCH  14  15
BRANCH  14  17
HETATM   17  C   UNL     1     -40.442 -51.268  12.324  1.00  0.00     0.201 C 
BRANCH  17  18
HETATM   18  O   UNL     1     -39.030 -51.382  12.430  1.00  0.00    -0.384 OA
BRANCH  18  19
HETATM   19  C   UNL     1     -38.349 -50.245  11.905  1.00  0.00     0.213 C 
BRANCH  19  20
HETATM   20  C   UNL     1     -38.389 -49.213  12.984  1.00  0.00     0.006 A 
HETATM   21  C   UNL     1     -38.990 -47.969  12.951  1.00  0.00     0.017 A 
HETATM   22  C   UNL     1     -38.826 -47.253  14.170  1.00  0.00     0.008 A 
HETATM   23  C   UNL     1     -38.103 -47.973  15.096  1.00  0.00     0.050 A 
HETATM   24  S   UNL     1     -37.627 -49.499  14.491  1.00  0.00    -0.104 SA
ENDBRANCH  19  20
ENDBRANCH  18  19
ENDBRANCH  17  18
ENDBRANCH  14  17
ENDBRANCH  13  14
ENDBRANCH  11  13
BRANCH   1  25
HETATM   25  N   UNL     1     -45.841 -52.859  11.943  1.00  0.00    -0.281 NA
HETATM   26  C   UNL     1     -46.878 -51.876  11.664  1.00  0.00     0.114 C 
HETATM   27  H   UNL     1     -45.896 -53.659  11.326  1.00  0.00     0.128 HD
ENDBRANCH   1  25
TORSDOF 8
ENDMDL
MODEL 9
REMARK VINA RESULT:      -5.6      2.370      3.529
REMARK  8 active torsions:
REMARK  status: ('A' for Active; 'I' for Inactive)
REMARK    1  A    between atoms: N_2  and  C_3 
REMARK    2  A    between atoms: N_13  and  C_14 
REMARK    3  A    between atoms: C_14  and  C_15 
REMARK    4  A    between atoms: C_15  and  O_16 
REMARK    5  A    between atoms: C_15  and  C_17 
REMARK    6  A    between atoms: C_17  and  O_18 
REMARK    7  A    between atoms: O_18  and  C_19 
REMARK    8  A    between atoms: C_19  and  C_20 
ROOT
HETATM    1  C   UNL     1     -39.551 -50.084  13.437  1.00  0.00     0.112 A 
HETATM    2  N   UNL     1     -39.850 -48.964  12.743  1.00  0.00    -0.341 N 
ATOM      3  HN  UNL     1     -39.529 -48.054  13.074  1.00  0.00     0.167 HD
HETATM    4  C   UNL     1     -40.575 -49.057  11.614  1.00  0.00     0.183 A 
HETATM    5  N   UNL     1     -41.087 -50.156  11.057  1.00  0.00    -0.337 N 
ATOM      6  HN  UNL     1     -41.620 -50.155  10.187  1.00  0.00     0.168 HD
HETATM    7  C   UNL     1     -40.823 -51.264  11.769  1.00  0.00     0.137 A 
HETATM    8  N   UNL     1     -41.246 -52.516  11.419  1.00  0.00    -0.336 N 
ATOM      9  HN  UNL     1     -41.796 -52.782  10.602  1.00  0.00     0.168 HD
HETATM   10  C   UNL     1     -40.788 -53.298  12.365  1.00  0.00     0.185 A 
HETATM   11  N   UNL     1     -40.065 -52.602  13.302  1.00  0.00    -0.335 N 
HETATM   12  C   UNL     1     -40.069 -51.277  12.937  1.00  0.00     0.118 A 
ENDROOT
BRANCH  11  13
HETATM   13  C   UNL     1     -39.373 -53.238  14.404  1.00  0.00     0.164 C 
BRANCH  13  14
HETATM   14  C   UNL     1     -39.685 -54.734  14.562  1.00  0.00     0.160 C 
BRANCH  14  15
HETATM   15  O   UNL     1     -38.480 -55.506  14.627  1.00  0.00    -0.392 OA
HETATM   16  H   UNL     1     -38.180 -55.714  13.726  1.00  0.00     0.210 HD
ENDBRANCH  14  15
BRANCH  14  17
HETATM   17  C   UNL     1     -40.502 -54.967  15.841  1.00  0.00     0.201 C 
BRANCH  17  18
HETATM   18  O   UNL     1     -41.873 -55.117  15.498  1.00  0.00    -0.384 OA
BRANCH  18  19
HETATM   19  C   UNL     1     -42.675 -54.036  15.968  1.00  0.00     0.213 C 
BRANCH  19  20
HETATM   20  C   UNL     1     -43.432 -53.546  14.777  1.00  0.00     0.006 A 
HETATM   21  C   UNL     1     -44.043 -54.294  13.788  1.00  0.00     0.017 A 
HETATM   22  C   UNL     1     -44.677 -53.482  12.806  1.00  0.00     0.008 A 
HETATM   23  C   UNL     1     -44.529 -52.139  13.075  1.00  0.00     0.050 A 
HETATM   24  S   UNL     1     -43.630 -51.867  14.503  1.00  0.00    -0.104 SA
ENDBRANCH  19  20
ENDBRANCH  18  19
ENDBRANCH  17  18
ENDBRANCH  14  17
ENDBRANCH  13  14
ENDBRANCH  11  13
BRANCH   1  25
HETATM   25  N   UNL     1     -38.755 -50.011  14.581  1.00  0.00    -0.281 NA
HETATM   26  C   UNL     1     -37.324 -50.176  14.375  1.00  0.00     0.114 C 
HETATM   27  H   UNL     1     -39.106 -50.606  15.320  1.00  0.00     0.128 HD
ENDBRANCH   1  25
TORSDOF 8
ENDMDL
