MODEL 1
REMARK VINA RESULT:      -6.7      0.000      0.000
REMARK  8 active torsions:
REMARK  status: ('A' for Active; 'I' for Inactive)
REMARK    1  A    between atoms: N_2  and  C_3 
REMARK    2  A    between atoms: N_13  and  C_14 
REMARK    3  A    between atoms: C_14  and  C_15 
REMARK    4  A    between atoms: C_15  and  O_16 
REMARK    5  A    between atoms: C_15  and  C_17 
REMARK    6  A    between atoms: C_17  and  N_18 
REMARK    7  A    between atoms: N_18  and  C_20 
REMARK    8  A    between atoms: C_20  and  C_21 
ROOT
HETATM    1  C   UNL     1     -39.693 -50.043  11.363  1.00  0.00     0.112 A 
HETATM    2  N   UNL     1     -38.488 -49.756  10.814  1.00  0.00    -0.341 N 
ATOM      3  HN  UNL     1     -38.435 -49.195   9.963  1.00  0.00     0.167 HD
HETATM    4  C   UNL     1     -37.361 -50.210  11.390  1.00  0.00     0.183 A 
HETATM    5  N   UNL     1     -37.253 -50.951  12.486  1.00  0.00    -0.337 N 
ATOM      6  HN  UNL     1     -36.362 -51.271  12.866  1.00  0.00     0.168 HD
HETATM    7  C   UNL     1     -38.446 -51.232  13.039  1.00  0.00     0.137 A 
HETATM    8  N   UNL     1     -38.585 -52.004  14.155  1.00  0.00    -0.336 N 
ATOM      9  HN  UNL     1     -37.847 -52.445  14.704  1.00  0.00     0.168 HD
HETATM   10  C   UNL     1     -39.879 -52.053  14.365  1.00  0.00     0.185 A 
HETATM   11  N   UNL     1     -40.575 -51.328  13.436  1.00  0.00    -0.335 N 
HETATM   12  C   UNL     1     -39.670 -50.796  12.539  1.00  0.00     0.118 A 
ENDROOT
BRANCH  11  13
HETATM   13  C   UNL     1     -42.008 -51.124  13.425  1.00  0.00     0.163 C 
BRANCH  13  14
HETATM   14  C   UNL     1     -42.853 -51.972  12.455  1.00  0.00     0.164 C 
BRANCH  14  15
HETATM   15  O   UNL     1     -42.030 -52.551  11.433  1.00  0.00    -0.392 OA
HETATM   16  H   UNL     1     -41.287 -51.949  11.248  1.00  0.00     0.210 HD
ENDBRANCH  14  15
BRANCH  14  17
HETATM   17  C   UNL     1     -43.561 -53.116  13.219  1.00  0.00     0.305 C 
BRANCH  17  18
HETATM   18  N   UNL     1     -45.024 -53.164  13.033  1.00  0.00     0.090 N 
HETATM   19  C   UNL     1     -45.640 -54.074  14.007  1.00  0.00     0.310 C 
BRANCH  18  20
HETATM   20  C   UNL     1     -45.629 -51.824  13.159  1.00  0.00     0.310 C 
BRANCH  20  21
HETATM   21  C   UNL     1     -45.936 -51.420  14.589  1.00  0.00    -0.030 A 
HETATM   22  C   UNL     1     -47.206 -51.646  15.143  1.00  0.00     0.009 A 
HETATM   23  C   UNL     1     -47.477 -51.283  16.465  1.00  0.00     0.001 A 
HETATM   24  C   UNL     1     -46.481 -50.702  17.247  1.00  0.00     0.000 A 
HETATM   25  C   UNL     1     -45.215 -50.481  16.709  1.00  0.00     0.001 A 
HETATM   26  C   UNL     1     -44.943 -50.837  15.387  1.00  0.00     0.009 A 
ENDBRANCH  20  21
ENDBRANCH  18  20
ENDBRANCH  17  18
ENDBRANCH  14  17
ENDBRANCH  13  14
ENDBRANCH  11  13
BRANCH   1  27
HETATM   27  N   UNL     1     -40.748 -49.609  10.577  1.00  0.00    -0.281 NA
HETATM   28  C   UNL     1     -41.488 -48.399  10.824  1.00  0.00     0.114 C 
HETATM   29  H   UNL     1     -40.379 -49.645   9.626  1.00  0.00     0.128 HD
ENDBRANCH   1  27
TORSDOF 8
ENDMDL
MODEL 2
REMARK VINA RESULT:      -6.7      1.927      3.028
REMARK  8 active torsions:
REMARK  status: ('A' for Active; 'I' for Inactive)
REMARK    1  A    between atoms: N_2  and  C_3 
REMARK    2  A    between atoms: N_13  and  C_14 
REMARK    3  A    between atoms: C_14  and  C_15 
REMARK    4  A    between atoms: C_15  and  O_16 
REMARK    5  A    between atoms: C_15  and  C_17 
REMARK    6  A    between atoms: C_17  and  N_18 
REMARK    7  A    between atoms: N_18  and  C_20 
REMARK    8  A    between atoms: C_20  and  C_21 
ROOT
HETATM    1  C   UNL     1     -39.335 -49.286  11.760  1.00  0.00     0.112 A 
HETATM    2  N   UNL     1     -39.368 -47.989  11.369  1.00  0.00    -0.341 N 
ATOM      3  HN  UNL     1     -38.972 -47.717  10.469  1.00  0.00     0.167 HD
HETATM    4  C   UNL     1     -39.924 -47.061  12.167  1.00  0.00     0.183 A 
HETATM    5  N   UNL     1     -40.474 -47.242  13.361  1.00  0.00    -0.337 N 
ATOM      6  HN  UNL     1     -40.872 -46.488  13.921  1.00  0.00     0.168 HD
HETATM    7  C   UNL     1     -40.451 -48.528  13.750  1.00  0.00     0.137 A 
HETATM    8  N   UNL     1     -40.933 -48.950  14.955  1.00  0.00    -0.336 N 
ATOM      9  HN  UNL     1     -41.364 -48.385  15.686  1.00  0.00     0.168 HD
HETATM   10  C   UNL     1     -40.719 -50.245  14.962  1.00  0.00     0.185 A 
HETATM   11  N   UNL     1     -40.132 -50.673  13.803  1.00  0.00    -0.335 N 
HETATM   12  C   UNL     1     -39.922 -49.572  12.996  1.00  0.00     0.118 A 
ENDROOT
BRANCH  11  13
HETATM   13  C   UNL     1     -39.826 -52.047  13.468  1.00  0.00     0.163 C 
BRANCH  13  14
HETATM   14  C   UNL     1     -40.938 -52.903  12.833  1.00  0.00     0.164 C 
BRANCH  14  15
HETATM   15  O   UNL     1     -40.545 -53.371  11.535  1.00  0.00    -0.392 OA
HETATM   16  H   UNL     1     -39.601 -53.174  11.402  1.00  0.00     0.210 HD
ENDBRANCH  14  15
BRANCH  14  17
HETATM   17  C   UNL     1     -41.246 -54.131  13.723  1.00  0.00     0.305 C 
BRANCH  17  18
HETATM   18  N   UNL     1     -42.647 -54.226  14.174  1.00  0.00     0.090 N 
HETATM   19  C   UNL     1     -42.796 -55.284  15.182  1.00  0.00     0.310 C 
BRANCH  18  20
HETATM   20  C   UNL     1     -43.125 -52.945  14.729  1.00  0.00     0.310 C 
BRANCH  20  21
HETATM   21  C   UNL     1     -44.451 -52.483  14.154  1.00  0.00    -0.030 A 
HETATM   22  C   UNL     1     -44.809 -52.797  12.833  1.00  0.00     0.009 A 
HETATM   23  C   UNL     1     -46.038 -52.379  12.314  1.00  0.00     0.001 A 
HETATM   24  C   UNL     1     -46.922 -51.655  13.112  1.00  0.00     0.000 A 
HETATM   25  C   UNL     1     -46.579 -51.345  14.426  1.00  0.00     0.001 A 
HETATM   26  C   UNL     1     -45.350 -51.756  14.945  1.00  0.00     0.009 A 
ENDBRANCH  20  21
ENDBRANCH  18  20
ENDBRANCH  17  18
ENDBRANCH  14  17
ENDBRANCH  13  14
ENDBRANCH  11  13
BRANCH   1  27
HETATM   27  N   UNL     1     -38.619 -50.084  10.883  1.00  0.00    -0.281 NA
HETATM   28  C   UNL     1     -37.181 -50.125  10.827  1.00  0.00     0.114 C 
HETATM   29  H   UNL     1     -39.025 -51.012  11.007  1.00  0.00     0.128 HD
ENDBRANCH   1  27
TORSDOF 8
ENDMDL
MODEL 3
REMARK VINA RESULT:      -6.6      2.461      3.769
REMARK  8 active torsions:
REMARK  status: ('A' for Active; 'I' for Inactive)
REMARK    1  A    between atoms: N_2  and  C_3 
REMARK    2  A    between atoms: N_13  and  C_14 
REMARK    3  A    between atoms: C_14  and  C_15 
REMARK    4  A    between atoms: C_15  and  O_16 
REMARK    5  A    between atoms: C_15  and  C_17 
REMARK    6  A    between atoms: C_17  and  N_18 
REMARK    7  A    between atoms: N_18  and  C_20 
REMARK    8  A    between atoms: C_20  and  C_21 
ROOT
HETATM    1  C   UNL     1     -41.640 -47.228  10.392  1.00  0.00     0.112 A 
HETATM    2  N   UNL     1     -41.234 -46.047   9.866  1.00  0.00    -0.341 N 
ATOM      3  HN  UNL     1     -41.542 -45.771   8.934  1.00  0.00     0.167 HD
HETATM    4  C   UNL     1     -40.424 -45.240  10.574  1.00  0.00     0.183 A 
HETATM    5  N   UNL     1     -39.929 -45.449  11.787  1.00  0.00    -0.337 N 
ATOM      6  HN  UNL     1     -39.309 -44.796  12.265  1.00  0.00     0.168 HD
HETATM    7  C   UNL     1     -40.335 -46.616  12.316  1.00  0.00     0.137 A 
HETATM    8  N   UNL     1     -39.931 -47.058  13.542  1.00  0.00    -0.336 N 
ATOM      9  HN  UNL     1     -39.307 -46.590  14.199  1.00  0.00     0.168 HD
HETATM   10  C   UNL     1     -40.525 -48.220  13.688  1.00  0.00     0.185 A 
HETATM   11  N   UNL     1     -41.307 -48.533  12.610  1.00  0.00    -0.335 N 
HETATM   12  C   UNL     1     -41.189 -47.516  11.683  1.00  0.00     0.118 A 
ENDROOT
BRANCH  11  13
HETATM   13  C   UNL     1     -42.144 -49.707  12.485  1.00  0.00     0.163 C 
BRANCH  13  14
HETATM   14  C   UNL     1     -41.526 -50.975  11.866  1.00  0.00     0.164 C 
BRANCH  14  15
HETATM   15  O   UNL     1     -40.422 -50.640  11.014  1.00  0.00    -0.392 OA
HETATM   16  H   UNL     1     -40.740 -50.062  10.298  1.00  0.00     0.210 HD
ENDBRANCH  14  15
BRANCH  14  17
HETATM   17  C   UNL     1     -41.016 -51.922  12.978  1.00  0.00     0.305 C 
BRANCH  17  18
HETATM   18  N   UNL     1     -41.770 -53.183  13.102  1.00  0.00     0.090 N 
HETATM   19  C   UNL     1     -40.854 -54.326  13.219  1.00  0.00     0.310 C 
BRANCH  18  20
HETATM   20  C   UNL     1     -42.679 -53.159  14.265  1.00  0.00     0.310 C 
BRANCH  20  21
HETATM   21  C   UNL     1     -44.060 -52.611  13.952  1.00  0.00    -0.030 A 
HETATM   22  C   UNL     1     -44.703 -52.930  12.746  1.00  0.00     0.009 A 
HETATM   23  C   UNL     1     -45.979 -52.433  12.471  1.00  0.00     0.001 A 
HETATM   24  C   UNL     1     -46.627 -51.622  13.401  1.00  0.00     0.000 A 
HETATM   25  C   UNL     1     -46.001 -51.305  14.604  1.00  0.00     0.001 A 
HETATM   26  C   UNL     1     -44.723 -51.796  14.879  1.00  0.00     0.009 A 
ENDBRANCH  20  21
ENDBRANCH  18  20
ENDBRANCH  17  18
ENDBRANCH  14  17
ENDBRANCH  13  14
ENDBRANCH  11  13
BRANCH   1  27
HETATM   27  N   UNL     1     -42.361 -47.989   9.487  1.00  0.00    -0.281 NA
HETATM   28  C   UNL     1     -43.483 -47.491   8.734  1.00  0.00     0.114 C 
HETATM   29  H   UNL     1     -41.647 -48.399   8.884  1.00  0.00     0.128 HD
ENDBRANCH   1  27
TORSDOF 8
ENDMDL
MODEL 4
REMARK VINA RESULT:      -6.4      2.711      4.140
REMARK  8 active torsions:
REMARK  status: ('A' for Active; 'I' for Inactive)
REMARK    1  A    between atoms: N_2  and  C_3 
REMARK    2  A    between atoms: N_13  and  C_14 
REMARK    3  A    between atoms: C_14  and  C_15 
REMARK    4  A    between atoms: C_15  and  O_16 
REMARK    5  A    between atoms: C_15  and  C_17 
REMARK    6  A    between atoms: C_17  and  N_18 
REMARK    7  A    between atoms: N_18  and  C_20 
REMARK    8  A    between atoms: C_20  and  C_21 
ROOT
HETATM    1  C   UNL     1     -39.263 -50.262  13.325  1.00  0.00     0.112 A 
HETATM    2  N   UNL     1     -39.473 -49.176  12.542  1.00  0.00    -0.341 N 
ATOM      3  HN  UNL     1     -39.051 -48.280  12.787  1.00  0.00     0.167 HD
HETATM    4  C   UNL     1     -40.237 -49.280  11.441  1.00  0.00     0.183 A 
HETATM    5  N   UNL     1     -40.860 -50.360  10.985  1.00  0.00    -0.337 N 
ATOM      6  HN  UNL     1     -41.436 -50.368  10.143  1.00  0.00     0.168 HD
HETATM    7  C   UNL     1     -40.649 -51.441  11.755  1.00  0.00     0.137 A 
HETATM    8  N   UNL     1     -41.212 -52.658  11.500  1.00  0.00    -0.336 N 
ATOM      9  HN  UNL     1     -41.830 -52.910  10.729  1.00  0.00     0.168 HD
HETATM   10  C   UNL     1     -40.780 -53.432  12.468  1.00  0.00     0.185 A 
HETATM   11  N   UNL     1     -39.949 -52.763  13.326  1.00  0.00    -0.335 N 
HETATM   12  C   UNL     1     -39.859 -51.452  12.902  1.00  0.00     0.118 A 
ENDROOT
BRANCH  11  13
HETATM   13  C   UNL     1     -39.254 -53.345  14.455  1.00  0.00     0.163 C 
BRANCH  13  14
HETATM   14  C   UNL     1     -39.594 -54.795  14.845  1.00  0.00     0.164 C 
BRANCH  14  15
HETATM   15  O   UNL     1     -38.402 -55.585  14.963  1.00  0.00    -0.392 OA
HETATM   16  H   UNL     1     -38.556 -56.292  15.614  1.00  0.00     0.210 HD
ENDBRANCH  14  15
BRANCH  14  17
HETATM   17  C   UNL     1     -40.337 -54.827  16.202  1.00  0.00     0.305 C 
BRANCH  17  18
HETATM   18  N   UNL     1     -41.688 -55.416  16.147  1.00  0.00     0.090 N 
HETATM   19  C   UNL     1     -41.813 -56.517  17.111  1.00  0.00     0.310 C 
BRANCH  18  20
HETATM   20  C   UNL     1     -42.731 -54.406  16.412  1.00  0.00     0.310 C 
BRANCH  20  21
HETATM   21  C   UNL     1     -43.376 -53.846  15.158  1.00  0.00    -0.030 A 
HETATM   22  C   UNL     1     -43.363 -52.466  14.899  1.00  0.00     0.009 A 
HETATM   23  C   UNL     1     -43.949 -51.959  13.736  1.00  0.00     0.001 A 
HETATM   24  C   UNL     1     -44.541 -52.824  12.819  1.00  0.00     0.000 A 
HETATM   25  C   UNL     1     -44.552 -54.196  13.062  1.00  0.00     0.001 A 
HETATM   26  C   UNL     1     -43.974 -54.705  14.227  1.00  0.00     0.009 A 
ENDBRANCH  20  21
ENDBRANCH  18  20
ENDBRANCH  17  18
ENDBRANCH  14  17
ENDBRANCH  13  14
ENDBRANCH  11  13
BRANCH   1  27
HETATM   27  N   UNL     1     -38.562 -49.952  14.479  1.00  0.00    -0.281 NA
HETATM   28  C   UNL     1     -37.530 -48.950  14.548  1.00  0.00     0.114 C 
HETATM   29  H   UNL     1     -39.290 -49.799  15.177  1.00  0.00     0.128 HD
ENDBRANCH   1  27
TORSDOF 8
ENDMDL
MODEL 5
REMARK VINA RESULT:      -6.4      2.987      4.988
REMARK  8 active torsions:
REMARK  status: ('A' for Active; 'I' for Inactive)
REMARK    1  A    between atoms: N_2  and  C_3 
REMARK    2  A    between atoms: N_13  and  C_14 
REMARK    3  A    between atoms: C_14  and  C_15 
REMARK    4  A    between atoms: C_15  and  O_16 
REMARK    5  A    between atoms: C_15  and  C_17 
REMARK    6  A    between atoms: C_17  and  N_18 
REMARK    7  A    between atoms: N_18  and  C_20 
REMARK    8  A    between atoms: C_20  and  C_21 
ROOT
HETATM    1  C   UNL     1     -41.722 -46.365  11.102  1.00  0.00     0.112 A 
HETATM    2  N   UNL     1     -42.611 -45.347  11.210  1.00  0.00    -0.341 N 
ATOM      3  HN  UNL     1     -43.333 -45.222  10.500  1.00  0.00     0.167 HD
HETATM    4  C   UNL     1     -42.540 -44.502  12.253  1.00  0.00     0.183 A 
HETATM    5  N   UNL     1     -41.667 -44.518  13.252  1.00  0.00    -0.337 N 
ATOM      6  HN  UNL     1     -41.664 -43.837  14.012  1.00  0.00     0.168 HD
HETATM    7  C   UNL     1     -40.788 -45.530  13.153  1.00  0.00     0.137 A 
HETATM    8  N   UNL     1     -39.780 -45.730  14.050  1.00  0.00    -0.336 N 
ATOM      9  HN  UNL     1     -39.566 -45.178  14.881  1.00  0.00     0.168 HD
HETATM   10  C   UNL     1     -39.147 -46.790  13.606  1.00  0.00     0.185 A 
HETATM   11  N   UNL     1     -39.720 -47.288  12.468  1.00  0.00    -0.335 N 
HETATM   12  C   UNL     1     -40.783 -46.474  12.130  1.00  0.00     0.118 A 
ENDROOT
BRANCH  11  13
HETATM   13  C   UNL     1     -39.305 -48.484  11.767  1.00  0.00     0.163 C 
BRANCH  13  14
HETATM   14  C   UNL     1     -40.346 -49.600  11.559  1.00  0.00     0.164 C 
BRANCH  14  15
HETATM   15  O   UNL     1     -40.486 -49.915  10.167  1.00  0.00    -0.392 OA
HETATM   16  H   UNL     1     -39.634 -50.245   9.831  1.00  0.00     0.210 HD
ENDBRANCH  14  15
BRANCH  14  17
HETATM   17  C   UNL     1     -39.915 -50.883  12.309  1.00  0.00     0.305 C 
BRANCH  17  18
HETATM   18  N   UNL     1     -41.000 -51.554  13.049  1.00  0.00     0.090 N 
HETATM   19  C   UNL     1     -41.913 -50.566  13.638  1.00  0.00     0.310 C 
BRANCH  18  20
HETATM   20  C   UNL     1     -41.761 -52.472  12.180  1.00  0.00     0.310 C 
BRANCH  20  21
HETATM   21  C   UNL     1     -42.745 -53.352  12.930  1.00  0.00    -0.030 A 
HETATM   22  C   UNL     1     -44.091 -53.423  12.536  1.00  0.00     0.009 A 
HETATM   23  C   UNL     1     -44.988 -54.244  13.223  1.00  0.00     0.001 A 
HETATM   24  C   UNL     1     -44.548 -55.008  14.302  1.00  0.00     0.000 A 
HETATM   25  C   UNL     1     -43.213 -54.951  14.697  1.00  0.00     0.001 A 
HETATM   26  C   UNL     1     -42.316 -54.126  14.016  1.00  0.00     0.009 A 
ENDBRANCH  20  21
ENDBRANCH  18  20
ENDBRANCH  17  18
ENDBRANCH  14  17
ENDBRANCH  13  14
ENDBRANCH  11  13
BRANCH   1  27
HETATM   27  N   UNL     1     -41.856 -47.058   9.910  1.00  0.00    -0.281 NA
HETATM   28  C   UNL     1     -43.121 -47.459   9.352  1.00  0.00     0.114 C 
HETATM   29  H   UNL     1     -41.299 -46.519   9.247  1.00  0.00     0.128 HD
ENDBRANCH   1  27
TORSDOF 8
ENDMDL
MODEL 6
REMARK VINA RESULT:      -6.2      2.972      5.154
REMARK  8 active torsions:
REMARK  status: ('A' for Active; 'I' for Inactive)
REMARK    1  A    between atoms: N_2  and  C_3 
REMARK    2  A    between atoms: N_13  and  C_14 
REMARK    3  A    between atoms: C_14  and  C_15 
REMARK    4  A    between atoms: C_15  and  O_16 
REMARK    5  A    between atoms: C_15  and  C_17 
REMARK    6  A    between atoms: C_17  and  N_18 
REMARK    7  A    between atoms: N_18  and  C_20 
REMARK    8  A    between atoms: C_20  and  C_21 
ROOT
HETATM    1  C   UNL     1     -41.757 -48.060  10.359  1.00  0.00     0.112 A 
HETATM    2  N   UNL     1     -42.597 -48.111   9.297  1.00  0.00    -0.341 N 
ATOM      3  HN  UNL     1     -42.584 -48.918   8.674  1.00  0.00     0.167 HD
HETATM    4  C   UNL     1     -43.449 -47.097   9.066  1.00  0.00     0.183 A 
HETATM    5  N   UNL     1     -43.590 -45.980   9.768  1.00  0.00    -0.337 N 
ATOM      6  HN  UNL     1     -44.253 -45.242   9.530  1.00  0.00     0.168 HD
HETATM    7  C   UNL     1     -42.764 -45.928  10.827  1.00  0.00     0.137 A 
HETATM    8  N   UNL     1     -42.709 -44.862  11.677  1.00  0.00    -0.336 N 
ATOM      9  HN  UNL     1     -43.262 -44.006  11.639  1.00  0.00     0.168 HD
HETATM   10  C   UNL     1     -41.788 -45.185  12.554  1.00  0.00     0.185 A 
HETATM   11  N   UNL     1     -41.260 -46.423  12.309  1.00  0.00    -0.335 N 
HETATM   12  C   UNL     1     -41.859 -46.929  11.173  1.00  0.00     0.118 A 
ENDROOT
BRANCH  11  13
HETATM   13  C   UNL     1     -40.274 -47.098  13.127  1.00  0.00     0.163 C 
BRANCH  13  14
HETATM   14  C   UNL     1     -40.715 -47.624  14.506  1.00  0.00     0.164 C 
BRANCH  14  15
HETATM   15  O   UNL     1     -40.657 -46.584  15.491  1.00  0.00    -0.392 OA
HETATM   16  H   UNL     1     -40.035 -46.849  16.193  1.00  0.00     0.210 HD
ENDBRANCH  14  15
BRANCH  14  17
HETATM   17  C   UNL     1     -42.167 -48.155  14.439  1.00  0.00     0.305 C 
BRANCH  17  18
HETATM   18  N   UNL     1     -42.299 -49.609  14.649  1.00  0.00     0.090 N 
HETATM   19  C   UNL     1     -41.030 -50.181  15.116  1.00  0.00     0.310 C 
BRANCH  18  20
HETATM   20  C   UNL     1     -43.368 -49.922  15.617  1.00  0.00     0.310 C 
BRANCH  20  21
HETATM   21  C   UNL     1     -44.576 -50.600  14.998  1.00  0.00    -0.030 A 
HETATM   22  C   UNL     1     -44.613 -50.890  13.625  1.00  0.00     0.009 A 
HETATM   23  C   UNL     1     -45.724 -51.525  13.064  1.00  0.00     0.001 A 
HETATM   24  C   UNL     1     -46.802 -51.885  13.871  1.00  0.00     0.000 A 
HETATM   25  C   UNL     1     -46.772 -51.610  15.236  1.00  0.00     0.001 A 
HETATM   26  C   UNL     1     -45.666 -50.969  15.798  1.00  0.00     0.009 A 
ENDBRANCH  20  21
ENDBRANCH  18  20
ENDBRANCH  17  18
ENDBRANCH  14  17
ENDBRANCH  13  14
ENDBRANCH  11  13
BRANCH   1  27
HETATM   27  N   UNL     1     -40.865 -49.120  10.378  1.00  0.00    -0.281 NA
HETATM   28  C   UNL     1     -40.881 -50.166  11.367  1.00  0.00     0.114 C 
HETATM   29  H   UNL     1     -40.903 -49.491   9.428  1.00  0.00     0.128 HD
ENDBRANCH   1  27
TORSDOF 8
ENDMDL
MODEL 7
REMARK VINA RESULT:      -6.2      2.293      4.042
REMARK  8 active torsions:
REMARK  status: ('A' for Active; 'I' for Inactive)
REMARK    1  A    between atoms: N_2  and  C_3 
REMARK    2  A    between atoms: N_13  and  C_14 
REMARK    3  A    between atoms: C_14  and  C_15 
REMARK    4  A    between atoms: C_15  and  O_16 
REMARK    5  A    between atoms: C_15  and  C_17 
REMARK    6  A    between atoms: C_17  and  N_18 
REMARK    7  A    between atoms: N_18  and  C_20 
REMARK    8  A    between atoms: C_20  and  C_21 
ROOT
HETATM    1  C   UNL     1     -39.423 -47.353  13.018  1.00  0.00     0.112 A 
HETATM    2  N   UNL     1     -39.310 -46.033  13.301  1.00  0.00    -0.341 N 
ATOM      3  HN  UNL     1     -38.713 -45.724  14.069  1.00  0.00     0.167 HD
HETATM    4  C   UNL     1     -39.986 -45.129  12.570  1.00  0.00     0.183 A 
HETATM    5  N   UNL     1     -40.804 -45.358  11.551  1.00  0.00    -0.337 N 
ATOM      6  HN  UNL     1     -41.296 -44.623  11.043  1.00  0.00     0.168 HD
HETATM    7  C   UNL     1     -40.913 -46.667  11.261  1.00  0.00     0.137 A 
HETATM    8  N   UNL     1     -41.721 -47.145  10.271  1.00  0.00    -0.336 N 
ATOM      9  HN  UNL     1     -42.317 -46.609   9.639  1.00  0.00     0.168 HD
HETATM   10  C   UNL     1     -41.562 -48.447  10.313  1.00  0.00     0.185 A 
HETATM   11  N   UNL     1     -40.670 -48.822  11.281  1.00  0.00    -0.335 N 
HETATM   12  C   UNL     1     -40.243 -47.684  11.937  1.00  0.00     0.118 A 
ENDROOT
BRANCH  11  13
HETATM   13  C   UNL     1     -40.224 -50.174  11.541  1.00  0.00     0.163 C 
BRANCH  13  14
HETATM   14  C   UNL     1     -41.258 -51.190  12.061  1.00  0.00     0.164 C 
BRANCH  14  15
HETATM   15  O   UNL     1     -41.399 -52.288  11.149  1.00  0.00    -0.392 OA
HETATM   16  H   UNL     1     -40.981 -52.050  10.303  1.00  0.00     0.210 HD
ENDBRANCH  14  15
BRANCH  14  17
HETATM   17  C   UNL     1     -40.816 -51.750  13.435  1.00  0.00     0.305 C 
BRANCH  17  18
HETATM   18  N   UNL     1     -41.898 -51.850  14.432  1.00  0.00     0.090 N 
HETATM   19  C   UNL     1     -41.347 -52.089  15.772  1.00  0.00     0.310 C 
BRANCH  18  20
HETATM   20  C   UNL     1     -42.731 -50.632  14.452  1.00  0.00     0.310 C 
BRANCH  20  21
HETATM   21  C   UNL     1     -44.222 -50.909  14.525  1.00  0.00    -0.030 A 
HETATM   22  C   UNL     1     -44.950 -51.233  13.370  1.00  0.00     0.009 A 
HETATM   23  C   UNL     1     -46.320 -51.499  13.447  1.00  0.00     0.001 A 
HETATM   24  C   UNL     1     -46.970 -51.454  14.678  1.00  0.00     0.000 A 
HETATM   25  C   UNL     1     -46.255 -51.141  15.833  1.00  0.00     0.001 A 
HETATM   26  C   UNL     1     -44.888 -50.869  15.757  1.00  0.00     0.009 A 
ENDBRANCH  20  21
ENDBRANCH  18  20
ENDBRANCH  17  18
ENDBRANCH  14  17
ENDBRANCH  13  14
ENDBRANCH  11  13
BRANCH   1  27
HETATM   27  N   UNL     1     -38.765 -48.148  13.941  1.00  0.00    -0.281 NA
HETATM   28  C   UNL     1     -37.414 -47.919  14.381  1.00  0.00     0.114 C 
HETATM   29  H   UNL     1     -39.417 -48.210  14.724  1.00  0.00     0.128 HD
ENDBRANCH   1  27
TORSDOF 8
ENDMDL
MODEL 8
REMARK VINA RESULT:      -6.1      2.333      3.677
REMARK  8 active torsions:
REMARK  status: ('A' for Active; 'I' for Inactive)
REMARK    1  A    between atoms: N_2  and  C_3 
REMARK    2  A    between atoms: N_13  and  C_14 
REMARK    3  A    between atoms: C_14  and  C_15 
REMARK    4  A    between atoms: C_15  and  O_16 
REMARK    5  A    between atoms: C_15  and  C_17 
REMARK    6  A    between atoms: C_17  and  N_18 
REMARK    7  A    between atoms: N_18  and  C_20 
REMARK    8  A    between atoms: C_20  and  C_21 
ROOT
HETATM    1  C   UNL     1     -39.302 -48.333  13.962  1.00  0.00     0.112 A 
HETATM    2  N   UNL     1     -39.186 -46.987  14.060  1.00  0.00    -0.341 N 
ATOM      3  HN  UNL     1     -38.799 -46.567  14.906  1.00  0.00     0.167 HD
HETATM    4  C   UNL     1     -39.583 -46.203  13.042  1.00  0.00     0.183 A 
HETATM    5  N   UNL     1     -40.110 -46.581  11.885  1.00  0.00    -0.337 N 
ATOM      6  HN  UNL     1     -40.400 -45.930  11.155  1.00  0.00     0.168 HD
HETATM    7  C   UNL     1     -40.220 -47.917  11.780  1.00  0.00     0.137 A 
HETATM    8  N   UNL     1     -40.762 -48.536  10.691  1.00  0.00    -0.336 N 
ATOM      9  HN  UNL     1     -41.130 -48.101   9.846  1.00  0.00     0.168 HD
HETATM   10  C   UNL     1     -40.701 -49.816  10.974  1.00  0.00     0.185 A 
HETATM   11  N   UNL     1     -40.128 -50.044  12.195  1.00  0.00    -0.335 N 
HETATM   12  C   UNL     1     -39.822 -48.821  12.761  1.00  0.00     0.118 A 
ENDROOT
BRANCH  11  13
HETATM   13  C   UNL     1     -39.854 -51.343  12.772  1.00  0.00     0.163 C 
BRANCH  13  14
HETATM   14  C   UNL     1     -40.869 -52.474  12.521  1.00  0.00     0.164 C 
BRANCH  14  15
HETATM   15  O   UNL     1     -40.501 -53.245  11.369  1.00  0.00    -0.392 OA
HETATM   16  H   UNL     1     -40.857 -54.146  11.465  1.00  0.00     0.210 HD
ENDBRANCH  14  15
BRANCH  14  17
HETATM   17  C   UNL     1     -40.929 -53.422  13.744  1.00  0.00     0.305 C 
BRANCH  17  18
HETATM   18  N   UNL     1     -42.294 -53.744  14.202  1.00  0.00     0.090 N 
HETATM   19  C   UNL     1     -42.268 -54.850  15.169  1.00  0.00     0.310 C 
BRANCH  18  20
HETATM   20  C   UNL     1     -42.952 -52.572  14.811  1.00  0.00     0.310 C 
BRANCH  20  21
HETATM   21  C   UNL     1     -44.324 -52.272  14.237  1.00  0.00    -0.030 A 
HETATM   22  C   UNL     1     -44.671 -52.695  12.944  1.00  0.00     0.009 A 
HETATM   23  C   UNL     1     -45.941 -52.426  12.427  1.00  0.00     0.001 A 
HETATM   24  C   UNL     1     -46.878 -51.743  13.200  1.00  0.00     0.000 A 
HETATM   25  C   UNL     1     -46.547 -51.325  14.487  1.00  0.00     0.001 A 
HETATM   26  C   UNL     1     -45.277 -51.587  15.004  1.00  0.00     0.009 A 
ENDBRANCH  20  21
ENDBRANCH  18  20
ENDBRANCH  17  18
ENDBRANCH  14  17
ENDBRANCH  13  14
ENDBRANCH  11  13
BRANCH   1  27
HETATM   27  N   UNL     1     -38.968 -48.978  15.141  1.00  0.00    -0.281 NA
HETATM   28  C   UNL     1     -39.140 -48.402  16.449  1.00  0.00     0.114 C 
HETATM   29  H   UNL     1     -39.421 -49.889  15.062  1.00  0.00     0.128 HD
ENDBRANCH   1  27
TORSDOF 8
ENDMDL
MODEL 9
REMARK VINA RESULT:      -6.1      2.214      6.898
REMARK  8 active torsions:
REMARK  status: ('A' for Active; 'I' for Inactive)
REMARK    1  A    between atoms: N_2  and  C_3 
REMARK    2  A    between atoms: N_13  and  C_14 
REMARK    3  A    between atoms: C_14  and  C_15 
REMARK    4  A    between atoms: C_15  and  O_16 
REMARK    5  A    between atoms: C_15  and  C_17 
REMARK    6  A    between atoms: C_17  and  N_18 
REMARK    7  A    between atoms: N_18  and  C_20 
REMARK    8  A    between atoms: C_20  and  C_21 
ROOT
HETATM    1  C   UNL     1     -44.647 -51.169  14.780  1.00  0.00     0.112 A 
HETATM    2  N   UNL     1     -45.750 -50.859  15.503  1.00  0.00    -0.341 N 
ATOM      3  HN  UNL     1     -45.785 -49.989  16.035  1.00  0.00     0.167 HD
HETATM    4  C   UNL     1     -46.800 -51.699  15.519  1.00  0.00     0.183 A 
HETATM    5  N   UNL     1     -46.916 -52.864  14.895  1.00  0.00    -0.337 N 
ATOM      6  HN  UNL     1     -47.742 -53.460  14.958  1.00  0.00     0.168 HD
HETATM    7  C   UNL     1     -45.827 -53.173  14.170  1.00  0.00     0.137 A 
HETATM    8  N   UNL     1     -45.705 -54.335  13.467  1.00  0.00    -0.336 N 
ATOM      9  HN  UNL     1     -46.388 -55.089  13.386  1.00  0.00     0.168 HD
HETATM   10  C   UNL     1     -44.516 -54.267  12.917  1.00  0.00     0.185 A 
HETATM   11  N   UNL     1     -43.875 -53.099  13.227  1.00  0.00    -0.335 N 
HETATM   12  C   UNL     1     -44.695 -52.368  14.065  1.00  0.00     0.118 A 
ENDROOT
BRANCH  11  13
HETATM   13  C   UNL     1     -42.580 -52.686  12.728  1.00  0.00     0.163 C 
BRANCH  13  14
HETATM   14  C   UNL     1     -41.460 -53.741  12.663  1.00  0.00     0.164 C 
BRANCH  14  15
HETATM   15  O   UNL     1     -40.515 -53.419  11.633  1.00  0.00    -0.392 OA
HETATM   16  H   UNL     1     -40.998 -53.251  10.804  1.00  0.00     0.210 HD
ENDBRANCH  14  15
BRANCH  14  17
HETATM   17  C   UNL     1     -40.707 -53.810  14.013  1.00  0.00     0.305 C 
BRANCH  17  18
HETATM   18  N   UNL     1     -40.685 -52.542  14.767  1.00  0.00     0.090 N 
HETATM   19  C   UNL     1     -41.230 -52.734  16.118  1.00  0.00     0.310 C 
BRANCH  18  20
HETATM   20  C   UNL     1     -39.320 -51.990  14.860  1.00  0.00     0.310 C 
BRANCH  20  21
HETATM   21  C   UNL     1     -38.942 -51.088  13.700  1.00  0.00    -0.030 A 
HETATM   22  C   UNL     1     -37.697 -51.217  13.065  1.00  0.00     0.009 A 
HETATM   23  C   UNL     1     -37.362 -50.391  11.989  1.00  0.00     0.001 A 
HETATM   24  C   UNL     1     -38.270 -49.437  11.533  1.00  0.00     0.000 A 
HETATM   25  C   UNL     1     -39.511 -49.306  12.151  1.00  0.00     0.001 A 
HETATM   26  C   UNL     1     -39.846 -50.126  13.230  1.00  0.00     0.009 A 
ENDBRANCH  20  21
ENDBRANCH  18  20
ENDBRANCH  17  18
ENDBRANCH  14  17
ENDBRANCH  13  14
ENDBRANCH  11  13
BRANCH   1  27
HETATM   27  N   UNL     1     -43.617 -50.263  14.975  1.00  0.00    -0.281 NA
HETATM   28  C   UNL     1     -43.398 -49.548  16.204  1.00  0.00     0.114 C 
HETATM   29  H   UNL     1     -42.783 -50.768  14.672  1.00  0.00     0.128 HD
ENDBRANCH   1  27
TORSDOF 8
ENDMDL
