MODEL 1
REMARK VINA RESULT:      -5.6      0.000      0.000
REMARK  3 active torsions:
REMARK  status: ('A' for Active; 'I' for Inactive)
REMARK    1  A    between atoms: O_1  and  C_2 
REMARK    2  A    between atoms: C_2  and  CA_4 
REMARK    3  A    between atoms: C_7  and  N_13 
ROOT
HETATM    1  CA  UNL     1     -40.710 -50.419  11.780  1.00  0.00     0.145 A 
HETATM    2  N   UNL     1     -41.751 -49.632  11.351  1.00  0.00    -0.183 N 
ATOM      3  HN  UNL     1     -42.698 -50.003  11.273  1.00  0.00     0.184 HD
HETATM    4  C   UNL     1     -41.476 -48.357  11.039  1.00  0.00     0.680 A 
HETATM    5  N   UNL     1     -40.234 -47.861  11.132  1.00  0.00    -0.200 N 
ATOM      6  HN  UNL     1     -40.044 -46.890  10.885  1.00  0.00     0.183 HD
HETATM    7  C   UNL     1     -39.240 -48.669  11.561  1.00  0.00     0.132 A 
HETATM    8  C   UNL     1     -39.413 -49.984  11.908  1.00  0.00     0.084 A 
HETATM    9 CL   UNL     1     -38.065 -50.900  12.431  1.00  0.00    -0.080 Cl
ENDROOT
BRANCH   4  10
HETATM   10  N   UNL     1     -42.481 -47.539  10.615  1.00  0.00    -0.214 N 
HETATM   11  C   UNL     1     -43.211 -47.751   9.368  1.00  0.00     0.167 C 
HETATM   12  C   UNL     1     -43.098 -46.497   8.487  1.00  0.00     0.188 C 
HETATM   13  O   UNL     1     -43.527 -45.317   9.189  1.00  0.00    -0.388 OA
HETATM   14  C   UNL     1     -42.725 -45.111  10.365  1.00  0.00     0.188 C 
HETATM   15  C   UNL     1     -42.823 -46.306  11.329  1.00  0.00     0.167 C 
ENDBRANCH   4  10
BRANCH   1  16
HETATM   16  C   UNL     1     -41.130 -51.821  12.098  1.00  0.00     0.196 C 
HETATM   17  OXT UNL     1     -41.337 -52.290  13.199  1.00  0.00    -0.645 OA
BRANCH  16  18
HETATM   18  O   UNL     1     -41.254 -52.543  10.952  1.00  0.00    -0.772 OA
HETATM   19  H   UNL     1     -42.208 -52.612  10.714  1.00  0.00     0.167 HD
ENDBRANCH  16  18
ENDBRANCH   1  16
TORSDOF 3
ENDMDL
MODEL 2
REMARK VINA RESULT:      -5.5      1.940      2.624
REMARK  3 active torsions:
REMARK  status: ('A' for Active; 'I' for Inactive)
REMARK    1  A    between atoms: O_1  and  C_2 
REMARK    2  A    between atoms: C_2  and  CA_4 
REMARK    3  A    between atoms: C_7  and  N_13 
ROOT
HETATM    1  CA  UNL     1     -41.479 -51.061  12.298  1.00  0.00     0.145 A 
HETATM    2  N   UNL     1     -41.234 -50.012  11.445  1.00  0.00    -0.183 N 
ATOM      3  HN  UNL     1     -40.401 -49.992  10.857  1.00  0.00     0.184 HD
HETATM    4  C   UNL     1     -42.131 -49.016  11.416  1.00  0.00     0.680 A 
HETATM    5  N   UNL     1     -43.226 -49.031  12.189  1.00  0.00    -0.200 N 
ATOM      6  HN  UNL     1     -43.894 -48.261  12.156  1.00  0.00     0.183 HD
HETATM    7  C   UNL     1     -43.429 -50.083  13.011  1.00  0.00     0.132 A 
HETATM    8  C   UNL     1     -42.578 -51.153  13.117  1.00  0.00     0.084 A 
HETATM    9 CL   UNL     1     -42.951 -52.420  14.205  1.00  0.00    -0.080 Cl
ENDROOT
BRANCH   4  10
HETATM   10  N   UNL     1     -41.931 -47.958  10.578  1.00  0.00    -0.214 N 
HETATM   11  C   UNL     1     -40.912 -46.939  10.811  1.00  0.00     0.167 C 
HETATM   12  C   UNL     1     -41.576 -45.553  10.866  1.00  0.00     0.188 C 
HETATM   13  O   UNL     1     -42.362 -45.296   9.690  1.00  0.00    -0.388 OA
HETATM   14  C   UNL     1     -43.399 -46.283   9.551  1.00  0.00     0.188 C 
HETATM   15  C   UNL     1     -42.814 -47.702   9.437  1.00  0.00     0.167 C 
ENDBRANCH   4  10
BRANCH   1  16
HETATM   16  C   UNL     1     -40.413 -52.113  12.251  1.00  0.00     0.196 C 
HETATM   17  OXT UNL     1     -39.395 -52.152  12.913  1.00  0.00    -0.645 OA
BRANCH  16  18
HETATM   18  O   UNL     1     -40.734 -53.064  11.334  1.00  0.00    -0.772 OA
HETATM   19  H   UNL     1     -40.916 -53.914  11.797  1.00  0.00     0.167 HD
ENDBRANCH  16  18
ENDBRANCH   1  16
TORSDOF 3
ENDMDL
MODEL 3
REMARK VINA RESULT:      -5.5      5.240      7.056
REMARK  3 active torsions:
REMARK  status: ('A' for Active; 'I' for Inactive)
REMARK    1  A    between atoms: O_1  and  C_2 
REMARK    2  A    between atoms: C_2  and  CA_4 
REMARK    3  A    between atoms: C_7  and  N_13 
ROOT
HETATM    1  CA  UNL     1     -45.024 -53.173  13.344  1.00  0.00     0.145 A 
HETATM    2  N   UNL     1     -43.776 -52.845  12.874  1.00  0.00    -0.183 N 
ATOM      3  HN  UNL     1     -43.641 -52.063  12.233  1.00  0.00     0.184 HD
HETATM    4  C   UNL     1     -42.742 -53.591  13.289  1.00  0.00     0.680 A 
HETATM    5  N   UNL     1     -42.910 -54.624  14.127  1.00  0.00    -0.200 N 
ATOM      6  HN  UNL     1     -42.112 -55.183  14.427  1.00  0.00     0.183 HD
HETATM    7  C   UNL     1     -44.155 -54.910  14.567  1.00  0.00     0.132 A 
HETATM    8  C   UNL     1     -45.278 -54.211  14.207  1.00  0.00     0.084 A 
HETATM    9 CL   UNL     1     -46.799 -54.683  14.835  1.00  0.00    -0.080 Cl
ENDROOT
BRANCH   4  10
HETATM   10  N   UNL     1     -41.485 -53.296  12.852  1.00  0.00    -0.214 N 
HETATM   11  C   UNL     1     -40.282 -53.909  13.410  1.00  0.00     0.167 C 
HETATM   12  C   UNL     1     -39.338 -52.811  13.925  1.00  0.00     0.188 C 
HETATM   13  O   UNL     1     -39.046 -51.842  12.903  1.00  0.00    -0.388 OA
HETATM   14  C   UNL     1     -40.255 -51.213  12.444  1.00  0.00     0.188 C 
HETATM   15  C   UNL     1     -41.240 -52.242  11.863  1.00  0.00     0.167 C 
ENDBRANCH   4  10
BRANCH   1  16
HETATM   16  C   UNL     1     -46.103 -52.277  12.815  1.00  0.00     0.196 C 
HETATM   17  OXT UNL     1     -46.635 -51.353  13.395  1.00  0.00    -0.645 OA
BRANCH  16  18
HETATM   18  O   UNL     1     -46.432 -52.642  11.547  1.00  0.00    -0.772 OA
HETATM   19  H   UNL     1     -46.623 -51.834  11.016  1.00  0.00     0.167 HD
ENDBRANCH  16  18
ENDBRANCH   1  16
TORSDOF 3
ENDMDL
MODEL 4
REMARK VINA RESULT:      -5.4      2.870      5.917
REMARK  3 active torsions:
REMARK  status: ('A' for Active; 'I' for Inactive)
REMARK    1  A    between atoms: O_1  and  C_2 
REMARK    2  A    between atoms: C_2  and  CA_4 
REMARK    3  A    between atoms: C_7  and  N_13 
ROOT
HETATM    1  CA  UNL     1     -40.807 -46.611  10.739  1.00  0.00     0.145 A 
HETATM    2  N   UNL     1     -40.081 -47.732  11.058  1.00  0.00    -0.183 N 
ATOM      3  HN  UNL     1     -39.077 -47.682  11.230  1.00  0.00     0.184 HD
HETATM    4  C   UNL     1     -40.742 -48.896  11.134  1.00  0.00     0.680 A 
HETATM    5  N   UNL     1     -42.060 -48.974  10.904  1.00  0.00    -0.200 N 
ATOM      6  HN  UNL     1     -42.545 -49.870  10.961  1.00  0.00     0.183 HD
HETATM    7  C   UNL     1     -42.736 -47.846  10.597  1.00  0.00     0.132 A 
HETATM    8  C   UNL     1     -42.159 -46.607  10.495  1.00  0.00     0.084 A 
HETATM    9 CL   UNL     1     -43.131 -45.257  10.092  1.00  0.00    -0.080 Cl
ENDROOT
BRANCH   4  10
HETATM   10  N   UNL     1     -40.062 -50.034  11.454  1.00  0.00    -0.214 N 
HETATM   11  C   UNL     1     -40.723 -51.274  11.852  1.00  0.00     0.167 C 
HETATM   12  C   UNL     1     -40.209 -51.709  13.234  1.00  0.00     0.188 C 
HETATM   13  O   UNL     1     -38.774 -51.811  13.256  1.00  0.00    -0.388 OA
HETATM   14  C   UNL     1     -38.173 -50.544  12.934  1.00  0.00     0.188 C 
HETATM   15  C   UNL     1     -38.599 -50.059  11.538  1.00  0.00     0.167 C 
ENDBRANCH   4  10
BRANCH   1  16
HETATM   16  C   UNL     1     -39.969 -45.370  10.679  1.00  0.00     0.196 C 
HETATM   17  OXT UNL     1     -39.531 -44.737  11.619  1.00  0.00    -0.645 OA
BRANCH  16  18
HETATM   18  O   UNL     1     -39.749 -45.017   9.384  1.00  0.00    -0.772 OA
HETATM   19  H   UNL     1     -39.644 -44.039   9.328  1.00  0.00     0.167 HD
ENDBRANCH  16  18
ENDBRANCH   1  16
TORSDOF 3
ENDMDL
MODEL 5
REMARK VINA RESULT:      -5.4      5.234      6.872
REMARK  3 active torsions:
REMARK  status: ('A' for Active; 'I' for Inactive)
REMARK    1  A    between atoms: O_1  and  C_2 
REMARK    2  A    between atoms: C_2  and  CA_4 
REMARK    3  A    between atoms: C_7  and  N_13 
ROOT
HETATM    1  CA  UNL     1     -44.798 -53.151  13.936  1.00  0.00     0.145 A 
HETATM    2  N   UNL     1     -43.496 -53.480  13.645  1.00  0.00    -0.183 N 
ATOM      3  HN  UNL     1     -43.148 -54.429  13.781  1.00  0.00     0.184 HD
HETATM    4  C   UNL     1     -42.701 -52.507  13.178  1.00  0.00     0.680 A 
HETATM    5  N   UNL     1     -43.148 -51.256  13.002  1.00  0.00    -0.200 N 
ATOM      6  HN  UNL     1     -42.526 -50.527  12.650  1.00  0.00     0.183 HD
HETATM    7  C   UNL     1     -44.436 -50.976  13.298  1.00  0.00     0.132 A 
HETATM    8  C   UNL     1     -45.332 -51.895  13.778  1.00  0.00     0.084 A 
HETATM    9 CL   UNL     1     -46.937 -51.406  14.118  1.00  0.00    -0.080 Cl
ENDROOT
BRANCH   4  10
HETATM   10  N   UNL     1     -41.403 -52.791  12.870  1.00  0.00    -0.214 N 
HETATM   11  C   UNL     1     -40.838 -54.135  12.959  1.00  0.00     0.167 C 
HETATM   12  C   UNL     1     -39.621 -54.119  13.898  1.00  0.00     0.188 C 
HETATM   13  O   UNL     1     -38.654 -53.135  13.493  1.00  0.00    -0.388 OA
HETATM   14  C   UNL     1     -39.239 -51.821  13.498  1.00  0.00     0.188 C 
HETATM   15  C   UNL     1     -40.441 -51.736  12.541  1.00  0.00     0.167 C 
ENDBRANCH   4  10
BRANCH   1  16
HETATM   16  C   UNL     1     -45.593 -54.311  14.453  1.00  0.00     0.196 C 
HETATM   17  OXT UNL     1     -45.992 -54.475  15.588  1.00  0.00    -0.645 OA
BRANCH  16  18
HETATM   18  O   UNL     1     -45.823 -55.202  13.452  1.00  0.00    -0.772 OA
HETATM   19  H   UNL     1     -45.246 -54.984  12.684  1.00  0.00     0.167 HD
ENDBRANCH  16  18
ENDBRANCH   1  16
TORSDOF 3
ENDMDL
MODEL 6
REMARK VINA RESULT:      -5.3      3.382      5.757
REMARK  3 active torsions:
REMARK  status: ('A' for Active; 'I' for Inactive)
REMARK    1  A    between atoms: O_1  and  C_2 
REMARK    2  A    between atoms: C_2  and  CA_4 
REMARK    3  A    between atoms: C_7  and  N_13 
ROOT
HETATM    1  CA  UNL     1     -39.676 -49.853  11.692  1.00  0.00     0.145 A 
HETATM    2  N   UNL     1     -40.085 -51.132  11.982  1.00  0.00    -0.183 N 
ATOM      3  HN  UNL     1     -39.411 -51.887  12.113  1.00  0.00     0.184 HD
HETATM    4  C   UNL     1     -41.404 -51.352  12.086  1.00  0.00     0.680 A 
HETATM    5  N   UNL     1     -42.297 -50.368  11.910  1.00  0.00    -0.200 N 
ATOM      6  HN  UNL     1     -43.297 -50.556  11.987  1.00  0.00     0.183 HD
HETATM    7  C   UNL     1     -41.851 -49.124  11.629  1.00  0.00     0.132 A 
HETATM    8  C   UNL     1     -40.527 -48.792  11.503  1.00  0.00     0.084 A 
HETATM    9 CL   UNL     1     -40.097 -47.176  11.139  1.00  0.00    -0.080 Cl
ENDROOT
BRANCH   4  10
HETATM   10  N   UNL     1     -41.854 -52.605  12.378  1.00  0.00    -0.214 N 
HETATM   11  C   UNL     1     -43.272 -52.943  12.466  1.00  0.00     0.167 C 
HETATM   12  C   UNL     1     -43.573 -53.538  13.852  1.00  0.00     0.188 C 
HETATM   13  O   UNL     1     -42.715 -54.654  14.146  1.00  0.00    -0.388 OA
HETATM   14  C   UNL     1     -41.335 -54.250  14.123  1.00  0.00     0.188 C 
HETATM   15  C   UNL     1     -40.936 -53.686  12.748  1.00  0.00     0.167 C 
ENDBRANCH   4  10
BRANCH   1  16
HETATM   16  C   UNL     1     -38.186 -49.724  11.598  1.00  0.00     0.196 C 
HETATM   17  OXT UNL     1     -37.425 -49.374  12.478  1.00  0.00    -0.645 OA
BRANCH  16  18
HETATM   18  O   UNL     1     -37.766 -50.058  10.348  1.00  0.00    -0.772 OA
HETATM   19  H   UNL     1     -37.332 -50.942  10.377  1.00  0.00     0.167 HD
ENDBRANCH  16  18
ENDBRANCH   1  16
TORSDOF 3
ENDMDL
MODEL 7
REMARK VINA RESULT:      -5.3      4.130      5.714
REMARK  3 active torsions:
REMARK  status: ('A' for Active; 'I' for Inactive)
REMARK    1  A    between atoms: O_1  and  C_2 
REMARK    2  A    between atoms: C_2  and  CA_4 
REMARK    3  A    between atoms: C_7  and  N_13 
ROOT
HETATM    1  CA  UNL     1     -44.728 -52.656  12.866  1.00  0.00     0.145 A 
HETATM    2  N   UNL     1     -43.781 -51.717  12.537  1.00  0.00    -0.183 N 
ATOM      3  HN  UNL     1     -44.048 -50.788  12.211  1.00  0.00     0.184 HD
HETATM    4  C   UNL     1     -42.493 -52.067  12.661  1.00  0.00     0.680 A 
HETATM    5  N   UNL     1     -42.132 -53.287  13.083  1.00  0.00    -0.200 N 
ATOM      6  HN  UNL     1     -41.146 -53.537  13.165  1.00  0.00     0.183 HD
HETATM    7  C   UNL     1     -43.096 -54.179  13.398  1.00  0.00     0.132 A 
HETATM    8  C   UNL     1     -44.440 -53.924  13.310  1.00  0.00     0.084 A 
HETATM    9 CL   UNL     1     -45.559 -55.147  13.736  1.00  0.00    -0.080 Cl
ENDROOT
BRANCH   4  10
HETATM   10  N   UNL     1     -41.519 -51.164  12.352  1.00  0.00    -0.214 N 
HETATM   11  C   UNL     1     -40.093 -51.468  12.432  1.00  0.00     0.167 C 
HETATM   12  C   UNL     1     -39.406 -50.463  13.371  1.00  0.00     0.188 C 
HETATM   13  O   UNL     1     -39.664 -49.106  12.973  1.00  0.00    -0.388 OA
HETATM   14  C   UNL     1     -41.077 -48.835  12.986  1.00  0.00     0.188 C 
HETATM   15  C   UNL     1     -41.837 -49.770  12.029  1.00  0.00     0.167 C 
ENDBRANCH   4  10
BRANCH   1  16
HETATM   16  C   UNL     1     -46.130 -52.159  12.688  1.00  0.00     0.196 C 
HETATM   17  OXT UNL     1     -46.767 -51.473  13.463  1.00  0.00    -0.645 OA
BRANCH  16  18
HETATM   18  O   UNL     1     -46.631 -52.590  11.499  1.00  0.00    -0.772 OA
HETATM   19  H   UNL     1     -47.570 -52.304  11.420  1.00  0.00     0.167 HD
ENDBRANCH  16  18
ENDBRANCH   1  16
TORSDOF 3
ENDMDL
MODEL 8
REMARK VINA RESULT:      -5.2      2.977      6.091
REMARK  3 active torsions:
REMARK  status: ('A' for Active; 'I' for Inactive)
REMARK    1  A    between atoms: O_1  and  C_2 
REMARK    2  A    between atoms: C_2  and  CA_4 
REMARK    3  A    between atoms: C_7  and  N_13 
ROOT
HETATM    1  CA  UNL     1     -40.040 -46.063  11.396  1.00  0.00     0.145 A 
HETATM    2  N   UNL     1     -39.833 -47.406  11.191  1.00  0.00    -0.183 N 
ATOM      3  HN  UNL     1     -40.080 -47.851  10.307  1.00  0.00     0.184 HD
HETATM    4  C   UNL     1     -39.293 -48.109  12.197  1.00  0.00     0.680 A 
HETATM    5  N   UNL     1     -38.970 -47.535  13.364  1.00  0.00    -0.200 N 
ATOM      6  HN  UNL     1     -38.565 -48.088  14.120  1.00  0.00     0.183 HD
HETATM    7  C   UNL     1     -39.188 -46.211  13.522  1.00  0.00     0.132 A 
HETATM    8  C   UNL     1     -39.731 -45.401  12.559  1.00  0.00     0.084 A 
HETATM    9 CL   UNL     1     -39.961 -43.737  12.891  1.00  0.00    -0.080 Cl
ENDROOT
BRANCH   4  10
HETATM   10  N   UNL     1     -39.064 -49.443  12.034  1.00  0.00    -0.214 N 
HETATM   11  C   UNL     1     -40.103 -50.457  12.194  1.00  0.00     0.167 C 
HETATM   12  C   UNL     1     -39.667 -51.476  13.259  1.00  0.00     0.188 C 
HETATM   13  O   UNL     1     -38.380 -52.041  12.955  1.00  0.00    -0.388 OA
HETATM   14  C   UNL     1     -37.379 -51.010  12.886  1.00  0.00     0.188 C 
HETATM   15  C   UNL     1     -37.716 -49.971  11.804  1.00  0.00     0.167 C 
ENDBRANCH   4  10
BRANCH   1  16
HETATM   16  C   UNL     1     -40.649 -45.379  10.210  1.00  0.00     0.196 C 
HETATM   17  OXT UNL     1     -41.832 -45.251   9.967  1.00  0.00    -0.645 OA
BRANCH  16  18
HETATM   18  O   UNL     1     -39.671 -44.896   9.397  1.00  0.00    -0.772 OA
HETATM   19  H   UNL     1     -39.149 -45.649   9.036  1.00  0.00     0.167 HD
ENDBRANCH  16  18
ENDBRANCH   1  16
TORSDOF 3
ENDMDL
MODEL 9
REMARK VINA RESULT:      -5.1      4.700      6.124
REMARK  3 active torsions:
REMARK  status: ('A' for Active; 'I' for Inactive)
REMARK    1  A    between atoms: O_1  and  C_2 
REMARK    2  A    between atoms: C_2  and  CA_4 
REMARK    3  A    between atoms: C_7  and  N_13 
ROOT
HETATM    1  CA  UNL     1     -40.546 -52.986  13.471  1.00  0.00     0.145 A 
HETATM    2  N   UNL     1     -41.777 -53.568  13.654  1.00  0.00    -0.183 N 
ATOM      3  HN  UNL     1     -41.886 -54.407  14.223  1.00  0.00     0.184 HD
HETATM    4  C   UNL     1     -42.829 -52.991  13.056  1.00  0.00     0.680 A 
HETATM    5  N   UNL     1     -42.695 -51.891  12.302  1.00  0.00    -0.200 N 
ATOM      6  HN  UNL     1     -43.507 -51.469  11.851  1.00  0.00     0.183 HD
HETATM    7  C   UNL     1     -41.466 -51.349  12.151  1.00  0.00     0.132 A 
HETATM    8  C   UNL     1     -40.327 -51.857  12.718  1.00  0.00     0.084 A 
HETATM    9 CL   UNL     1     -38.829 -51.076  12.442  1.00  0.00    -0.080 Cl
ENDROOT
BRANCH   4  10
HETATM   10  N   UNL     1     -44.071 -53.531  13.216  1.00  0.00    -0.214 N 
HETATM   11  C   UNL     1     -45.264 -52.998  12.564  1.00  0.00     0.167 C 
HETATM   12  C   UNL     1     -46.316 -52.645  13.628  1.00  0.00     0.188 C 
HETATM   13  O   UNL     1     -46.602 -53.767  14.481  1.00  0.00    -0.388 OA
HETATM   14  C   UNL     1     -45.411 -54.203  15.158  1.00  0.00     0.188 C 
HETATM   15  C   UNL     1     -44.319 -54.625  14.160  1.00  0.00     0.167 C 
ENDBRANCH   4  10
BRANCH   1  16
HETATM   16  C   UNL     1     -39.444 -53.714  14.179  1.00  0.00     0.196 C 
HETATM   17  OXT UNL     1     -39.092 -53.563  15.332  1.00  0.00    -0.645 OA
BRANCH  16  18
HETATM   18  O   UNL     1     -38.855 -54.604  13.337  1.00  0.00    -0.772 OA
HETATM   19  H   UNL     1     -39.147 -54.421  12.414  1.00  0.00     0.167 HD
ENDBRANCH  16  18
ENDBRANCH   1  16
TORSDOF 3
ENDMDL
