MODEL 1
REMARK VINA RESULT:      -6.0      0.000      0.000
REMARK  5 active torsions:
REMARK  status: ('A' for Active; 'I' for Inactive)
REMARK    1  A    between atoms: C_2  and  C_3 
REMARK    2  A    between atoms: C_3  and  C_4 
REMARK    3  A    between atoms: C_3  and  N_16 
REMARK    4  A    between atoms: C_4  and  N_5 
REMARK       I    between atoms: N_5  and  C_6 
REMARK       I    between atoms: C_6  and  N_8 
REMARK    5  A    between atoms: N_8  and  C_9 
ROOT
HETATM    1  N   UNL     1     -42.235 -51.068  11.931  1.00  0.00    -0.341 N 
HETATM    2  C   UNL     1     -41.569 -49.855  11.905  1.00  0.00     0.322 C 
HETATM    3  O   UNL     1     -40.731 -49.566  12.749  1.00  0.00    -0.247 OA
HETATM    4  N   UNL     1     -42.000 -49.041  10.888  1.00  0.00    -0.288 N 
HETATM    5  H   UNL     1     -42.406 -51.506  11.035  1.00  0.00     0.164 HD
HETATM    6  H   UNL     1     -42.909 -49.202  10.491  1.00  0.00     0.172 HD
ENDROOT
BRANCH   1   7
HETATM    7  C   UNL     1     -41.862 -51.987  12.995  1.00  0.00     0.160 C 
BRANCH   7   8
HETATM    8  C   UNL     1     -43.057 -52.589  13.778  1.00  0.00     0.240 C 
BRANCH   8   9
HETATM    9  C   UNL     1     -43.042 -54.137  13.647  1.00  0.00     0.033 C 
HETATM   10  C   UNL     1     -43.334 -54.873  14.951  1.00  0.00     0.007 C 
ENDBRANCH   8   9
BRANCH   8  11
HETATM   11  N   UNL     1     -44.336 -51.947  13.383  1.00  0.00     0.094 N 
HETATM   12  C   UNL     1     -45.066 -51.304  14.483  1.00  0.00     0.273 C 
HETATM   13  C   UNL     1     -46.547 -51.437  14.147  1.00  0.00     0.032 C 
HETATM   14  C   UNL     1     -46.579 -52.013  12.746  1.00  0.00     0.032 C 
HETATM   15  C   UNL     1     -45.283 -52.797  12.660  1.00  0.00     0.273 C 
ENDBRANCH   8  11
ENDBRANCH   7   8
ENDBRANCH   1   7
BRANCH   4  16
HETATM   16  C   UNL     1     -41.415 -47.814  10.704  1.00  0.00     0.168 A 
HETATM   17  N   UNL     1     -40.147 -47.483  10.678  1.00  0.00    -0.279 N 
HETATM   18  N   UNL     1     -39.965 -46.125  10.489  1.00  0.00    -0.303 N 
ATOM     19  HN  UNL     1     -39.382 -48.150  10.786  1.00  0.00     0.189 HD
HETATM   20  C   UNL     1     -41.114 -45.497  10.379  1.00  0.00     0.160 A 
ATOM     21  HN  UNL     1     -39.054 -45.669  10.440  1.00  0.00     0.186 HD
HETATM   22  S   UNL     1     -42.499 -46.514  10.461  1.00  0.00    -0.046 SA
ENDBRANCH   4  16
TORSDOF 5
ENDMDL
MODEL 2
REMARK VINA RESULT:      -5.7      2.602      3.610
REMARK  5 active torsions:
REMARK  status: ('A' for Active; 'I' for Inactive)
REMARK    1  A    between atoms: C_2  and  C_3 
REMARK    2  A    between atoms: C_3  and  C_4 
REMARK    3  A    between atoms: C_3  and  N_16 
REMARK    4  A    between atoms: C_4  and  N_5 
REMARK       I    between atoms: N_5  and  C_6 
REMARK       I    between atoms: C_6  and  N_8 
REMARK    5  A    between atoms: N_8  and  C_9 
ROOT
HETATM    1  N   UNL     1     -43.815 -51.750  12.548  1.00  0.00    -0.341 N 
HETATM    2  C   UNL     1     -42.461 -51.730  12.266  1.00  0.00     0.322 C 
HETATM    3  O   UNL     1     -41.793 -52.756  12.255  1.00  0.00    -0.247 OA
HETATM    4  N   UNL     1     -41.984 -50.458  12.068  1.00  0.00    -0.288 N 
HETATM    5  H   UNL     1     -44.397 -51.121  12.008  1.00  0.00     0.164 HD
HETATM    6  H   UNL     1     -42.500 -49.684  12.447  1.00  0.00     0.172 HD
ENDROOT
BRANCH   1   7
HETATM    7  C   UNL     1     -44.404 -53.057  12.799  1.00  0.00     0.160 C 
BRANCH   7   8
HETATM    8  C   UNL     1     -45.934 -53.040  13.049  1.00  0.00     0.240 C 
BRANCH   8   9
HETATM    9  C   UNL     1     -46.528 -51.688  12.563  1.00  0.00     0.033 C 
HETATM   10  C   UNL     1     -47.300 -51.787  11.250  1.00  0.00     0.007 C 
ENDBRANCH   8   9
BRANCH   8  11
HETATM   11  N   UNL     1     -46.252 -53.385  14.457  1.00  0.00     0.094 N 
HETATM   12  C   UNL     1     -46.941 -52.326  15.207  1.00  0.00     0.273 C 
HETATM   13  C   UNL     1     -46.484 -52.465  16.656  1.00  0.00     0.032 C 
HETATM   14  C   UNL     1     -45.669 -53.743  16.687  1.00  0.00     0.032 C 
HETATM   15  C   UNL     1     -45.129 -53.848  15.273  1.00  0.00     0.273 C 
ENDBRANCH   8  11
ENDBRANCH   7   8
ENDBRANCH   1   7
BRANCH   4  16
HETATM   16  C   UNL     1     -40.665 -50.269  11.745  1.00  0.00     0.168 A 
HETATM   17  N   UNL     1     -40.097 -50.145  10.569  1.00  0.00    -0.279 N 
HETATM   18  N   UNL     1     -38.726 -49.989  10.665  1.00  0.00    -0.303 N 
ATOM     19  HN  UNL     1     -40.607 -50.162   9.686  1.00  0.00     0.189 HD
HETATM   20  C   UNL     1     -38.327 -50.002  11.917  1.00  0.00     0.160 A 
ATOM     21  HN  UNL     1     -38.104 -49.878   9.865  1.00  0.00     0.186 HD
HETATM   22  S   UNL     1     -39.592 -50.167  13.072  1.00  0.00    -0.046 SA
ENDBRANCH   4  16
TORSDOF 5
ENDMDL
MODEL 3
REMARK VINA RESULT:      -5.7      4.273      5.992
REMARK  5 active torsions:
REMARK  status: ('A' for Active; 'I' for Inactive)
REMARK    1  A    between atoms: C_2  and  C_3 
REMARK    2  A    between atoms: C_3  and  C_4 
REMARK    3  A    between atoms: C_3  and  N_16 
REMARK    4  A    between atoms: C_4  and  N_5 
REMARK       I    between atoms: N_5  and  C_6 
REMARK       I    between atoms: C_6  and  N_8 
REMARK    5  A    between atoms: N_8  and  C_9 
ROOT
HETATM    1  N   UNL     1     -40.683 -49.259  10.552  1.00  0.00    -0.341 N 
HETATM    2  C   UNL     1     -41.900 -48.614  10.679  1.00  0.00     0.322 C 
HETATM    3  O   UNL     1     -42.439 -48.471  11.768  1.00  0.00    -0.247 OA
HETATM    4  N   UNL     1     -42.418 -48.227   9.469  1.00  0.00    -0.288 N 
HETATM    5  H   UNL     1     -40.035 -48.869   9.879  1.00  0.00     0.164 HD
HETATM    6  H   UNL     1     -42.104 -48.693   8.636  1.00  0.00     0.172 HD
ENDROOT
BRANCH   1   7
HETATM    7  C   UNL     1     -40.069 -49.730  11.784  1.00  0.00     0.160 C 
BRANCH   7   8
HETATM    8  C   UNL     1     -38.751 -49.008  12.166  1.00  0.00     0.240 C 
BRANCH   8   9
HETATM    9  C   UNL     1     -37.559 -49.997  12.042  1.00  0.00     0.033 C 
HETATM   10  C   UNL     1     -37.026 -50.151  10.621  1.00  0.00     0.007 C 
ENDBRANCH   8   9
BRANCH   8  11
HETATM   11  N   UNL     1     -38.867 -48.341  13.487  1.00  0.00     0.094 N 
HETATM   12  C   UNL     1     -39.506 -47.019  13.453  1.00  0.00     0.273 C 
HETATM   13  C   UNL     1     -38.859 -46.205  14.568  1.00  0.00     0.032 C 
HETATM   14  C   UNL     1     -37.983 -47.192  15.314  1.00  0.00     0.032 C 
HETATM   15  C   UNL     1     -37.625 -48.215  14.252  1.00  0.00     0.273 C 
ENDBRANCH   8  11
ENDBRANCH   7   8
ENDBRANCH   1   7
BRANCH   4  16
HETATM   16  C   UNL     1     -43.607 -47.543   9.424  1.00  0.00     0.168 A 
HETATM   17  N   UNL     1     -44.793 -47.891   9.859  1.00  0.00    -0.279 N 
HETATM   18  N   UNL     1     -45.748 -46.923   9.603  1.00  0.00    -0.303 N 
ATOM     19  HN  UNL     1     -44.990 -48.774  10.331  1.00  0.00     0.189 HD
HETATM   20  C   UNL     1     -45.228 -45.886   8.985  1.00  0.00     0.160 A 
ATOM     21  HN  UNL     1     -46.731 -47.004   9.861  1.00  0.00     0.186 HD
HETATM   22  S   UNL     1     -43.535 -45.994   8.703  1.00  0.00    -0.046 SA
ENDBRANCH   4  16
TORSDOF 5
ENDMDL
MODEL 4
REMARK VINA RESULT:      -5.6      2.332      2.822
REMARK  5 active torsions:
REMARK  status: ('A' for Active; 'I' for Inactive)
REMARK    1  A    between atoms: C_2  and  C_3 
REMARK    2  A    between atoms: C_3  and  C_4 
REMARK    3  A    between atoms: C_3  and  N_16 
REMARK    4  A    between atoms: C_4  and  N_5 
REMARK       I    between atoms: N_5  and  C_6 
REMARK       I    between atoms: C_6  and  N_8 
REMARK    5  A    between atoms: N_8  and  C_9 
ROOT
HETATM    1  N   UNL     1     -42.224 -53.570  12.403  1.00  0.00    -0.341 N 
HETATM    2  C   UNL     1     -41.907 -52.230  12.270  1.00  0.00     0.322 C 
HETATM    3  O   UNL     1     -42.750 -51.355  12.417  1.00  0.00    -0.247 OA
HETATM    4  N   UNL     1     -40.597 -52.032  11.913  1.00  0.00    -0.288 N 
HETATM    5  H   UNL     1     -41.532 -54.153  12.857  1.00  0.00     0.164 HD
HETATM    6  H   UNL     1     -40.098 -52.784  11.470  1.00  0.00     0.172 HD
ENDROOT
BRANCH   1   7
HETATM    7  C   UNL     1     -43.601 -53.877  12.755  1.00  0.00     0.160 C 
BRANCH   7   8
HETATM    8  C   UNL     1     -43.910 -53.815  14.274  1.00  0.00     0.240 C 
BRANCH   8   9
HETATM    9  C   UNL     1     -43.756 -55.230  14.897  1.00  0.00     0.033 C 
HETATM   10  C   UNL     1     -42.501 -55.400  15.747  1.00  0.00     0.007 C 
ENDBRANCH   8   9
BRANCH   8  11
HETATM   11  N   UNL     1     -45.219 -53.164  14.530  1.00  0.00     0.094 N 
HETATM   12  C   UNL     1     -45.936 -52.733  13.323  1.00  0.00     0.273 C 
HETATM   13  C   UNL     1     -46.724 -51.488  13.717  1.00  0.00     0.032 C 
HETATM   14  C   UNL     1     -46.545 -51.372  15.218  1.00  0.00     0.032 C 
HETATM   15  C   UNL     1     -45.203 -52.036  15.463  1.00  0.00     0.273 C 
ENDBRANCH   8  11
ENDBRANCH   7   8
ENDBRANCH   1   7
BRANCH   4  16
HETATM   16  C   UNL     1     -40.114 -50.756  11.773  1.00  0.00     0.168 A 
HETATM   17  N   UNL     1     -40.319 -49.880  10.820  1.00  0.00    -0.279 N 
HETATM   18  N   UNL     1     -39.628 -48.701  11.036  1.00  0.00    -0.303 N 
ATOM     19  HN  UNL     1     -40.918 -50.048  10.011  1.00  0.00     0.189 HD
HETATM   20  C   UNL     1     -38.934 -48.749  12.150  1.00  0.00     0.160 A 
ATOM     21  HN  UNL     1     -39.655 -47.897  10.410  1.00  0.00     0.186 HD
HETATM   22  S   UNL     1     -39.098 -50.214  13.037  1.00  0.00    -0.046 SA
ENDBRANCH   4  16
TORSDOF 5
ENDMDL
MODEL 5
REMARK VINA RESULT:      -5.6      3.114      7.239
REMARK  5 active torsions:
REMARK  status: ('A' for Active; 'I' for Inactive)
REMARK    1  A    between atoms: C_2  and  C_3 
REMARK    2  A    between atoms: C_3  and  C_4 
REMARK    3  A    between atoms: C_3  and  N_16 
REMARK    4  A    between atoms: C_4  and  N_5 
REMARK       I    between atoms: N_5  and  C_6 
REMARK       I    between atoms: C_6  and  N_8 
REMARK    5  A    between atoms: N_8  and  C_9 
ROOT
HETATM    1  N   UNL     1     -42.264 -49.032  11.307  1.00  0.00    -0.341 N 
HETATM    2  C   UNL     1     -41.508 -50.164  11.556  1.00  0.00     0.322 C 
HETATM    3  O   UNL     1     -40.306 -50.195  11.327  1.00  0.00    -0.247 OA
HETATM    4  N   UNL     1     -42.265 -51.211  12.018  1.00  0.00    -0.288 N 
HETATM    5  H   UNL     1     -42.983 -48.814  11.985  1.00  0.00     0.164 HD
HETATM    6  H   UNL     1     -43.252 -51.213  11.830  1.00  0.00     0.172 HD
ENDROOT
BRANCH   1   7
HETATM    7  C   UNL     1     -41.547 -47.878  10.788  1.00  0.00     0.160 C 
BRANCH   7   8
HETATM    8  C   UNL     1     -42.446 -46.670  10.420  1.00  0.00     0.240 C 
BRANCH   8   9
HETATM    9  C   UNL     1     -43.251 -46.990   9.130  1.00  0.00     0.033 C 
HETATM   10  C   UNL     1     -44.738 -47.230   9.370  1.00  0.00     0.007 C 
ENDBRANCH   8   9
BRANCH   8  11
HETATM   11  N   UNL     1     -41.660 -45.412  10.363  1.00  0.00     0.094 N 
HETATM   12  C   UNL     1     -40.222 -45.576  10.612  1.00  0.00     0.273 C 
HETATM   13  C   UNL     1     -39.759 -44.290  11.290  1.00  0.00     0.032 C 
HETATM   14  C   UNL     1     -40.957 -43.365  11.232  1.00  0.00     0.032 C 
HETATM   15  C   UNL     1     -42.136 -44.319  11.212  1.00  0.00     0.273 C 
ENDBRANCH   8  11
ENDBRANCH   7   8
ENDBRANCH   1   7
BRANCH   4  16
HETATM   16  C   UNL     1     -41.659 -52.397  12.346  1.00  0.00     0.168 A 
HETATM   17  N   UNL     1     -41.036 -53.261  11.582  1.00  0.00    -0.279 N 
HETATM   18  N   UNL     1     -40.579 -54.355  12.295  1.00  0.00    -0.303 N 
ATOM     19  HN  UNL     1     -40.903 -53.141  10.578  1.00  0.00     0.189 HD
HETATM   20  C   UNL     1     -40.883 -54.258  13.570  1.00  0.00     0.160 A 
ATOM     21  HN  UNL     1     -40.071 -55.137  11.883  1.00  0.00     0.186 HD
HETATM   22  S   UNL     1     -41.713 -52.815  14.003  1.00  0.00    -0.046 SA
ENDBRANCH   4  16
TORSDOF 5
ENDMDL
MODEL 6
REMARK VINA RESULT:      -5.6      1.717      1.813
REMARK  5 active torsions:
REMARK  status: ('A' for Active; 'I' for Inactive)
REMARK    1  A    between atoms: C_2  and  C_3 
REMARK    2  A    between atoms: C_3  and  C_4 
REMARK    3  A    between atoms: C_3  and  N_16 
REMARK    4  A    between atoms: C_4  and  N_5 
REMARK       I    between atoms: N_5  and  C_6 
REMARK       I    between atoms: C_6  and  N_8 
REMARK    5  A    between atoms: N_8  and  C_9 
ROOT
HETATM    1  N   UNL     1     -41.939 -50.405  11.911  1.00  0.00    -0.341 N 
HETATM    2  C   UNL     1     -42.432 -49.121  11.756  1.00  0.00     0.322 C 
HETATM    3  O   UNL     1     -42.850 -48.476  12.708  1.00  0.00    -0.247 OA
HETATM    4  N   UNL     1     -42.440 -48.716  10.445  1.00  0.00    -0.288 N 
HETATM    5  H   UNL     1     -41.131 -50.647  11.351  1.00  0.00     0.164 HD
HETATM    6  H   UNL     1     -42.429 -49.415   9.722  1.00  0.00     0.172 HD
ENDROOT
BRANCH   1   7
HETATM    7  C   UNL     1     -41.918 -50.929  13.268  1.00  0.00     0.160 C 
BRANCH   7   8
HETATM    8  C   UNL     1     -42.924 -52.078  13.533  1.00  0.00     0.240 C 
BRANCH   8   9
HETATM    9  C   UNL     1     -42.461 -53.361  12.788  1.00  0.00     0.033 C 
HETATM   10  C   UNL     1     -41.033 -53.787  13.116  1.00  0.00     0.007 C 
ENDBRANCH   8   9
BRANCH   8  11
HETATM   11  N   UNL     1     -44.315 -51.655  13.230  1.00  0.00     0.094 N 
HETATM   12  C   UNL     1     -45.042 -51.078  14.369  1.00  0.00     0.273 C 
HETATM   13  C   UNL     1     -46.508 -51.448  14.169  1.00  0.00     0.032 C 
HETATM   14  C   UNL     1     -46.565 -52.086  12.796  1.00  0.00     0.032 C 
HETATM   15  C   UNL     1     -45.176 -52.670  12.622  1.00  0.00     0.273 C 
ENDBRANCH   8  11
ENDBRANCH   7   8
ENDBRANCH   1   7
BRANCH   4  16
HETATM   16  C   UNL     1     -42.869 -47.453  10.125  1.00  0.00     0.168 A 
HETATM   17  N   UNL     1     -42.750 -46.331  10.793  1.00  0.00    -0.279 N 
HETATM   18  N   UNL     1     -43.341 -45.267  10.136  1.00  0.00    -0.303 N 
ATOM     19  HN  UNL     1     -42.277 -46.253  11.693  1.00  0.00     0.189 HD
HETATM   20  C   UNL     1     -43.878 -45.643   8.997  1.00  0.00     0.160 A 
ATOM     21  HN  UNL     1     -43.358 -44.311  10.491  1.00  0.00     0.186 HD
HETATM   22  S   UNL     1     -43.672 -47.310   8.622  1.00  0.00    -0.046 SA
ENDBRANCH   4  16
TORSDOF 5
ENDMDL
MODEL 7
REMARK VINA RESULT:      -5.6      3.117      6.922
REMARK  5 active torsions:
REMARK  status: ('A' for Active; 'I' for Inactive)
REMARK    1  A    between atoms: C_2  and  C_3 
REMARK    2  A    between atoms: C_3  and  C_4 
REMARK    3  A    between atoms: C_3  and  N_16 
REMARK    4  A    between atoms: C_4  and  N_5 
REMARK       I    between atoms: N_5  and  C_6 
REMARK       I    between atoms: C_6  and  N_8 
REMARK    5  A    between atoms: N_8  and  C_9 
ROOT
HETATM    1  N   UNL     1     -40.371 -48.939  11.201  1.00  0.00    -0.341 N 
HETATM    2  C   UNL     1     -41.123 -49.906  11.846  1.00  0.00     0.322 C 
HETATM    3  O   UNL     1     -41.919 -49.615  12.729  1.00  0.00    -0.247 OA
HETATM    4  N   UNL     1     -40.823 -51.175  11.419  1.00  0.00    -0.288 N 
HETATM    5  H   UNL     1     -40.231 -49.067  10.207  1.00  0.00     0.164 HD
HETATM    6  H   UNL     1     -39.934 -51.341  10.981  1.00  0.00     0.172 HD
ENDROOT
BRANCH   1   7
HETATM    7  C   UNL     1     -40.604 -47.562  11.609  1.00  0.00     0.160 C 
BRANCH   7   8
HETATM    8  C   UNL     1     -41.001 -46.604  10.456  1.00  0.00     0.240 C 
BRANCH   8   9
HETATM    9  C   UNL     1     -40.469 -45.175  10.757  1.00  0.00     0.033 C 
HETATM   10  C   UNL     1     -39.370 -44.710   9.805  1.00  0.00     0.007 C 
ENDBRANCH   8   9
BRANCH   8  11
HETATM   11  N   UNL     1     -42.457 -46.676  10.176  1.00  0.00     0.094 N 
HETATM   12  C   UNL     1     -42.851 -47.749   9.253  1.00  0.00     0.273 C 
HETATM   13  C   UNL     1     -44.063 -47.228   8.488  1.00  0.00     0.032 C 
HETATM   14  C   UNL     1     -44.412 -45.914   9.158  1.00  0.00     0.032 C 
HETATM   15  C   UNL     1     -43.081 -45.438   9.709  1.00  0.00     0.273 C 
ENDBRANCH   8  11
ENDBRANCH   7   8
ENDBRANCH   1   7
BRANCH   4  16
HETATM   16  C   UNL     1     -41.506 -52.246  11.937  1.00  0.00     0.168 A 
HETATM   17  N   UNL     1     -42.725 -52.662  11.695  1.00  0.00    -0.279 N 
HETATM   18  N   UNL     1     -43.055 -53.778  12.443  1.00  0.00    -0.303 N 
ATOM     19  HN  UNL     1     -43.358 -52.214  11.032  1.00  0.00     0.189 HD
HETATM   20  C   UNL     1     -42.059 -54.150  13.215  1.00  0.00     0.160 A 
ATOM     21  HN  UNL     1     -43.957 -54.252  12.400  1.00  0.00     0.186 HD
HETATM   22  S   UNL     1     -40.636 -53.195  13.063  1.00  0.00    -0.046 SA
ENDBRANCH   4  16
TORSDOF 5
ENDMDL
MODEL 8
REMARK VINA RESULT:      -5.5      3.008      6.559
REMARK  5 active torsions:
REMARK  status: ('A' for Active; 'I' for Inactive)
REMARK    1  A    between atoms: C_2  and  C_3 
REMARK    2  A    between atoms: C_3  and  C_4 
REMARK    3  A    between atoms: C_3  and  N_16 
REMARK    4  A    between atoms: C_4  and  N_5 
REMARK       I    between atoms: N_5  and  C_6 
REMARK       I    between atoms: C_6  and  N_8 
REMARK    5  A    between atoms: N_8  and  C_9 
ROOT
HETATM    1  N   UNL     1     -41.806 -52.127  11.583  1.00  0.00    -0.341 N 
HETATM    2  C   UNL     1     -42.778 -52.391  12.531  1.00  0.00     0.322 C 
HETATM    3  O   UNL     1     -42.652 -52.032  13.695  1.00  0.00    -0.247 OA
HETATM    4  N   UNL     1     -43.821 -53.126  12.025  1.00  0.00    -0.288 N 
HETATM    5  H   UNL     1     -42.136 -51.878  10.659  1.00  0.00     0.164 HD
HETATM    6  H   UNL     1     -43.670 -53.671  11.195  1.00  0.00     0.172 HD
ENDROOT
BRANCH   1   7
HETATM    7  C   UNL     1     -40.647 -51.374  12.037  1.00  0.00     0.160 C 
BRANCH   7   8
HETATM    8  C   UNL     1     -40.449 -50.006  11.335  1.00  0.00     0.240 C 
BRANCH   8   9
HETATM    9  C   UNL     1     -39.174 -49.313  11.890  1.00  0.00     0.033 C 
HETATM   10  C   UNL     1     -37.868 -49.935  11.404  1.00  0.00     0.007 C 
ENDBRANCH   8   9
BRANCH   8  11
HETATM   11  N   UNL     1     -41.682 -49.182  11.405  1.00  0.00     0.094 N 
HETATM   12  C   UNL     1     -41.769 -48.121  10.394  1.00  0.00     0.273 C 
HETATM   13  C   UNL     1     -42.543 -46.978  11.042  1.00  0.00     0.032 C 
HETATM   14  C   UNL     1     -43.021 -47.533  12.369  1.00  0.00     0.032 C 
HETATM   15  C   UNL     1     -41.976 -48.580  12.707  1.00  0.00     0.273 C 
ENDBRANCH   8  11
ENDBRANCH   7   8
ENDBRANCH   1   7
BRANCH   4  16
HETATM   16  C   UNL     1     -44.884 -53.444  12.831  1.00  0.00     0.168 A 
HETATM   17  N   UNL     1     -46.080 -52.911  12.893  1.00  0.00    -0.279 N 
HETATM   18  N   UNL     1     -46.867 -53.504  13.863  1.00  0.00    -0.303 N 
ATOM     19  HN  UNL     1     -46.394 -52.147  12.295  1.00  0.00     0.189 HD
HETATM   20  C   UNL     1     -46.219 -54.462  14.488  1.00  0.00     0.160 A 
ATOM     21  HN  UNL     1     -47.828 -53.232  14.068  1.00  0.00     0.186 HD
HETATM   22  S   UNL     1     -44.620 -54.738  13.917  1.00  0.00    -0.046 SA
ENDBRANCH   4  16
TORSDOF 5
ENDMDL
MODEL 9
REMARK VINA RESULT:      -5.3      2.394      3.880
REMARK  5 active torsions:
REMARK  status: ('A' for Active; 'I' for Inactive)
REMARK    1  A    between atoms: C_2  and  C_3 
REMARK    2  A    between atoms: C_3  and  C_4 
REMARK    3  A    between atoms: C_3  and  N_16 
REMARK    4  A    between atoms: C_4  and  N_5 
REMARK       I    between atoms: N_5  and  C_6 
REMARK       I    between atoms: C_6  and  N_8 
REMARK    5  A    between atoms: N_8  and  C_9 
ROOT
HETATM    1  N   UNL     1     -40.772 -50.116  10.972  1.00  0.00    -0.341 N 
HETATM    2  C   UNL     1     -41.634 -49.034  11.007  1.00  0.00     0.322 C 
HETATM    3  O   UNL     1     -42.261 -48.747  12.018  1.00  0.00    -0.247 OA
HETATM    4  N   UNL     1     -41.726 -48.397   9.795  1.00  0.00    -0.288 N 
HETATM    5  H   UNL     1     -39.912 -49.989  10.454  1.00  0.00     0.164 HD
HETATM    6  H   UNL     1     -41.476 -48.902   8.963  1.00  0.00     0.172 HD
ENDROOT
BRANCH   1   7
HETATM    7  C   UNL     1     -40.631 -50.870  12.209  1.00  0.00     0.160 C 
BRANCH   7   8
HETATM    8  C   UNL     1     -41.097 -52.346  12.122  1.00  0.00     0.240 C 
BRANCH   8   9
HETATM    9  C   UNL     1     -42.631 -52.425  12.362  1.00  0.00     0.033 C 
HETATM   10  C   UNL     1     -43.122 -51.564  13.522  1.00  0.00     0.007 C 
ENDBRANCH   8   9
BRANCH   8  11
HETATM   11  N   UNL     1     -40.287 -53.218  13.009  1.00  0.00     0.094 N 
HETATM   12  C   UNL     1     -41.043 -54.286  13.677  1.00  0.00     0.273 C 
HETATM   13  C   UNL     1     -40.362 -54.512  15.023  1.00  0.00     0.032 C 
HETATM   14  C   UNL     1     -39.112 -53.656  14.976  1.00  0.00     0.032 C 
HETATM   15  C   UNL     1     -39.492 -52.533  14.029  1.00  0.00     0.273 C 
ENDBRANCH   8  11
ENDBRANCH   7   8
ENDBRANCH   1   7
BRANCH   4  16
HETATM   16  C   UNL     1     -42.516 -47.282   9.671  1.00  0.00     0.168 A 
HETATM   17  N   UNL     1     -42.525 -46.176  10.375  1.00  0.00    -0.279 N 
HETATM   18  N   UNL     1     -43.496 -45.291   9.945  1.00  0.00    -0.303 N 
ATOM     19  HN  UNL     1     -41.889 -45.990  11.151  1.00  0.00     0.189 HD
HETATM   20  C   UNL     1     -44.174 -45.777   8.930  1.00  0.00     0.160 A 
ATOM     21  HN  UNL     1     -43.665 -44.376  10.363  1.00  0.00     0.186 HD
HETATM   22  S   UNL     1     -43.658 -47.330   8.399  1.00  0.00    -0.046 SA
ENDBRANCH   4  16
TORSDOF 5
ENDMDL
