MODEL 1
REMARK VINA RESULT:      -6.5      0.000      0.000
REMARK  4 active torsions:
REMARK  status: ('A' for Active; 'I' for Inactive)
REMARK       I    between atoms: N_2  and  C_3 
REMARK    1  A    between atoms: C_3  and  C_5 
REMARK       I    between atoms: N_8  and  C_11 
REMARK       I    between atoms: C_11  and  N_13 
REMARK    2  A    between atoms: N_13  and  C_14 
REMARK    3  A    between atoms: C_14  and  C_15 
REMARK    4  A    between atoms: C_15  and  C_16 
ROOT
HETATM    1  C   UNL     1     -46.572 -51.928  14.945  1.00  0.00     0.081 C 
HETATM    2  C   UNL     1     -46.453 -51.450  13.490  1.00  0.00     0.034 C 
HETATM    3  C   UNL     1     -44.997 -51.325  13.035  1.00  0.00     0.128 C 
HETATM    4  N   UNL     1     -44.222 -50.503  13.966  1.00  0.00    -0.334 N 
HETATM    5  C   UNL     1     -44.290 -50.905  15.369  1.00  0.00     0.128 C 
HETATM    6  C   UNL     1     -45.732 -51.024  15.855  1.00  0.00     0.034 C 
HETATM    7  C   UNL     1     -43.345 -49.491  13.622  1.00  0.00     0.318 C 
HETATM    8  O   UNL     1     -42.774 -48.791  14.457  1.00  0.00    -0.247 OA
HETATM    9  N   UNL     1     -43.149 -49.298  12.280  1.00  0.00    -0.343 N 
HETATM   10  H   UNL     1     -43.192 -50.129  11.712  1.00  0.00     0.164 HD
ENDROOT
BRANCH   9  11
HETATM   11  C   UNL     1     -42.238 -48.252  11.843  1.00  0.00     0.129 C 
BRANCH  11  12
HETATM   12  C   UNL     1     -42.239 -48.023  10.331  1.00  0.00     0.061 C 
BRANCH  12  13
HETATM   13  C   UNL     1     -43.478 -47.371   9.822  1.00  0.00    -0.023 A 
HETATM   14  C   UNL     1     -43.597 -46.105   9.203  1.00  0.00     0.115 A 
HETATM   15  N   UNL     1     -44.850 -45.822   8.846  1.00  0.00    -0.310 N 
HETATM   16  N   UNL     1     -45.544 -46.905   9.236  1.00  0.00    -0.308 N 
ATOM     17  HN  UNL     1     -45.199 -44.981   8.386  1.00  0.00     0.186 HD
HETATM   18  C   UNL     1     -46.961 -46.993   8.986  1.00  0.00     0.177 C 
HETATM   19  C   UNL     1     -44.772 -47.851   9.845  1.00  0.00     0.118 A 
ENDBRANCH  12  13
ENDBRANCH  11  12
ENDBRANCH   9  11
BRANCH   1  20
HETATM   20  C   UNL     1     -46.192 -53.405  15.067  1.00  0.00     0.221 C 
HETATM   21  N   UNL     1     -46.130 -54.086  13.872  1.00  0.00    -0.365 N 
HETATM   22  C   UNL     1     -45.719 -55.470  13.850  1.00  0.00     0.149 C 
HETATM   23  H   UNL     1     -46.095 -53.562  13.008  1.00  0.00     0.161 HD
HETATM   24  O   UNL     1     -45.930 -53.941  16.140  1.00  0.00    -0.273 OA
ENDBRANCH   1  20
TORSDOF 4
ENDMDL
MODEL 2
REMARK VINA RESULT:      -6.3      2.173      2.489
REMARK  4 active torsions:
REMARK  status: ('A' for Active; 'I' for Inactive)
REMARK       I    between atoms: N_2  and  C_3 
REMARK    1  A    between atoms: C_3  and  C_5 
REMARK       I    between atoms: N_8  and  C_11 
REMARK       I    between atoms: C_11  and  N_13 
REMARK    2  A    between atoms: N_13  and  C_14 
REMARK    3  A    between atoms: C_14  and  C_15 
REMARK    4  A    between atoms: C_15  and  C_16 
ROOT
HETATM    1  C   UNL     1     -43.131 -53.132  15.509  1.00  0.00     0.081 C 
HETATM    2  C   UNL     1     -43.589 -51.719  15.118  1.00  0.00     0.034 C 
HETATM    3  C   UNL     1     -43.519 -51.481  13.607  1.00  0.00     0.128 C 
HETATM    4  N   UNL     1     -42.194 -51.813  13.081  1.00  0.00    -0.334 N 
HETATM    5  C   UNL     1     -41.700 -53.146  13.415  1.00  0.00     0.128 C 
HETATM    6  C   UNL     1     -41.743 -53.406  14.919  1.00  0.00     0.034 C 
HETATM    7  C   UNL     1     -41.452 -51.045  12.203  1.00  0.00     0.318 C 
HETATM    8  O   UNL     1     -40.313 -51.349  11.850  1.00  0.00    -0.247 OA
HETATM    9  N   UNL     1     -42.056 -49.903  11.747  1.00  0.00    -0.343 N 
HETATM   10  H   UNL     1     -43.055 -49.959  11.631  1.00  0.00     0.164 HD
ENDROOT
BRANCH   9  11
HETATM   11  C   UNL     1     -41.335 -49.047  10.818  1.00  0.00     0.129 C 
BRANCH  11  12
HETATM   12  C   UNL     1     -41.953 -47.658  10.651  1.00  0.00     0.061 C 
BRANCH  12  13
HETATM   13  C   UNL     1     -43.187 -47.645   9.816  1.00  0.00    -0.023 A 
HETATM   14  C   UNL     1     -43.278 -47.754   8.409  1.00  0.00     0.115 A 
HETATM   15  N   UNL     1     -44.538 -47.725   7.970  1.00  0.00    -0.310 N 
HETATM   16  N   UNL     1     -45.262 -47.597   9.095  1.00  0.00    -0.308 N 
ATOM     17  HN  UNL     1     -44.872 -47.786   7.008  1.00  0.00     0.186 HD
HETATM   18  C   UNL     1     -46.702 -47.563   9.036  1.00  0.00     0.177 C 
HETATM   19  C   UNL     1     -44.499 -47.522  10.224  1.00  0.00     0.118 A 
ENDBRANCH  12  13
ENDBRANCH  11  12
ENDBRANCH   9  11
BRANCH   1  20
HETATM   20  C   UNL     1     -44.167 -54.176  15.089  1.00  0.00     0.221 C 
HETATM   21  N   UNL     1     -45.470 -53.732  15.095  1.00  0.00    -0.365 N 
HETATM   22  C   UNL     1     -46.534 -54.605  14.657  1.00  0.00     0.149 C 
HETATM   23  H   UNL     1     -45.651 -52.738  15.131  1.00  0.00     0.161 HD
HETATM   24  O   UNL     1     -43.866 -55.315  14.743  1.00  0.00    -0.273 OA
ENDBRANCH   1  20
TORSDOF 4
ENDMDL
MODEL 3
REMARK VINA RESULT:      -6.1      3.394      4.521
REMARK  4 active torsions:
REMARK  status: ('A' for Active; 'I' for Inactive)
REMARK       I    between atoms: N_2  and  C_3 
REMARK    1  A    between atoms: C_3  and  C_5 
REMARK       I    between atoms: N_8  and  C_11 
REMARK       I    between atoms: C_11  and  N_13 
REMARK    2  A    between atoms: N_13  and  C_14 
REMARK    3  A    between atoms: C_14  and  C_15 
REMARK    4  A    between atoms: C_15  and  C_16 
ROOT
HETATM    1  C   UNL     1     -43.938 -53.809  14.782  1.00  0.00     0.081 C 
HETATM    2  C   UNL     1     -43.420 -52.421  15.191  1.00  0.00     0.034 C 
HETATM    3  C   UNL     1     -42.464 -51.828  14.153  1.00  0.00     0.128 C 
HETATM    4  N   UNL     1     -41.384 -52.763  13.834  1.00  0.00    -0.334 N 
HETATM    5  C   UNL     1     -41.809 -54.103  13.436  1.00  0.00     0.128 C 
HETATM    6  C   UNL     1     -42.753 -54.726  14.460  1.00  0.00     0.034 C 
HETATM    7  C   UNL     1     -40.040 -52.454  13.747  1.00  0.00     0.318 C 
HETATM    8  O   UNL     1     -39.173 -53.303  13.540  1.00  0.00    -0.247 OA
HETATM    9  N   UNL     1     -39.716 -51.134  13.915  1.00  0.00    -0.343 N 
HETATM   10  H   UNL     1     -40.397 -50.474  13.576  1.00  0.00     0.164 HD
ENDROOT
BRANCH   9  11
HETATM   11  C   UNL     1     -38.320 -50.734  13.834  1.00  0.00     0.129 C 
BRANCH  11  12
HETATM   12  C   UNL     1     -37.949 -50.052  12.516  1.00  0.00     0.061 C 
BRANCH  12  13
HETATM   13  C   UNL     1     -39.092 -49.362  11.854  1.00  0.00    -0.023 A 
HETATM   14  C   UNL     1     -40.048 -49.923  10.976  1.00  0.00     0.115 A 
HETATM   15  N   UNL     1     -40.957 -49.036  10.570  1.00  0.00    -0.310 N 
HETATM   16  N   UNL     1     -40.588 -47.899  11.185  1.00  0.00    -0.308 N 
ATOM     17  HN  UNL     1     -41.746 -49.185   9.941  1.00  0.00     0.186 HD
HETATM   18  C   UNL     1     -41.363 -46.694  11.018  1.00  0.00     0.177 C 
HETATM   19  C   UNL     1     -39.465 -48.037  11.947  1.00  0.00     0.118 A 
ENDBRANCH  12  13
ENDBRANCH  11  12
ENDBRANCH   9  11
BRANCH   1  20
HETATM   20  C   UNL     1     -44.933 -53.701  13.625  1.00  0.00     0.221 C 
HETATM   21  N   UNL     1     -45.560 -52.480  13.514  1.00  0.00    -0.365 N 
HETATM   22  C   UNL     1     -46.473 -52.233  12.423  1.00  0.00     0.149 C 
HETATM   23  H   UNL     1     -45.180 -51.685  14.010  1.00  0.00     0.161 HD
HETATM   24  O   UNL     1     -45.139 -54.616  12.834  1.00  0.00    -0.273 OA
ENDBRANCH   1  20
TORSDOF 4
ENDMDL
MODEL 4
REMARK VINA RESULT:      -6.1      3.487      4.935
REMARK  4 active torsions:
REMARK  status: ('A' for Active; 'I' for Inactive)
REMARK       I    between atoms: N_2  and  C_3 
REMARK    1  A    between atoms: C_3  and  C_5 
REMARK       I    between atoms: N_8  and  C_11 
REMARK       I    between atoms: C_11  and  N_13 
REMARK    2  A    between atoms: N_13  and  C_14 
REMARK    3  A    between atoms: C_14  and  C_15 
REMARK    4  A    between atoms: C_15  and  C_16 
ROOT
HETATM    1  C   UNL     1     -45.313 -53.370  13.704  1.00  0.00     0.081 C 
HETATM    2  C   UNL     1     -44.515 -52.851  14.910  1.00  0.00     0.034 C 
HETATM    3  C   UNL     1     -43.367 -51.927  14.495  1.00  0.00     0.128 C 
HETATM    4  N   UNL     1     -42.519 -52.560  13.484  1.00  0.00    -0.334 N 
HETATM    5  C   UNL     1     -43.216 -53.074  12.308  1.00  0.00     0.128 C 
HETATM    6  C   UNL     1     -44.358 -54.012  12.692  1.00  0.00     0.034 C 
HETATM    7  C   UNL     1     -41.137 -52.588  13.485  1.00  0.00     0.318 C 
HETATM    8  O   UNL     1     -40.482 -53.197  12.638  1.00  0.00    -0.247 OA
HETATM    9  N   UNL     1     -40.523 -51.900  14.498  1.00  0.00    -0.343 N 
HETATM   10  H   UNL     1     -40.999 -51.069  14.808  1.00  0.00     0.164 HD
ENDROOT
BRANCH   9  11
HETATM   11  C   UNL     1     -39.070 -51.884  14.560  1.00  0.00     0.129 C 
BRANCH  11  12
HETATM   12  C   UNL     1     -38.466 -50.480  14.508  1.00  0.00     0.061 C 
BRANCH  12  13
HETATM   13  C   UNL     1     -38.839 -49.709  13.289  1.00  0.00    -0.023 A 
HETATM   14  C   UNL     1     -38.550 -50.030  11.942  1.00  0.00     0.115 A 
HETATM   15  N   UNL     1     -39.043 -49.138  11.082  1.00  0.00    -0.310 N 
HETATM   16  N   UNL     1     -39.652 -48.238  11.874  1.00  0.00    -0.308 N 
ATOM     17  HN  UNL     1     -38.975 -49.138  10.065  1.00  0.00     0.186 HD
HETATM   18  C   UNL     1     -40.350 -47.115  11.300  1.00  0.00     0.177 C 
HETATM   19  C   UNL     1     -39.539 -48.523  13.203  1.00  0.00     0.118 A 
ENDBRANCH  12  13
ENDBRANCH  11  12
ENDBRANCH   9  11
BRANCH   1  20
HETATM   20  C   UNL     1     -46.160 -52.254  13.091  1.00  0.00     0.221 C 
HETATM   21  N   UNL     1     -46.505 -52.448  11.773  1.00  0.00    -0.365 N 
HETATM   22  C   UNL     1     -47.358 -51.496  11.100  1.00  0.00     0.149 C 
HETATM   23  H   UNL     1     -46.405 -53.370  11.369  1.00  0.00     0.161 HD
HETATM   24  O   UNL     1     -46.534 -51.272  13.727  1.00  0.00    -0.273 OA
ENDBRANCH   1  20
TORSDOF 4
ENDMDL
MODEL 5
REMARK VINA RESULT:      -6.1      2.963      7.371
REMARK  4 active torsions:
REMARK  status: ('A' for Active; 'I' for Inactive)
REMARK       I    between atoms: N_2  and  C_3 
REMARK    1  A    between atoms: C_3  and  C_5 
REMARK       I    between atoms: N_8  and  C_11 
REMARK       I    between atoms: C_11  and  N_13 
REMARK    2  A    between atoms: N_13  and  C_14 
REMARK    3  A    between atoms: C_14  and  C_15 
REMARK    4  A    between atoms: C_15  and  C_16 
ROOT
HETATM    1  C   UNL     1     -42.370 -47.130  11.205  1.00  0.00     0.081 C 
HETATM    2  C   UNL     1     -41.038 -47.872  11.013  1.00  0.00     0.034 C 
HETATM    3  C   UNL     1     -41.175 -49.380  11.236  1.00  0.00     0.128 C 
HETATM    4  N   UNL     1     -41.803 -49.668  12.527  1.00  0.00    -0.334 N 
HETATM    5  C   UNL     1     -43.075 -48.995  12.773  1.00  0.00     0.128 C 
HETATM    6  C   UNL     1     -42.966 -47.486  12.572  1.00  0.00     0.034 C 
HETATM    7  C   UNL     1     -41.374 -50.605  13.448  1.00  0.00     0.318 C 
HETATM    8  O   UNL     1     -41.908 -50.752  14.547  1.00  0.00    -0.247 OA
HETATM    9  N   UNL     1     -40.298 -51.367  13.074  1.00  0.00    -0.343 N 
HETATM   10  H   UNL     1     -40.240 -51.579  12.091  1.00  0.00     0.164 HD
ENDROOT
BRANCH   9  11
HETATM   11  C   UNL     1     -39.794 -52.375  13.993  1.00  0.00     0.129 C 
BRANCH  11  12
HETATM   12  C   UNL     1     -40.159 -53.808  13.599  1.00  0.00     0.061 C 
BRANCH  12  13
HETATM   13  C   UNL     1     -41.532 -54.214  14.013  1.00  0.00    -0.023 A 
HETATM   14  C   UNL     1     -41.934 -54.756  15.256  1.00  0.00     0.115 A 
HETATM   15  N   UNL     1     -43.245 -54.996  15.313  1.00  0.00    -0.310 N 
HETATM   16  N   UNL     1     -43.691 -54.609  14.106  1.00  0.00    -0.308 N 
ATOM     17  HN  UNL     1     -43.782 -55.381  16.090  1.00  0.00     0.186 HD
HETATM   18  C   UNL     1     -45.096 -54.683  13.789  1.00  0.00     0.177 C 
HETATM   19  C   UNL     1     -42.702 -54.154  13.284  1.00  0.00     0.118 A 
ENDBRANCH  12  13
ENDBRANCH  11  12
ENDBRANCH   9  11
BRANCH   1  20
HETATM   20  C   UNL     1     -43.328 -47.422  10.049  1.00  0.00     0.221 C 
HETATM   21  N   UNL     1     -42.725 -47.561   8.820  1.00  0.00    -0.365 N 
HETATM   22  C   UNL     1     -43.516 -47.902   7.661  1.00  0.00     0.149 C 
HETATM   23  H   UNL     1     -41.725 -47.703   8.776  1.00  0.00     0.161 HD
HETATM   24  O   UNL     1     -44.539 -47.555  10.202  1.00  0.00    -0.273 OA
ENDBRANCH   1  20
TORSDOF 4
ENDMDL
MODEL 6
REMARK VINA RESULT:      -6.0      2.353      4.216
REMARK  4 active torsions:
REMARK  status: ('A' for Active; 'I' for Inactive)
REMARK       I    between atoms: N_2  and  C_3 
REMARK    1  A    between atoms: C_3  and  C_5 
REMARK       I    between atoms: N_8  and  C_11 
REMARK       I    between atoms: C_11  and  N_13 
REMARK    2  A    between atoms: N_13  and  C_14 
REMARK    3  A    between atoms: C_14  and  C_15 
REMARK    4  A    between atoms: C_15  and  C_16 
ROOT
HETATM    1  C   UNL     1     -46.614 -51.941  14.898  1.00  0.00     0.081 C 
HETATM    2  C   UNL     1     -46.494 -51.485  13.435  1.00  0.00     0.034 C 
HETATM    3  C   UNL     1     -45.037 -51.362  12.982  1.00  0.00     0.128 C 
HETATM    4  N   UNL     1     -44.267 -50.523  13.901  1.00  0.00    -0.334 N 
HETATM    5  C   UNL     1     -44.337 -50.904  15.310  1.00  0.00     0.128 C 
HETATM    6  C   UNL     1     -45.779 -51.020  15.795  1.00  0.00     0.034 C 
HETATM    7  C   UNL     1     -43.393 -49.514  13.542  1.00  0.00     0.318 C 
HETATM    8  O   UNL     1     -42.826 -48.799  14.368  1.00  0.00    -0.247 OA
HETATM    9  N   UNL     1     -43.195 -49.341  12.198  1.00  0.00    -0.343 N 
HETATM   10  H   UNL     1     -43.234 -50.180  11.643  1.00  0.00     0.164 HD
ENDROOT
BRANCH   9  11
HETATM   11  C   UNL     1     -42.287 -48.299  11.747  1.00  0.00     0.129 C 
BRANCH  11  12
HETATM   12  C   UNL     1     -41.066 -48.828  10.992  1.00  0.00     0.061 C 
BRANCH  12  13
HETATM   13  C   UNL     1     -39.827 -48.887  11.818  1.00  0.00    -0.023 A 
HETATM   14  C   UNL     1     -38.732 -49.769  11.669  1.00  0.00     0.115 A 
HETATM   15  N   UNL     1     -37.768 -49.549  12.564  1.00  0.00    -0.310 N 
HETATM   16  N   UNL     1     -38.241 -48.523  13.293  1.00  0.00    -0.308 N 
ATOM     17  HN  UNL     1     -36.881 -50.042  12.670  1.00  0.00     0.186 HD
HETATM   18  C   UNL     1     -37.452 -47.962  14.361  1.00  0.00     0.177 C 
HETATM   19  C   UNL     1     -39.479 -48.106  12.900  1.00  0.00     0.118 A 
ENDBRANCH  12  13
ENDBRANCH  11  12
ENDBRANCH   9  11
BRANCH   1  20
HETATM   20  C   UNL     1     -46.229 -53.414  15.043  1.00  0.00     0.221 C 
HETATM   21  N   UNL     1     -46.132 -54.106  13.857  1.00  0.00    -0.365 N 
HETATM   22  C   UNL     1     -45.713 -55.488  13.859  1.00  0.00     0.149 C 
HETATM   23  H   UNL     1     -46.078 -53.590  12.989  1.00  0.00     0.161 HD
HETATM   24  O   UNL     1     -45.992 -53.939  16.128  1.00  0.00    -0.273 OA
ENDBRANCH   1  20
TORSDOF 4
ENDMDL
MODEL 7
REMARK VINA RESULT:      -5.8      4.365      7.897
REMARK  4 active torsions:
REMARK  status: ('A' for Active; 'I' for Inactive)
REMARK       I    between atoms: N_2  and  C_3 
REMARK    1  A    between atoms: C_3  and  C_5 
REMARK       I    between atoms: N_8  and  C_11 
REMARK       I    between atoms: C_11  and  N_13 
REMARK    2  A    between atoms: N_13  and  C_14 
REMARK    3  A    between atoms: C_14  and  C_15 
REMARK    4  A    between atoms: C_15  and  C_16 
ROOT
HETATM    1  C   UNL     1     -38.616 -49.035  12.263  1.00  0.00     0.081 C 
HETATM    2  C   UNL     1     -40.096 -49.449  12.279  1.00  0.00     0.034 C 
HETATM    3  C   UNL     1     -40.422 -50.402  13.431  1.00  0.00     0.128 C 
HETATM    4  N   UNL     1     -39.513 -51.550  13.440  1.00  0.00    -0.334 N 
HETATM    5  C   UNL     1     -38.089 -51.226  13.428  1.00  0.00     0.128 C 
HETATM    6  C   UNL     1     -37.731 -50.287  12.279  1.00  0.00     0.034 C 
HETATM    7  C   UNL     1     -39.878 -52.874  13.595  1.00  0.00     0.318 C 
HETATM    8  O   UNL     1     -39.070 -53.800  13.525  1.00  0.00    -0.247 OA
HETATM    9  N   UNL     1     -41.208 -53.108  13.823  1.00  0.00    -0.343 N 
HETATM   10  H   UNL     1     -41.687 -52.399  14.354  1.00  0.00     0.164 HD
ENDROOT
BRANCH   9  11
HETATM   11  C   UNL     1     -41.664 -54.478  13.998  1.00  0.00     0.129 C 
BRANCH  11  12
HETATM   12  C   UNL     1     -42.837 -54.619  14.969  1.00  0.00     0.061 C 
BRANCH  12  13
HETATM   13  C   UNL     1     -44.092 -53.969  14.494  1.00  0.00    -0.023 A 
HETATM   14  C   UNL     1     -45.041 -54.486  13.583  1.00  0.00     0.115 A 
HETATM   15  N   UNL     1     -46.067 -53.657  13.381  1.00  0.00    -0.310 N 
HETATM   16  N   UNL     1     -45.779 -52.602  14.163  1.00  0.00    -0.308 N 
ATOM     17  HN  UNL     1     -46.877 -53.792  12.777  1.00  0.00     0.186 HD
HETATM   18  C   UNL     1     -46.689 -51.486  14.245  1.00  0.00     0.177 C 
HETATM   19  C   UNL     1     -44.597 -52.730  14.832  1.00  0.00     0.118 A 
ENDBRANCH  12  13
ENDBRANCH  11  12
ENDBRANCH   9  11
BRANCH   1  20
HETATM   20  C   UNL     1     -38.306 -48.078  13.415  1.00  0.00     0.221 C 
HETATM   21  N   UNL     1     -39.231 -47.076  13.599  1.00  0.00    -0.365 N 
HETATM   22  C   UNL     1     -39.082 -46.148  14.695  1.00  0.00     0.149 C 
HETATM   23  H   UNL     1     -40.138 -47.157  13.160  1.00  0.00     0.161 HD
HETATM   24  O   UNL     1     -37.325 -48.205  14.143  1.00  0.00    -0.273 OA
ENDBRANCH   1  20
TORSDOF 4
ENDMDL
MODEL 8
REMARK VINA RESULT:      -5.7      4.407      6.279
REMARK  4 active torsions:
REMARK  status: ('A' for Active; 'I' for Inactive)
REMARK       I    between atoms: N_2  and  C_3 
REMARK    1  A    between atoms: C_3  and  C_5 
REMARK       I    between atoms: N_8  and  C_11 
REMARK       I    between atoms: C_11  and  N_13 
REMARK    2  A    between atoms: N_13  and  C_14 
REMARK    3  A    between atoms: C_14  and  C_15 
REMARK    4  A    between atoms: C_15  and  C_16 
ROOT
HETATM    1  C   UNL     1     -44.361 -52.221  14.055  1.00  0.00     0.081 C 
HETATM    2  C   UNL     1     -43.674 -50.874  13.782  1.00  0.00     0.034 C 
HETATM    3  C   UNL     1     -42.651 -50.963  12.647  1.00  0.00     0.128 C 
HETATM    4  N   UNL     1     -41.696 -52.048  12.880  1.00  0.00    -0.334 N 
HETATM    5  C   UNL     1     -42.285 -53.358  13.145  1.00  0.00     0.128 C 
HETATM    6  C   UNL     1     -43.300 -53.304  14.283  1.00  0.00     0.034 C 
HETATM    7  C   UNL     1     -40.324 -51.968  12.737  1.00  0.00     0.318 C 
HETATM    8  O   UNL     1     -39.570 -52.901  13.014  1.00  0.00    -0.247 OA
HETATM    9  N   UNL     1     -39.837 -50.775  12.273  1.00  0.00    -0.343 N 
HETATM   10  H   UNL     1     -40.430 -50.290  11.619  1.00  0.00     0.164 HD
ENDROOT
BRANCH   9  11
HETATM   11  C   UNL     1     -38.402 -50.620  12.096  1.00  0.00     0.129 C 
BRANCH  11  12
HETATM   12  C   UNL     1     -37.879 -49.233  12.475  1.00  0.00     0.061 C 
BRANCH  12  13
HETATM   13  C   UNL     1     -37.642 -49.060  13.937  1.00  0.00    -0.023 A 
HETATM   14  C   UNL     1     -37.349 -50.063  14.889  1.00  0.00     0.115 A 
HETATM   15  N   UNL     1     -37.174 -49.573  16.117  1.00  0.00    -0.310 N 
HETATM   16  N   UNL     1     -37.353 -48.250  15.958  1.00  0.00    -0.308 N 
ATOM     17  HN  UNL     1     -36.955 -50.081  16.974  1.00  0.00     0.186 HD
HETATM   18  C   UNL     1     -37.207 -47.355  17.079  1.00  0.00     0.177 C 
HETATM   19  C   UNL     1     -37.657 -47.896  14.676  1.00  0.00     0.118 A 
ENDBRANCH  12  13
ENDBRANCH  11  12
ENDBRANCH   9  11
BRANCH   1  20
HETATM   20  C   UNL     1     -45.334 -52.576  12.929  1.00  0.00     0.221 C 
HETATM   21  N   UNL     1     -46.126 -51.534  12.501  1.00  0.00    -0.365 N 
HETATM   22  C   UNL     1     -47.039 -51.727  11.399  1.00  0.00     0.149 C 
HETATM   23  H   UNL     1     -45.875 -50.588  12.756  1.00  0.00     0.161 HD
HETATM   24  O   UNL     1     -45.389 -53.692  12.420  1.00  0.00    -0.273 OA
ENDBRANCH   1  20
TORSDOF 4
ENDMDL
MODEL 9
REMARK VINA RESULT:      -5.6      2.957      4.872
REMARK  4 active torsions:
REMARK  status: ('A' for Active; 'I' for Inactive)
REMARK       I    between atoms: N_2  and  C_3 
REMARK    1  A    between atoms: C_3  and  C_5 
REMARK       I    between atoms: N_8  and  C_11 
REMARK       I    between atoms: C_11  and  N_13 
REMARK    2  A    between atoms: N_13  and  C_14 
REMARK    3  A    between atoms: C_14  and  C_15 
REMARK    4  A    between atoms: C_15  and  C_16 
ROOT
HETATM    1  C   UNL     1     -46.802 -52.164  15.357  1.00  0.00     0.081 C 
HETATM    2  C   UNL     1     -46.418 -52.235  13.871  1.00  0.00     0.034 C 
HETATM    3  C   UNL     1     -44.907 -52.128  13.655  1.00  0.00     0.128 C 
HETATM    4  N   UNL     1     -44.360 -50.947  14.324  1.00  0.00    -0.334 N 
HETATM    5  C   UNL     1     -44.687 -50.819  15.742  1.00  0.00     0.128 C 
HETATM    6  C   UNL     1     -46.191 -50.907  15.987  1.00  0.00     0.034 C 
HETATM    7  C   UNL     1     -43.471 -50.041  13.777  1.00  0.00     0.318 C 
HETATM    8  O   UNL     1     -43.100 -49.029  14.371  1.00  0.00    -0.247 OA
HETATM    9  N   UNL     1     -43.023 -50.327  12.514  1.00  0.00    -0.343 N 
HETATM   10  H   UNL     1     -42.923 -51.306  12.302  1.00  0.00     0.164 HD
ENDROOT
BRANCH   9  11
HETATM   11  C   UNL     1     -42.083 -49.419  11.877  1.00  0.00     0.129 C 
BRANCH  11  12
HETATM   12  C   UNL     1     -40.709 -50.038  11.613  1.00  0.00     0.061 C 
BRANCH  12  13
HETATM   13  C   UNL     1     -40.565 -51.427  12.134  1.00  0.00    -0.023 A 
HETATM   14  C   UNL     1     -41.125 -52.611  11.602  1.00  0.00     0.115 A 
HETATM   15  N   UNL     1     -40.789 -53.698  12.298  1.00  0.00    -0.310 N 
HETATM   16  N   UNL     1     -40.011 -53.216  13.282  1.00  0.00    -0.308 N 
ATOM     17  HN  UNL     1     -41.058 -54.666  12.124  1.00  0.00     0.186 HD
HETATM   18  C   UNL     1     -39.411 -54.109  14.242  1.00  0.00     0.177 C 
HETATM   19  C   UNL     1     -39.864 -51.860  13.240  1.00  0.00     0.118 A 
ENDBRANCH  12  13
ENDBRANCH  11  12
ENDBRANCH   9  11
BRANCH   1  20
HETATM   20  C   UNL     1     -46.399 -53.446  16.087  1.00  0.00     0.221 C 
HETATM   21  N   UNL     1     -46.207 -53.303  17.443  1.00  0.00    -0.365 N 
HETATM   22  C   UNL     1     -45.887 -54.455  18.253  1.00  0.00     0.149 C 
HETATM   23  H   UNL     1     -46.559 -52.475  17.905  1.00  0.00     0.161 HD
HETATM   24  O   UNL     1     -46.283 -54.529  15.521  1.00  0.00    -0.273 OA
ENDBRANCH   1  20
TORSDOF 4
ENDMDL
