MODEL 1
REMARK VINA RESULT:      -6.9      0.000      0.000
REMARK  5 active torsions:
REMARK  status: ('A' for Active; 'I' for Inactive)
REMARK    1  A    between atoms: N_4  and  C_5 
REMARK    2  A    between atoms: C_5  and  C_6 
REMARK    3  A    between atoms: C_6  and  C_7 
REMARK    4  A    between atoms: C_7  and  N_8 
REMARK       I    between atoms: N_8  and  C_9 
REMARK       I    between atoms: C_9  and  N_11 
REMARK    5  A    between atoms: N_11  and  C_12 
ROOT
HETATM    1  N   UNL     1     -40.508 -49.960  10.748  1.00  0.00    -0.343 N 
HETATM    2  C   UNL     1     -41.399 -48.930  10.971  1.00  0.00     0.320 C 
HETATM    3  O   UNL     1     -41.919 -48.756  12.063  1.00  0.00    -0.247 OA
HETATM    4  N   UNL     1     -41.614 -48.181   9.834  1.00  0.00    -0.308 N 
HETATM    5  H   UNL     1     -39.802 -49.756  10.056  1.00  0.00     0.164 HD
HETATM    6  H   UNL     1     -41.406 -48.651   8.968  1.00  0.00     0.170 HD
ENDROOT
BRANCH   1   7
HETATM    7  C   UNL     1     -40.124 -50.754  11.900  1.00  0.00     0.126 C 
BRANCH   7   8
HETATM    8  C   UNL     1     -41.053 -51.924  12.188  1.00  0.00     0.050 C 
BRANCH   8   9
HETATM    9  C   UNL     1     -41.654 -51.846  13.597  1.00  0.00     0.274 C 
BRANCH   9  10
HETATM   10  N   UNL     1     -42.950 -52.529  13.708  1.00  0.00     0.093 N 
HETATM   11  C   UNL     1     -42.993 -53.792  12.939  1.00  0.00     0.303 C 
HETATM   12  C   UNL     1     -44.369 -54.480  13.047  1.00  0.00     0.146 C 
HETATM   13  C   UNL     1     -44.643 -55.023  14.451  1.00  0.00     0.041 C 
HETATM   14  O   UNL     1     -45.418 -53.606  12.602  1.00  0.00    -0.378 OA
HETATM   15  C   UNL     1     -45.413 -52.343  13.288  1.00  0.00     0.146 C 
HETATM   16  C   UNL     1     -44.034 -51.655  13.200  1.00  0.00     0.303 C 
HETATM   17  C   UNL     1     -46.491 -51.478  12.648  1.00  0.00     0.041 C 
ENDBRANCH   9  10
ENDBRANCH   8   9
ENDBRANCH   7   8
ENDBRANCH   1   7
BRANCH   4  18
HETATM   18  C   UNL     1     -42.396 -47.000   9.779  1.00  0.00     0.044 A 
HETATM   19  C   UNL     1     -42.124 -45.916  10.620  1.00  0.00     0.047 A 
HETATM   20  C   UNL     1     -42.920 -44.788  10.549  1.00  0.00     0.090 A 
HETATM   21  N   UNL     1     -43.938 -44.649   9.684  1.00  0.00    -0.375 N 
HETATM   22  C   UNL     1     -44.174 -45.694   8.864  1.00  0.00     0.096 A 
ATOM     23  HN  UNL     1     -44.501 -43.799   9.650  1.00  0.00     0.164 HD
HETATM   24  C   UNL     1     -43.454 -46.891   8.864  1.00  0.00    -0.020 A 
HETATM   25  C   UNL     1     -43.838 -47.958   7.884  1.00  0.00     0.052 C 
ENDBRANCH   4  18
TORSDOF 5
ENDMDL
MODEL 2
REMARK VINA RESULT:      -6.7      1.976      7.500
REMARK  5 active torsions:
REMARK  status: ('A' for Active; 'I' for Inactive)
REMARK    1  A    between atoms: N_4  and  C_5 
REMARK    2  A    between atoms: C_5  and  C_6 
REMARK    3  A    between atoms: C_6  and  C_7 
REMARK    4  A    between atoms: C_7  and  N_8 
REMARK       I    between atoms: N_8  and  C_9 
REMARK       I    between atoms: C_9  and  N_11 
REMARK    5  A    between atoms: N_11  and  C_12 
ROOT
HETATM    1  N   UNL     1     -41.392 -51.866  11.544  1.00  0.00    -0.343 N 
HETATM    2  C   UNL     1     -42.207 -52.367  12.540  1.00  0.00     0.320 C 
HETATM    3  O   UNL     1     -41.874 -52.339  13.715  1.00  0.00    -0.247 OA
HETATM    4  N   UNL     1     -43.377 -52.886  12.033  1.00  0.00    -0.308 N 
HETATM    5  H   UNL     1     -41.889 -51.488  10.752  1.00  0.00     0.164 HD
HETATM    6  H   UNL     1     -43.340 -53.153  11.062  1.00  0.00     0.170 HD
ENDROOT
BRANCH   1   7
HETATM    7  C   UNL     1     -40.175 -51.198  11.968  1.00  0.00     0.126 C 
BRANCH   7   8
HETATM    8  C   UNL     1     -39.958 -49.835  11.327  1.00  0.00     0.050 C 
BRANCH   8   9
HETATM    9  C   UNL     1     -40.871 -48.762  11.935  1.00  0.00     0.274 C 
BRANCH   9  10
HETATM   10  N   UNL     1     -40.941 -47.540  11.124  1.00  0.00     0.093 N 
HETATM   11  C   UNL     1     -40.768 -46.313  11.933  1.00  0.00     0.303 C 
HETATM   12  C   UNL     1     -40.871 -45.040  11.067  1.00  0.00     0.146 C 
HETATM   13  C   UNL     1     -39.687 -44.886  10.110  1.00  0.00     0.041 C 
HETATM   14  O   UNL     1     -42.127 -44.990  10.372  1.00  0.00    -0.378 OA
HETATM   15  C   UNL     1     -42.372 -46.170   9.591  1.00  0.00     0.146 C 
HETATM   16  C   UNL     1     -42.255 -47.451  10.445  1.00  0.00     0.303 C 
HETATM   17  C   UNL     1     -43.772 -46.039   9.003  1.00  0.00     0.041 C 
ENDBRANCH   9  10
ENDBRANCH   8   9
ENDBRANCH   7   8
ENDBRANCH   1   7
BRANCH   4  18
HETATM   18  C   UNL     1     -44.452 -53.377  12.817  1.00  0.00     0.044 A 
HETATM   19  C   UNL     1     -44.535 -54.731  13.157  1.00  0.00     0.047 A 
HETATM   20  C   UNL     1     -45.607 -55.176  13.908  1.00  0.00     0.090 A 
HETATM   21  N   UNL     1     -46.578 -54.370  14.369  1.00  0.00    -0.375 N 
HETATM   22  C   UNL     1     -46.472 -53.062  14.051  1.00  0.00     0.096 A 
ATOM     23  HN  UNL     1     -47.352 -54.727  14.929  1.00  0.00     0.164 HD
HETATM   24  C   UNL     1     -45.449 -52.506  13.279  1.00  0.00    -0.020 A 
HETATM   25  C   UNL     1     -45.471 -51.031  13.018  1.00  0.00     0.052 C 
ENDBRANCH   4  18
TORSDOF 5
ENDMDL
MODEL 3
REMARK VINA RESULT:      -6.6      1.417      2.266
REMARK  5 active torsions:
REMARK  status: ('A' for Active; 'I' for Inactive)
REMARK    1  A    between atoms: N_4  and  C_5 
REMARK    2  A    between atoms: C_5  and  C_6 
REMARK    3  A    between atoms: C_6  and  C_7 
REMARK    4  A    between atoms: C_7  and  N_8 
REMARK       I    between atoms: N_8  and  C_9 
REMARK       I    between atoms: C_9  and  N_11 
REMARK    5  A    between atoms: N_11  and  C_12 
ROOT
HETATM    1  N   UNL     1     -40.494 -50.204  11.061  1.00  0.00    -0.343 N 
HETATM    2  C   UNL     1     -41.480 -49.240  11.135  1.00  0.00     0.320 C 
HETATM    3  O   UNL     1     -42.152 -49.086  12.144  1.00  0.00    -0.247 OA
HETATM    4  N   UNL     1     -41.595 -48.531   9.960  1.00  0.00    -0.308 N 
HETATM    5  H   UNL     1     -39.719 -49.960  10.463  1.00  0.00     0.164 HD
HETATM    6  H   UNL     1     -41.239 -49.000   9.142  1.00  0.00     0.170 HD
ENDROOT
BRANCH   1   7
HETATM    7  C   UNL     1     -40.211 -50.945  12.276  1.00  0.00     0.126 C 
BRANCH   7   8
HETATM    8  C   UNL     1     -40.652 -52.401  12.234  1.00  0.00     0.050 C 
BRANCH   8   9
HETATM    9  C   UNL     1     -42.180 -52.537  12.199  1.00  0.00     0.274 C 
BRANCH   9  10
HETATM   10  N   UNL     1     -42.727 -53.191  13.394  1.00  0.00     0.093 N 
HETATM   11  C   UNL     1     -41.797 -54.185  13.973  1.00  0.00     0.303 C 
HETATM   12  C   UNL     1     -42.401 -54.879  15.211  1.00  0.00     0.146 C 
HETATM   13  C   UNL     1     -42.539 -53.931  16.404  1.00  0.00     0.041 C 
HETATM   14  O   UNL     1     -43.649 -55.512  14.889  1.00  0.00    -0.378 OA
HETATM   15  C   UNL     1     -44.590 -54.606  14.291  1.00  0.00     0.146 C 
HETATM   16  C   UNL     1     -43.989 -53.894  13.061  1.00  0.00     0.303 C 
HETATM   17  C   UNL     1     -45.816 -55.422  13.899  1.00  0.00     0.041 C 
ENDBRANCH   9  10
ENDBRANCH   8   9
ENDBRANCH   7   8
ENDBRANCH   1   7
BRANCH   4  18
HETATM   18  C   UNL     1     -42.446 -47.414   9.768  1.00  0.00     0.044 A 
HETATM   19  C   UNL     1     -43.684 -47.554   9.131  1.00  0.00     0.047 A 
HETATM   20  C   UNL     1     -44.479 -46.439   8.946  1.00  0.00     0.090 A 
HETATM   21  N   UNL     1     -44.149 -45.209   9.375  1.00  0.00    -0.375 N 
HETATM   22  C   UNL     1     -42.962 -45.095  10.007  1.00  0.00     0.096 A 
ATOM     23  HN  UNL     1     -44.762 -44.407   9.232  1.00  0.00     0.164 HD
HETATM   24  C   UNL     1     -42.068 -46.145  10.228  1.00  0.00    -0.020 A 
HETATM   25  C   UNL     1     -40.788 -45.855  10.952  1.00  0.00     0.052 C 
ENDBRANCH   4  18
TORSDOF 5
ENDMDL
MODEL 4
REMARK VINA RESULT:      -6.4      0.998      1.964
REMARK  5 active torsions:
REMARK  status: ('A' for Active; 'I' for Inactive)
REMARK    1  A    between atoms: N_4  and  C_5 
REMARK    2  A    between atoms: C_5  and  C_6 
REMARK    3  A    between atoms: C_6  and  C_7 
REMARK    4  A    between atoms: C_7  and  N_8 
REMARK       I    between atoms: N_8  and  C_9 
REMARK       I    between atoms: C_9  and  N_11 
REMARK    5  A    between atoms: N_11  and  C_12 
ROOT
HETATM    1  N   UNL     1     -40.326 -49.926  10.796  1.00  0.00    -0.343 N 
HETATM    2  C   UNL     1     -41.086 -48.801  11.047  1.00  0.00     0.320 C 
HETATM    3  O   UNL     1     -41.216 -48.355  12.177  1.00  0.00    -0.247 OA
HETATM    4  N   UNL     1     -41.656 -48.298   9.899  1.00  0.00    -0.308 N 
HETATM    5  H   UNL     1     -39.885 -49.934   9.888  1.00  0.00     0.164 HD
HETATM    6  H   UNL     1     -41.748 -48.959   9.144  1.00  0.00     0.170 HD
ENDROOT
BRANCH   1   7
HETATM    7  C   UNL     1     -39.591 -50.484  11.916  1.00  0.00     0.126 C 
BRANCH   7   8
HETATM    8  C   UNL     1     -40.267 -51.680  12.570  1.00  0.00     0.050 C 
BRANCH   8   9
HETATM    9  C   UNL     1     -41.319 -52.318  11.651  1.00  0.00     0.274 C 
BRANCH   9  10
HETATM   10  N   UNL     1     -42.515 -52.770  12.374  1.00  0.00     0.093 N 
HETATM   11  C   UNL     1     -43.208 -51.664  13.070  1.00  0.00     0.303 C 
HETATM   12  C   UNL     1     -44.446 -52.164  13.844  1.00  0.00     0.146 C 
HETATM   13  C   UNL     1     -45.569 -52.627  12.914  1.00  0.00     0.041 C 
HETATM   14  O   UNL     1     -44.085 -53.182  14.790  1.00  0.00    -0.378 OA
HETATM   15  C   UNL     1     -43.377 -54.275  14.182  1.00  0.00     0.146 C 
HETATM   16  C   UNL     1     -42.146 -53.782  13.391  1.00  0.00     0.303 C 
HETATM   17  C   UNL     1     -42.958 -55.220  15.301  1.00  0.00     0.041 C 
ENDBRANCH   9  10
ENDBRANCH   8   9
ENDBRANCH   7   8
ENDBRANCH   1   7
BRANCH   4  18
HETATM   18  C   UNL     1     -42.403 -47.096   9.825  1.00  0.00     0.044 A 
HETATM   19  C   UNL     1     -42.143 -46.032  10.696  1.00  0.00     0.047 A 
HETATM   20  C   UNL     1     -42.904 -44.882  10.606  1.00  0.00     0.090 A 
HETATM   21  N   UNL     1     -43.876 -44.702   9.696  1.00  0.00    -0.375 N 
HETATM   22  C   UNL     1     -44.100 -45.728   8.848  1.00  0.00     0.096 A 
ATOM     23  HN  UNL     1     -44.414 -43.837   9.648  1.00  0.00     0.164 HD
HETATM   24  C   UNL     1     -43.412 -46.944   8.863  1.00  0.00    -0.020 A 
HETATM   25  C   UNL     1     -43.776 -47.985   7.849  1.00  0.00     0.052 C 
ENDBRANCH   4  18
TORSDOF 5
ENDMDL
MODEL 5
REMARK VINA RESULT:      -6.4      1.373      2.307
REMARK  5 active torsions:
REMARK  status: ('A' for Active; 'I' for Inactive)
REMARK    1  A    between atoms: N_4  and  C_5 
REMARK    2  A    between atoms: C_5  and  C_6 
REMARK    3  A    between atoms: C_6  and  C_7 
REMARK    4  A    between atoms: C_7  and  N_8 
REMARK       I    between atoms: N_8  and  C_9 
REMARK       I    between atoms: C_9  and  N_11 
REMARK    5  A    between atoms: N_11  and  C_12 
ROOT
HETATM    1  N   UNL     1     -40.547 -50.395  11.060  1.00  0.00    -0.343 N 
HETATM    2  C   UNL     1     -41.510 -49.409  11.144  1.00  0.00     0.320 C 
HETATM    3  O   UNL     1     -42.247 -49.314  12.114  1.00  0.00    -0.247 OA
HETATM    4  N   UNL     1     -41.523 -48.606  10.025  1.00  0.00    -0.308 N 
HETATM    5  H   UNL     1     -39.725 -50.129  10.538  1.00  0.00     0.164 HD
HETATM    6  H   UNL     1     -41.123 -49.020   9.199  1.00  0.00     0.170 HD
ENDROOT
BRANCH   1   7
HETATM    7  C   UNL     1     -40.370 -51.238  12.227  1.00  0.00     0.126 C 
BRANCH   7   8
HETATM    8  C   UNL     1     -41.088 -52.577  12.142  1.00  0.00     0.050 C 
BRANCH   8   9
HETATM    9  C   UNL     1     -41.720 -52.975  13.483  1.00  0.00     0.274 C 
BRANCH   9  10
HETATM   10  N   UNL     1     -42.789 -52.062  13.909  1.00  0.00     0.093 N 
HETATM   11  C   UNL     1     -43.185 -52.272  15.319  1.00  0.00     0.303 C 
HETATM   12  C   UNL     1     -44.326 -51.323  15.739  1.00  0.00     0.146 C 
HETATM   13  C   UNL     1     -43.875 -49.863  15.813  1.00  0.00     0.041 C 
HETATM   14  O   UNL     1     -45.469 -51.483  14.885  1.00  0.00    -0.378 OA
HETATM   15  C   UNL     1     -45.146 -51.324  13.494  1.00  0.00     0.146 C 
HETATM   16  C   UNL     1     -43.994 -52.258  13.069  1.00  0.00     0.303 C 
HETATM   17  C   UNL     1     -46.411 -51.628  12.700  1.00  0.00     0.041 C 
ENDBRANCH   9  10
ENDBRANCH   8   9
ENDBRANCH   7   8
ENDBRANCH   1   7
BRANCH   4  18
HETATM   18  C   UNL     1     -42.329 -47.451   9.867  1.00  0.00     0.044 A 
HETATM   19  C   UNL     1     -43.547 -47.511   9.181  1.00  0.00     0.047 A 
HETATM   20  C   UNL     1     -44.297 -46.360   9.031  1.00  0.00     0.090 A 
HETATM   21  N   UNL     1     -43.942 -45.169   9.540  1.00  0.00    -0.375 N 
HETATM   22  C   UNL     1     -42.775 -45.131  10.218  1.00  0.00     0.096 A 
ATOM     23  HN  UNL     1     -44.522 -44.339   9.421  1.00  0.00     0.164 HD
HETATM   24  C   UNL     1     -41.925 -46.222  10.410  1.00  0.00    -0.020 A 
HETATM   25  C   UNL     1     -40.663 -46.018  11.192  1.00  0.00     0.052 C 
ENDBRANCH   4  18
TORSDOF 5
ENDMDL
MODEL 6
REMARK VINA RESULT:      -6.4      2.013      7.091
REMARK  5 active torsions:
REMARK  status: ('A' for Active; 'I' for Inactive)
REMARK    1  A    between atoms: N_4  and  C_5 
REMARK    2  A    between atoms: C_5  and  C_6 
REMARK    3  A    between atoms: C_6  and  C_7 
REMARK    4  A    between atoms: C_7  and  N_8 
REMARK       I    between atoms: N_8  and  C_9 
REMARK       I    between atoms: C_9  and  N_11 
REMARK    5  A    between atoms: N_11  and  C_12 
ROOT
HETATM    1  N   UNL     1     -41.997 -51.781  11.699  1.00  0.00    -0.343 N 
HETATM    2  C   UNL     1     -42.793 -51.899  12.821  1.00  0.00     0.320 C 
HETATM    3  O   UNL     1     -42.358 -51.682  13.942  1.00  0.00    -0.247 OA
HETATM    4  N   UNL     1     -44.075 -52.291  12.504  1.00  0.00    -0.308 N 
HETATM    5  H   UNL     1     -42.492 -51.497  10.867  1.00  0.00     0.164 HD
HETATM    6  H   UNL     1     -44.169 -52.762  11.618  1.00  0.00     0.170 HD
ENDROOT
BRANCH   1   7
HETATM    7  C   UNL     1     -40.653 -51.273  11.900  1.00  0.00     0.126 C 
BRANCH   7   8
HETATM    8  C   UNL     1     -40.408 -49.903  11.287  1.00  0.00     0.050 C 
BRANCH   8   9
HETATM    9  C   UNL     1     -40.851 -48.768  12.220  1.00  0.00     0.274 C 
BRANCH   9  10
HETATM   10  N   UNL     1     -41.799 -47.840  11.588  1.00  0.00     0.093 N 
HETATM   11  C   UNL     1     -41.954 -48.089  10.138  1.00  0.00     0.303 C 
HETATM   12  C   UNL     1     -42.933 -47.089   9.490  1.00  0.00     0.146 C 
HETATM   13  C   UNL     1     -44.377 -47.304   9.944  1.00  0.00     0.041 C 
HETATM   14  O   UNL     1     -42.503 -45.735   9.706  1.00  0.00    -0.378 OA
HETATM   15  C   UNL     1     -42.301 -45.436  11.096  1.00  0.00     0.146 C 
HETATM   16  C   UNL     1     -41.336 -46.442  11.758  1.00  0.00     0.303 C 
HETATM   17  C   UNL     1     -41.744 -44.020  11.176  1.00  0.00     0.041 C 
ENDBRANCH   9  10
ENDBRANCH   8   9
ENDBRANCH   7   8
ENDBRANCH   1   7
BRANCH   4  18
HETATM   18  C   UNL     1     -45.142 -52.397  13.430  1.00  0.00     0.044 A 
HETATM   19  C   UNL     1     -45.868 -51.267  13.824  1.00  0.00     0.047 A 
HETATM   20  C   UNL     1     -46.891 -51.406  14.743  1.00  0.00     0.090 A 
HETATM   21  N   UNL     1     -47.263 -52.585  15.269  1.00  0.00    -0.375 N 
HETATM   22  C   UNL     1     -46.568 -53.669  14.863  1.00  0.00     0.096 A 
ATOM     23  HN  UNL     1     -48.029 -52.656  15.939  1.00  0.00     0.164 HD
HETATM   24  C   UNL     1     -45.502 -53.644  13.961  1.00  0.00    -0.020 A 
HETATM   25  C   UNL     1     -44.834 -54.938  13.607  1.00  0.00     0.052 C 
ENDBRANCH   4  18
TORSDOF 5
ENDMDL
MODEL 7
REMARK VINA RESULT:      -6.3      2.830      6.695
REMARK  5 active torsions:
REMARK  status: ('A' for Active; 'I' for Inactive)
REMARK    1  A    between atoms: N_4  and  C_5 
REMARK    2  A    between atoms: C_5  and  C_6 
REMARK    3  A    between atoms: C_6  and  C_7 
REMARK    4  A    between atoms: C_7  and  N_8 
REMARK       I    between atoms: N_8  and  C_9 
REMARK       I    between atoms: C_9  and  N_11 
REMARK    5  A    between atoms: N_11  and  C_12 
ROOT
HETATM    1  N   UNL     1     -43.319 -49.272  12.216  1.00  0.00    -0.343 N 
HETATM    2  C   UNL     1     -43.720 -50.176  13.179  1.00  0.00     0.320 C 
HETATM    3  O   UNL     1     -43.202 -50.207  14.285  1.00  0.00    -0.247 OA
HETATM    4  N   UNL     1     -44.724 -51.002  12.723  1.00  0.00    -0.308 N 
HETATM    5  H   UNL     1     -44.052 -48.985  11.585  1.00  0.00     0.164 HD
HETATM    6  H   UNL     1     -44.782 -51.088  11.721  1.00  0.00     0.170 HD
ENDROOT
BRANCH   1   7
HETATM    7  C   UNL     1     -42.338 -48.281  12.617  1.00  0.00     0.126 C 
BRANCH   7   8
HETATM    8  C   UNL     1     -41.174 -48.130  11.648  1.00  0.00     0.050 C 
BRANCH   8   9
HETATM    9  C   UNL     1     -40.612 -49.490  11.211  1.00  0.00     0.274 C 
BRANCH   9  10
HETATM   10  N   UNL     1     -39.850 -50.165  12.270  1.00  0.00     0.093 N 
HETATM   11  C   UNL     1     -38.411 -50.282  11.948  1.00  0.00     0.303 C 
HETATM   12  C   UNL     1     -37.635 -51.017  13.060  1.00  0.00     0.146 C 
HETATM   13  C   UNL     1     -37.545 -50.198  14.349  1.00  0.00     0.041 C 
HETATM   14  O   UNL     1     -38.187 -52.321  13.297  1.00  0.00    -0.378 OA
HETATM   15  C   UNL     1     -39.594 -52.282  13.585  1.00  0.00     0.146 C 
HETATM   16  C   UNL     1     -40.377 -51.534  12.486  1.00  0.00     0.303 C 
HETATM   17  C   UNL     1     -40.071 -53.724  13.703  1.00  0.00     0.041 C 
ENDBRANCH   9  10
ENDBRANCH   8   9
ENDBRANCH   7   8
ENDBRANCH   1   7
BRANCH   4  18
HETATM   18  C   UNL     1     -45.408 -51.958  13.515  1.00  0.00     0.044 A 
HETATM   19  C   UNL     1     -46.453 -51.577  14.362  1.00  0.00     0.047 A 
HETATM   20  C   UNL     1     -47.085 -52.535  15.132  1.00  0.00     0.090 A 
HETATM   21  N   UNL     1     -46.776 -53.842  15.094  1.00  0.00    -0.375 N 
HETATM   22  C   UNL     1     -45.780 -54.198  14.256  1.00  0.00     0.096 A 
ATOM     23  HN  UNL     1     -47.267 -54.527  15.669  1.00  0.00     0.164 HD
HETATM   24  C   UNL     1     -45.057 -53.315  13.451  1.00  0.00    -0.020 A 
HETATM   25  C   UNL     1     -43.981 -53.869  12.567  1.00  0.00     0.052 C 
ENDBRANCH   4  18
TORSDOF 5
ENDMDL
MODEL 8
REMARK VINA RESULT:      -6.0      2.498      8.065
REMARK  5 active torsions:
REMARK  status: ('A' for Active; 'I' for Inactive)
REMARK    1  A    between atoms: N_4  and  C_5 
REMARK    2  A    between atoms: C_5  and  C_6 
REMARK    3  A    between atoms: C_6  and  C_7 
REMARK    4  A    between atoms: C_7  and  N_8 
REMARK       I    between atoms: N_8  and  C_9 
REMARK       I    between atoms: C_9  and  N_11 
REMARK    5  A    between atoms: N_11  and  C_12 
ROOT
HETATM    1  N   UNL     1     -40.984 -50.722  11.077  1.00  0.00    -0.343 N 
HETATM    2  C   UNL     1     -41.696 -51.265  12.128  1.00  0.00     0.320 C 
HETATM    3  O   UNL     1     -41.827 -50.671  13.187  1.00  0.00    -0.247 OA
HETATM    4  N   UNL     1     -42.192 -52.513  11.823  1.00  0.00    -0.308 N 
HETATM    5  H   UNL     1     -41.316 -50.998  10.164  1.00  0.00     0.164 HD
HETATM    6  H   UNL     1     -41.710 -52.994  11.080  1.00  0.00     0.170 HD
ENDROOT
BRANCH   1   7
HETATM    7  C   UNL     1     -40.501 -49.364  11.245  1.00  0.00     0.126 C 
BRANCH   7   8
HETATM    8  C   UNL     1     -41.367 -48.308  10.575  1.00  0.00     0.050 C 
BRANCH   8   9
HETATM    9  C   UNL     1     -42.139 -47.465  11.599  1.00  0.00     0.274 C 
BRANCH   9  10
HETATM   10  N   UNL     1     -41.471 -46.198  11.922  1.00  0.00     0.093 N 
HETATM   11  C   UNL     1     -40.418 -45.847  10.944  1.00  0.00     0.303 C 
HETATM   12  C   UNL     1     -39.712 -44.527  11.315  1.00  0.00     0.146 C 
HETATM   13  C   UNL     1     -40.625 -43.310  11.158  1.00  0.00     0.041 C 
HETATM   14  O   UNL     1     -39.145 -44.600  12.633  1.00  0.00    -0.378 OA
HETATM   15  C   UNL     1     -40.111 -44.969  13.630  1.00  0.00     0.146 C 
HETATM   16  C   UNL     1     -40.835 -46.280  13.258  1.00  0.00     0.303 C 
HETATM   17  C   UNL     1     -39.363 -45.119  14.949  1.00  0.00     0.041 C 
ENDBRANCH   9  10
ENDBRANCH   8   9
ENDBRANCH   7   8
ENDBRANCH   1   7
BRANCH   4  18
HETATM   18  C   UNL     1     -43.046 -53.272  12.662  1.00  0.00     0.044 A 
HETATM   19  C   UNL     1     -44.434 -53.249  12.486  1.00  0.00     0.047 A 
HETATM   20  C   UNL     1     -45.236 -53.988  13.335  1.00  0.00     0.090 A 
HETATM   21  N   UNL     1     -44.758 -54.770  14.318  1.00  0.00    -0.375 N 
HETATM   22  C   UNL     1     -43.416 -54.799  14.461  1.00  0.00     0.096 A 
ATOM     23  HN  UNL     1     -45.376 -55.311  14.922  1.00  0.00     0.164 HD
HETATM   24  C   UNL     1     -42.512 -54.076  13.680  1.00  0.00    -0.020 A 
HETATM   25  C   UNL     1     -41.047 -54.220  13.962  1.00  0.00     0.052 C 
ENDBRANCH   4  18
TORSDOF 5
ENDMDL
MODEL 9
REMARK VINA RESULT:      -5.9      2.398      7.504
REMARK  5 active torsions:
REMARK  status: ('A' for Active; 'I' for Inactive)
REMARK    1  A    between atoms: N_4  and  C_5 
REMARK    2  A    between atoms: C_5  and  C_6 
REMARK    3  A    between atoms: C_6  and  C_7 
REMARK    4  A    between atoms: C_7  and  N_8 
REMARK       I    between atoms: N_8  and  C_9 
REMARK       I    between atoms: C_9  and  N_11 
REMARK    5  A    between atoms: N_11  and  C_12 
ROOT
HETATM    1  N   UNL     1     -40.903 -50.698  11.024  1.00  0.00    -0.343 N 
HETATM    2  C   UNL     1     -41.598 -51.253  12.080  1.00  0.00     0.320 C 
HETATM    3  O   UNL     1     -41.817 -50.624  13.104  1.00  0.00    -0.247 OA
HETATM    4  N   UNL     1     -41.970 -52.553  11.824  1.00  0.00    -0.308 N 
HETATM    5  H   UNL     1     -41.178 -51.045  10.118  1.00  0.00     0.164 HD
HETATM    6  H   UNL     1     -41.423 -53.023  11.121  1.00  0.00     0.170 HD
ENDROOT
BRANCH   1   7
HETATM    7  C   UNL     1     -40.549 -49.295  11.138  1.00  0.00     0.126 C 
BRANCH   7   8
HETATM    8  C   UNL     1     -41.634 -48.339  10.668  1.00  0.00     0.050 C 
BRANCH   8   9
HETATM    9  C   UNL     1     -41.220 -46.871  10.839  1.00  0.00     0.274 C 
BRANCH   9  10
HETATM   10  N   UNL     1     -41.608 -46.312  12.140  1.00  0.00     0.093 N 
HETATM   11  C   UNL     1     -42.819 -46.956  12.696  1.00  0.00     0.303 C 
HETATM   12  C   UNL     1     -43.224 -46.337  14.049  1.00  0.00     0.146 C 
HETATM   13  C   UNL     1     -42.226 -46.660  15.163  1.00  0.00     0.041 C 
HETATM   14  O   UNL     1     -43.441 -44.923  13.924  1.00  0.00    -0.378 OA
HETATM   15  C   UNL     1     -42.312 -44.239  13.358  1.00  0.00     0.146 C 
HETATM   16  C   UNL     1     -41.888 -44.862  12.011  1.00  0.00     0.303 C 
HETATM   17  C   UNL     1     -42.712 -42.780  13.177  1.00  0.00     0.041 C 
ENDBRANCH   9  10
ENDBRANCH   8   9
ENDBRANCH   7   8
ENDBRANCH   1   7
BRANCH   4  18
HETATM   18  C   UNL     1     -42.780 -53.346  12.675  1.00  0.00     0.044 A 
HETATM   19  C   UNL     1     -44.166 -53.414  12.492  1.00  0.00     0.047 A 
HETATM   20  C   UNL     1     -44.925 -54.184  13.353  1.00  0.00     0.090 A 
HETATM   21  N   UNL     1     -44.406 -54.912  14.355  1.00  0.00    -0.375 N 
HETATM   22  C   UNL     1     -43.066 -54.854  14.505  1.00  0.00     0.096 A 
ATOM     23  HN  UNL     1     -44.992 -55.479  14.968  1.00  0.00     0.164 HD
HETATM   24  C   UNL     1     -42.203 -54.093  13.713  1.00  0.00    -0.020 A 
HETATM   25  C   UNL     1     -40.734 -54.139  14.005  1.00  0.00     0.052 C 
ENDBRANCH   4  18
TORSDOF 5
ENDMDL
