MODEL 1
REMARK VINA RESULT:      -6.3      0.000      0.000
REMARK  4 active torsions:
REMARK  status: ('A' for Active; 'I' for Inactive)
REMARK    1  A    between atoms: C_2  and  C_3 
REMARK    2  A    between atoms: C_2  and  N_14 
REMARK    3  A    between atoms: C_3  and  N_4 
REMARK       I    between atoms: N_4  and  C_5 
REMARK       I    between atoms: C_5  and  N_7 
REMARK    4  A    between atoms: N_7  and  C_8 
ROOT
HETATM    1  N   UNL     1     -40.826 -51.123  11.456  1.00  0.00    -0.341 N 
HETATM    2  C   UNL     1     -40.964 -49.757  11.630  1.00  0.00     0.322 C 
HETATM    3  O   UNL     1     -40.750 -49.224  12.711  1.00  0.00    -0.247 OA
HETATM    4  N   UNL     1     -41.292 -49.140  10.452  1.00  0.00    -0.289 N 
HETATM    5  H   UNL     1     -41.377 -51.556  10.730  1.00  0.00     0.164 HD
HETATM    6  H   UNL     1     -41.087 -49.605   9.583  1.00  0.00     0.172 HD
ENDROOT
BRANCH   1   7
HETATM    7  C   UNL     1     -40.404 -51.958  12.574  1.00  0.00     0.159 C 
BRANCH   7   8
HETATM    8  C   UNL     1     -41.579 -52.800  13.158  1.00  0.00     0.237 C 
HETATM    9  C   UNL     1     -41.263 -54.287  12.882  1.00  0.00     0.044 C 
BRANCH   8  10
HETATM   10  N   UNL     1     -42.910 -52.423  12.597  1.00  0.00     0.099 N 
HETATM   11  C   UNL     1     -43.600 -51.373  13.399  1.00  0.00     0.304 C 
HETATM   12  C   UNL     1     -44.065 -51.862  14.792  1.00  0.00     0.146 C 
HETATM   13  C   UNL     1     -44.810 -50.758  15.531  1.00  0.00     0.041 C 
HETATM   14  O   UNL     1     -44.958 -52.983  14.657  1.00  0.00    -0.378 OA
HETATM   15  C   UNL     1     -44.337 -54.055  13.926  1.00  0.00     0.146 C 
HETATM   16  C   UNL     1     -45.354 -55.179  13.792  1.00  0.00     0.041 C 
HETATM   17  C   UNL     1     -43.867 -53.563  12.536  1.00  0.00     0.304 C 
ENDBRANCH   8  10
ENDBRANCH   7   8
ENDBRANCH   1   7
BRANCH   4  18
HETATM   18  C   UNL     1     -41.518 -47.793  10.394  1.00  0.00     0.152 A 
HETATM   19  N   UNL     1     -40.671 -46.805  10.523  1.00  0.00    -0.346 N 
HETATM   20  C   UNL     1     -41.334 -45.608  10.348  1.00  0.00     0.097 A 
ATOM     21  HN  UNL     1     -39.676 -46.904  10.722  1.00  0.00     0.167 HD
HETATM   22  C   UNL     1     -42.686 -45.708  10.100  1.00  0.00     0.070 A 
HETATM   23  S   UNL     1     -43.150 -47.362  10.126  1.00  0.00    -0.064 SA
ENDBRANCH   4  18
TORSDOF 4
ENDMDL
MODEL 2
REMARK VINA RESULT:      -6.3      1.768      2.563
REMARK  4 active torsions:
REMARK  status: ('A' for Active; 'I' for Inactive)
REMARK    1  A    between atoms: C_2  and  C_3 
REMARK    2  A    between atoms: C_2  and  N_14 
REMARK    3  A    between atoms: C_3  and  N_4 
REMARK       I    between atoms: N_4  and  C_5 
REMARK       I    between atoms: C_5  and  N_7 
REMARK    4  A    between atoms: N_7  and  C_8 
ROOT
HETATM    1  N   UNL     1     -42.351 -51.164  11.969  1.00  0.00    -0.341 N 
HETATM    2  C   UNL     1     -41.721 -49.938  12.100  1.00  0.00     0.322 C 
HETATM    3  O   UNL     1     -41.120 -49.633  13.121  1.00  0.00    -0.247 OA
HETATM    4  N   UNL     1     -41.825 -49.205  10.947  1.00  0.00    -0.289 N 
HETATM    5  H   UNL     1     -43.137 -51.217  11.339  1.00  0.00     0.164 HD
HETATM    6  H   UNL     1     -42.012 -49.681  10.081  1.00  0.00     0.172 HD
ENDROOT
BRANCH   1   7
HETATM    7  C   UNL     1     -42.293 -52.130  13.060  1.00  0.00     0.159 C 
BRANCH   7   8
HETATM    8  C   UNL     1     -43.374 -51.856  14.150  1.00  0.00     0.237 C 
HETATM    9  C   UNL     1     -42.649 -51.790  15.512  1.00  0.00     0.044 C 
BRANCH   8  10
HETATM   10  N   UNL     1     -44.462 -52.879  14.171  1.00  0.00     0.099 N 
HETATM   11  C   UNL     1     -45.293 -52.866  12.935  1.00  0.00     0.304 C 
HETATM   12  C   UNL     1     -46.169 -51.599  12.789  1.00  0.00     0.146 C 
HETATM   13  C   UNL     1     -47.032 -51.679  11.536  1.00  0.00     0.041 C 
HETATM   14  O   UNL     1     -47.047 -51.464  13.922  1.00  0.00    -0.378 OA
HETATM   15  C   UNL     1     -46.303 -51.426  15.152  1.00  0.00     0.146 C 
HETATM   16  C   UNL     1     -47.300 -51.324  16.298  1.00  0.00     0.041 C 
HETATM   17  C   UNL     1     -45.423 -52.691  15.293  1.00  0.00     0.304 C 
ENDBRANCH   8  10
ENDBRANCH   7   8
ENDBRANCH   1   7
BRANCH   4  18
HETATM   18  C   UNL     1     -41.310 -47.942  10.861  1.00  0.00     0.152 A 
HETATM   19  N   UNL     1     -40.088 -47.529  11.079  1.00  0.00    -0.346 N 
HETATM   20  C   UNL     1     -40.010 -46.175  10.828  1.00  0.00     0.097 A 
ATOM     21  HN  UNL     1     -39.314 -48.117  11.387  1.00  0.00     0.167 HD
HETATM   22  C   UNL     1     -41.187 -45.576  10.432  1.00  0.00     0.070 A 
HETATM   23  S   UNL     1     -42.445 -46.746  10.413  1.00  0.00    -0.064 SA
ENDBRANCH   4  18
TORSDOF 4
ENDMDL
MODEL 3
REMARK VINA RESULT:      -6.0      1.490      1.817
REMARK  4 active torsions:
REMARK  status: ('A' for Active; 'I' for Inactive)
REMARK    1  A    between atoms: C_2  and  C_3 
REMARK    2  A    between atoms: C_2  and  N_14 
REMARK    3  A    between atoms: C_3  and  N_4 
REMARK       I    between atoms: N_4  and  C_5 
REMARK       I    between atoms: C_5  and  N_7 
REMARK    4  A    between atoms: N_7  and  C_8 
ROOT
HETATM    1  N   UNL     1     -42.020 -51.290  11.762  1.00  0.00    -0.341 N 
HETATM    2  C   UNL     1     -41.295 -50.111  11.784  1.00  0.00     0.322 C 
HETATM    3  O   UNL     1     -40.251 -50.012  12.414  1.00  0.00    -0.247 OA
HETATM    4  N   UNL     1     -41.873 -49.162  10.983  1.00  0.00    -0.289 N 
HETATM    5  H   UNL     1     -43.013 -51.221  11.601  1.00  0.00     0.164 HD
HETATM    6  H   UNL     1     -42.498 -49.455  10.250  1.00  0.00     0.172 HD
ENDROOT
BRANCH   1   7
HETATM    7  C   UNL     1     -41.532 -52.455  12.490  1.00  0.00     0.159 C 
BRANCH   7   8
HETATM    8  C   UNL     1     -42.428 -52.800  13.719  1.00  0.00     0.237 C 
HETATM    9  C   UNL     1     -41.489 -53.216  14.873  1.00  0.00     0.044 C 
BRANCH   8  10
HETATM   10  N   UNL     1     -43.432 -53.869  13.435  1.00  0.00     0.099 N 
HETATM   11  C   UNL     1     -44.524 -53.412  12.529  1.00  0.00     0.304 C 
HETATM   12  C   UNL     1     -45.469 -52.370  13.173  1.00  0.00     0.146 C 
HETATM   13  C   UNL     1     -46.590 -51.991  12.213  1.00  0.00     0.041 C 
HETATM   14  O   UNL     1     -46.071 -52.909  14.364  1.00  0.00    -0.378 OA
HETATM   15  C   UNL     1     -45.069 -53.331  15.305  1.00  0.00     0.146 C 
HETATM   16  C   UNL     1     -45.782 -53.923  16.512  1.00  0.00     0.041 C 
HETATM   17  C   UNL     1     -44.120 -54.369  14.657  1.00  0.00     0.304 C 
ENDBRANCH   8  10
ENDBRANCH   7   8
ENDBRANCH   1   7
BRANCH   4  18
HETATM   18  C   UNL     1     -41.350 -47.902  10.882  1.00  0.00     0.152 A 
HETATM   19  N   UNL     1     -40.109 -47.509  11.005  1.00  0.00    -0.346 N 
HETATM   20  C   UNL     1     -40.034 -46.151  10.781  1.00  0.00     0.097 A 
ATOM     21  HN  UNL     1     -39.319 -48.114  11.232  1.00  0.00     0.167 HD
HETATM   22  C   UNL     1     -41.232 -45.528  10.501  1.00  0.00     0.070 A 
HETATM   23  S   UNL     1     -42.503 -46.682  10.562  1.00  0.00    -0.064 SA
ENDBRANCH   4  18
TORSDOF 4
ENDMDL
MODEL 4
REMARK VINA RESULT:      -5.9      1.928      2.514
REMARK  4 active torsions:
REMARK  status: ('A' for Active; 'I' for Inactive)
REMARK    1  A    between atoms: C_2  and  C_3 
REMARK    2  A    between atoms: C_2  and  N_14 
REMARK    3  A    between atoms: C_3  and  N_4 
REMARK       I    between atoms: N_4  and  C_5 
REMARK       I    between atoms: C_5  and  N_7 
REMARK    4  A    between atoms: N_7  and  C_8 
ROOT
HETATM    1  N   UNL     1     -41.144 -52.083  11.544  1.00  0.00    -0.341 N 
HETATM    2  C   UNL     1     -40.824 -50.776  11.869  1.00  0.00     0.322 C 
HETATM    3  O   UNL     1     -40.365 -50.482  12.965  1.00  0.00    -0.247 OA
HETATM    4  N   UNL     1     -41.033 -49.938  10.805  1.00  0.00    -0.289 N 
HETATM    5  H   UNL     1     -41.861 -52.226  10.850  1.00  0.00     0.164 HD
HETATM    6  H   UNL     1     -41.058 -50.325   9.876  1.00  0.00     0.172 HD
ENDROOT
BRANCH   1   7
HETATM    7  C   UNL     1     -40.922 -53.147  12.516  1.00  0.00     0.159 C 
BRANCH   7   8
HETATM    8  C   UNL     1     -42.240 -53.581  13.228  1.00  0.00     0.237 C 
HETATM    9  C   UNL     1     -43.418 -53.025  12.398  1.00  0.00     0.044 C 
BRANCH   8  10
HETATM   10  N   UNL     1     -42.321 -53.122  14.647  1.00  0.00     0.099 N 
HETATM   11  C   UNL     1     -41.719 -54.091  15.605  1.00  0.00     0.304 C 
HETATM   12  C   UNL     1     -42.520 -55.408  15.741  1.00  0.00     0.146 C 
HETATM   13  C   UNL     1     -41.880 -56.325  16.776  1.00  0.00     0.041 C 
HETATM   14  O   UNL     1     -43.867 -55.133  16.168  1.00  0.00    -0.378 OA
HETATM   15  C   UNL     1     -44.525 -54.233  15.259  1.00  0.00     0.146 C 
HETATM   16  C   UNL     1     -45.921 -53.962  15.799  1.00  0.00     0.041 C 
HETATM   17  C   UNL     1     -43.719 -52.919  15.119  1.00  0.00     0.304 C 
ENDBRANCH   8  10
ENDBRANCH   7   8
ENDBRANCH   1   7
BRANCH   4  18
HETATM   18  C   UNL     1     -40.821 -48.591  10.909  1.00  0.00     0.152 A 
HETATM   19  N   UNL     1     -39.768 -47.950  11.346  1.00  0.00    -0.346 N 
HETATM   20  C   UNL     1     -39.979 -46.592  11.230  1.00  0.00     0.097 A 
ATOM     21  HN  UNL     1     -38.924 -48.387  11.715  1.00  0.00     0.167 HD
HETATM   22  C   UNL     1     -41.203 -46.223  10.714  1.00  0.00     0.070 A 
HETATM   23  S   UNL     1     -42.139 -47.628  10.401  1.00  0.00    -0.064 SA
ENDBRANCH   4  18
TORSDOF 4
ENDMDL
MODEL 5
REMARK VINA RESULT:      -5.8      2.476      6.935
REMARK  4 active torsions:
REMARK  status: ('A' for Active; 'I' for Inactive)
REMARK    1  A    between atoms: C_2  and  C_3 
REMARK    2  A    between atoms: C_2  and  N_14 
REMARK    3  A    between atoms: C_3  and  N_4 
REMARK       I    between atoms: N_4  and  C_5 
REMARK       I    between atoms: C_5  and  N_7 
REMARK    4  A    between atoms: N_7  and  C_8 
ROOT
HETATM    1  N   UNL     1     -41.920 -51.354  11.756  1.00  0.00    -0.341 N 
HETATM    2  C   UNL     1     -42.554 -52.211  12.640  1.00  0.00     0.322 C 
HETATM    3  O   UNL     1     -41.970 -52.682  13.606  1.00  0.00    -0.247 OA
HETATM    4  N   UNL     1     -43.872 -52.377  12.305  1.00  0.00    -0.289 N 
HETATM    5  H   UNL     1     -42.267 -51.324  10.810  1.00  0.00     0.164 HD
HETATM    6  H   UNL     1     -44.323 -51.682  11.734  1.00  0.00     0.172 HD
ENDROOT
BRANCH   1   7
HETATM    7  C   UNL     1     -40.527 -50.983  11.978  1.00  0.00     0.159 C 
BRANCH   7   8
HETATM    8  C   UNL     1     -40.223 -49.527  11.513  1.00  0.00     0.237 C 
HETATM    9  C   UNL     1     -38.713 -49.281  11.724  1.00  0.00     0.044 C 
BRANCH   8  10
HETATM   10  N   UNL     1     -41.038 -48.498  12.226  1.00  0.00     0.099 N 
HETATM   11  C   UNL     1     -42.388 -48.309  11.624  1.00  0.00     0.304 C 
HETATM   12  C   UNL     1     -42.356 -47.650  10.224  1.00  0.00     0.146 C 
HETATM   13  C   UNL     1     -43.769 -47.436   9.696  1.00  0.00     0.041 C 
HETATM   14  O   UNL     1     -41.710 -46.366  10.289  1.00  0.00    -0.378 OA
HETATM   15  C   UNL     1     -40.379 -46.482  10.823  1.00  0.00     0.146 C 
HETATM   16  C   UNL     1     -39.782 -45.084  10.898  1.00  0.00     0.041 C 
HETATM   17  C   UNL     1     -40.413 -47.146  12.221  1.00  0.00     0.304 C 
ENDBRANCH   8  10
ENDBRANCH   7   8
ENDBRANCH   1   7
BRANCH   4  18
HETATM   18  C   UNL     1     -44.686 -53.215  13.017  1.00  0.00     0.152 A 
HETATM   19  N   UNL     1     -44.600 -54.509  13.181  1.00  0.00    -0.346 N 
HETATM   20  C   UNL     1     -45.613 -54.933  14.015  1.00  0.00     0.097 A 
ATOM     21  HN  UNL     1     -43.894 -55.111  12.758  1.00  0.00     0.167 HD
HETATM   22  C   UNL     1     -46.465 -53.947  14.463  1.00  0.00     0.070 A 
HETATM   23  S   UNL     1     -46.002 -52.439  13.782  1.00  0.00    -0.064 SA
ENDBRANCH   4  18
TORSDOF 4
ENDMDL
MODEL 6
REMARK VINA RESULT:      -5.5      2.918      7.578
REMARK  4 active torsions:
REMARK  status: ('A' for Active; 'I' for Inactive)
REMARK    1  A    between atoms: C_2  and  C_3 
REMARK    2  A    between atoms: C_2  and  N_14 
REMARK    3  A    between atoms: C_3  and  N_4 
REMARK       I    between atoms: N_4  and  C_5 
REMARK       I    between atoms: C_5  and  N_7 
REMARK    4  A    between atoms: N_7  and  C_8 
ROOT
HETATM    1  N   UNL     1     -42.007 -49.104  11.045  1.00  0.00    -0.341 N 
HETATM    2  C   UNL     1     -41.338 -50.174  11.614  1.00  0.00     0.322 C 
HETATM    3  O   UNL     1     -40.144 -50.117  11.877  1.00  0.00    -0.247 OA
HETATM    4  N   UNL     1     -42.196 -51.209  11.876  1.00  0.00    -0.289 N 
HETATM    5  H   UNL     1     -42.823 -49.310  10.490  1.00  0.00     0.164 HD
HETATM    6  H   UNL     1     -43.180 -51.019  11.960  1.00  0.00     0.172 HD
ENDROOT
BRANCH   1   7
HETATM    7  C   UNL     1     -41.288 -47.868  10.758  1.00  0.00     0.159 C 
BRANCH   7   8
HETATM    8  C   UNL     1     -42.177 -46.605  10.971  1.00  0.00     0.237 C 
HETATM    9  C   UNL     1     -43.448 -46.785  10.112  1.00  0.00     0.044 C 
BRANCH   8  10
HETATM   10  N   UNL     1     -41.479 -45.329  10.633  1.00  0.00     0.099 N 
HETATM   11  C   UNL     1     -40.139 -45.214  11.275  1.00  0.00     0.304 C 
HETATM   12  C   UNL     1     -40.199 -45.046  12.812  1.00  0.00     0.146 C 
HETATM   13  C   UNL     1     -38.801 -44.878  13.393  1.00  0.00     0.041 C 
HETATM   14  O   UNL     1     -40.964 -43.877  13.158  1.00  0.00    -0.378 OA
HETATM   15  C   UNL     1     -42.290 -43.942  12.604  1.00  0.00     0.146 C 
HETATM   16  C   UNL     1     -43.016 -42.658  12.978  1.00  0.00     0.041 C 
HETATM   17  C   UNL     1     -42.227 -44.117  11.068  1.00  0.00     0.304 C 
ENDBRANCH   8  10
ENDBRANCH   7   8
ENDBRANCH   1   7
BRANCH   4  18
HETATM   18  C   UNL     1     -41.747 -52.388  12.403  1.00  0.00     0.152 A 
HETATM   19  N   UNL     1     -40.886 -53.241  11.911  1.00  0.00    -0.346 N 
HETATM   20  C   UNL     1     -40.700 -54.273  12.807  1.00  0.00     0.097 A 
ATOM     21  HN  UNL     1     -40.425 -53.156  11.005  1.00  0.00     0.167 HD
HETATM   22  C   UNL     1     -41.438 -54.191  13.969  1.00  0.00     0.070 A 
HETATM   23  S   UNL     1     -42.431 -52.790  13.917  1.00  0.00    -0.064 SA
ENDBRANCH   4  18
TORSDOF 4
ENDMDL
MODEL 7
REMARK VINA RESULT:      -5.5      2.005      2.927
REMARK  4 active torsions:
REMARK  status: ('A' for Active; 'I' for Inactive)
REMARK    1  A    between atoms: C_2  and  C_3 
REMARK    2  A    between atoms: C_2  and  N_14 
REMARK    3  A    between atoms: C_3  and  N_4 
REMARK       I    between atoms: N_4  and  C_5 
REMARK       I    between atoms: C_5  and  N_7 
REMARK    4  A    between atoms: N_7  and  C_8 
ROOT
HETATM    1  N   UNL     1     -40.495 -50.758  11.254  1.00  0.00    -0.341 N 
HETATM    2  C   UNL     1     -40.685 -49.398  11.431  1.00  0.00     0.322 C 
HETATM    3  O   UNL     1     -40.267 -48.817  12.424  1.00  0.00    -0.247 OA
HETATM    4  N   UNL     1     -41.317 -48.843  10.350  1.00  0.00    -0.289 N 
HETATM    5  H   UNL     1     -41.166 -51.249  10.683  1.00  0.00     0.164 HD
HETATM    6  H   UNL     1     -41.285 -49.323   9.466  1.00  0.00     0.172 HD
ENDROOT
BRANCH   1   7
HETATM    7  C   UNL     1     -39.770 -51.527  12.258  1.00  0.00     0.159 C 
BRANCH   7   8
HETATM    8  C   UNL     1     -40.668 -52.606  12.937  1.00  0.00     0.237 C 
HETATM    9  C   UNL     1     -42.070 -52.509  12.297  1.00  0.00     0.044 C 
BRANCH   8  10
HETATM   10  N   UNL     1     -40.746 -52.459  14.421  1.00  0.00     0.099 N 
HETATM   11  C   UNL     1     -39.618 -53.128  15.130  1.00  0.00     0.304 C 
HETATM   12  C   UNL     1     -39.663 -54.672  15.047  1.00  0.00     0.146 C 
HETATM   13  C   UNL     1     -38.516 -55.289  15.838  1.00  0.00     0.041 C 
HETATM   14  O   UNL     1     -40.897 -55.168  15.598  1.00  0.00    -0.378 OA
HETATM   15  C   UNL     1     -42.031 -54.593  14.928  1.00  0.00     0.146 C 
HETATM   16  C   UNL     1     -43.290 -55.133  15.592  1.00  0.00     0.041 C 
HETATM   17  C   UNL     1     -41.982 -53.048  15.006  1.00  0.00     0.304 C 
ENDBRANCH   8  10
ENDBRANCH   7   8
ENDBRANCH   1   7
BRANCH   4  18
HETATM   18  C   UNL     1     -41.645 -47.516  10.323  1.00  0.00     0.152 A 
HETATM   19  N   UNL     1     -40.861 -46.470  10.303  1.00  0.00    -0.346 N 
HETATM   20  C   UNL     1     -41.626 -45.325  10.234  1.00  0.00     0.097 A 
ATOM     21  HN  UNL     1     -39.842 -46.497  10.334  1.00  0.00     0.167 HD
HETATM   22  C   UNL     1     -42.990 -45.523  10.215  1.00  0.00     0.070 A 
HETATM   23  S   UNL     1     -43.325 -47.204  10.328  1.00  0.00    -0.064 SA
ENDBRANCH   4  18
TORSDOF 4
ENDMDL
MODEL 8
REMARK VINA RESULT:      -5.4      2.162      3.022
REMARK  4 active torsions:
REMARK  status: ('A' for Active; 'I' for Inactive)
REMARK    1  A    between atoms: C_2  and  C_3 
REMARK    2  A    between atoms: C_2  and  N_14 
REMARK    3  A    between atoms: C_3  and  N_4 
REMARK       I    between atoms: N_4  and  C_5 
REMARK       I    between atoms: C_5  and  N_7 
REMARK    4  A    between atoms: N_7  and  C_8 
ROOT
HETATM    1  N   UNL     1     -41.840 -53.052  12.167  1.00  0.00    -0.341 N 
HETATM    2  C   UNL     1     -41.890 -51.668  12.133  1.00  0.00     0.322 C 
HETATM    3  O   UNL     1     -42.817 -51.049  12.638  1.00  0.00    -0.247 OA
HETATM    4  N   UNL     1     -40.770 -51.148  11.539  1.00  0.00    -0.289 N 
HETATM    5  H   UNL     1     -41.328 -53.514  11.431  1.00  0.00     0.164 HD
HETATM    6  H   UNL     1     -39.935 -51.708  11.496  1.00  0.00     0.172 HD
ENDROOT
BRANCH   1   7
HETATM    7  C   UNL     1     -42.902 -53.801  12.827  1.00  0.00     0.159 C 
BRANCH   7   8
HETATM    8  C   UNL     1     -42.794 -53.732  14.381  1.00  0.00     0.237 C 
HETATM    9  C   UNL     1     -41.560 -54.563  14.795  1.00  0.00     0.044 C 
BRANCH   8  10
HETATM   10  N   UNL     1     -44.023 -54.215  15.079  1.00  0.00     0.099 N 
HETATM   11  C   UNL     1     -45.265 -53.555  14.588  1.00  0.00     0.304 C 
HETATM   12  C   UNL     1     -45.360 -52.056  14.962  1.00  0.00     0.146 C 
HETATM   13  C   UNL     1     -46.677 -51.461  14.480  1.00  0.00     0.041 C 
HETATM   14  O   UNL     1     -45.298 -51.891  16.391  1.00  0.00    -0.378 OA
HETATM   15  C   UNL     1     -44.096 -52.471  16.927  1.00  0.00     0.146 C 
HETATM   16  C   UNL     1     -44.126 -52.293  18.438  1.00  0.00     0.041 C 
HETATM   17  C   UNL     1     -44.000 -53.968  16.547  1.00  0.00     0.304 C 
ENDBRANCH   8  10
ENDBRANCH   7   8
ENDBRANCH   1   7
BRANCH   4  18
HETATM   18  C   UNL     1     -40.622 -49.801  11.361  1.00  0.00     0.152 A 
HETATM   19  N   UNL     1     -41.321 -48.982  10.618  1.00  0.00    -0.346 N 
HETATM   20  C   UNL     1     -40.843 -47.698  10.776  1.00  0.00     0.097 A 
ATOM     21  HN  UNL     1     -42.099 -49.252  10.016  1.00  0.00     0.167 HD
HETATM   22  C   UNL     1     -39.772 -47.565  11.634  1.00  0.00     0.070 A 
HETATM   23  S   UNL     1     -39.323 -49.112  12.232  1.00  0.00    -0.064 SA
ENDBRANCH   4  18
TORSDOF 4
ENDMDL
MODEL 9
REMARK VINA RESULT:      -5.4      2.924      3.879
REMARK  4 active torsions:
REMARK  status: ('A' for Active; 'I' for Inactive)
REMARK    1  A    between atoms: C_2  and  C_3 
REMARK    2  A    between atoms: C_2  and  N_14 
REMARK    3  A    between atoms: C_3  and  N_4 
REMARK       I    between atoms: N_4  and  C_5 
REMARK       I    between atoms: C_5  and  N_7 
REMARK    4  A    between atoms: N_7  and  C_8 
ROOT
HETATM    1  N   UNL     1     -42.865 -53.140  12.123  1.00  0.00    -0.341 N 
HETATM    2  C   UNL     1     -42.111 -51.987  12.266  1.00  0.00     0.322 C 
HETATM    3  O   UNL     1     -42.626 -50.918  12.564  1.00  0.00    -0.247 OA
HETATM    4  N   UNL     1     -40.777 -52.246  12.094  1.00  0.00    -0.289 N 
HETATM    5  H   UNL     1     -42.506 -53.855  11.509  1.00  0.00     0.164 HD
HETATM    6  H   UNL     1     -40.442 -53.187  12.216  1.00  0.00     0.172 HD
ENDROOT
BRANCH   1   7
HETATM    7  C   UNL     1     -44.305 -53.097  12.343  1.00  0.00     0.159 C 
BRANCH   7   8
HETATM    8  C   UNL     1     -44.695 -53.538  13.787  1.00  0.00     0.237 C 
HETATM    9  C   UNL     1     -45.116 -55.023  13.718  1.00  0.00     0.044 C 
BRANCH   8  10
HETATM   10  N   UNL     1     -45.778 -52.702  14.386  1.00  0.00     0.099 N 
HETATM   11  C   UNL     1     -45.335 -51.312  14.692  1.00  0.00     0.304 C 
HETATM   12  C   UNL     1     -44.309 -51.228  15.848  1.00  0.00     0.146 C 
HETATM   13  C   UNL     1     -43.945 -49.779  16.142  1.00  0.00     0.041 C 
HETATM   14  O   UNL     1     -44.861 -51.798  17.049  1.00  0.00    -0.378 OA
HETATM   15  C   UNL     1     -45.271 -53.159  16.836  1.00  0.00     0.146 C 
HETATM   16  C   UNL     1     -45.878 -53.673  18.134  1.00  0.00     0.041 C 
HETATM   17  C   UNL     1     -46.292 -53.242  15.675  1.00  0.00     0.304 C 
ENDBRANCH   8  10
ENDBRANCH   7   8
ENDBRANCH   1   7
BRANCH   4  18
HETATM   18  C   UNL     1     -39.846 -51.246  12.151  1.00  0.00     0.152 A 
HETATM   19  N   UNL     1     -39.646 -50.254  11.323  1.00  0.00    -0.346 N 
HETATM   20  C   UNL     1     -38.624 -49.459  11.799  1.00  0.00     0.097 A 
ATOM     21  HN  UNL     1     -40.165 -50.093  10.460  1.00  0.00     0.167 HD
HETATM   22  C   UNL     1     -38.053 -49.872  12.984  1.00  0.00     0.070 A 
HETATM   23  S   UNL     1     -38.798 -51.332  13.498  1.00  0.00    -0.064 SA
ENDBRANCH   4  18
TORSDOF 4
ENDMDL
