MODEL 1
REMARK VINA RESULT:      -5.6      0.000      0.000
REMARK  7 active torsions:
REMARK  status: ('A' for Active; 'I' for Inactive)
REMARK    1  A    between atoms: O_2  and  C_3 
REMARK    2  A    between atoms: C_3  and  C_4 
REMARK    3  A    between atoms: C_4  and  O_5 
REMARK    4  A    between atoms: O_5  and  C_6 
REMARK    5  A    between atoms: C_12  and  C_13 
REMARK       I    between atoms: C_13  and  N_15 
REMARK    6  A    between atoms: N_15  and  C_16 
REMARK    7  A    between atoms: C_16  and  C_17 
ROOT
HETATM    1  C   UNL     1     -41.184 -49.160  11.468  1.00  0.00     0.158 A 
HETATM    2  N   UNL     1     -40.599 -48.105  10.838  1.00  0.00    -0.346 N 
ATOM      3  HN  UNL     1     -39.720 -48.217  10.332  1.00  0.00     0.167 HD
HETATM    4  C   UNL     1     -41.218 -46.906  10.904  1.00  0.00     0.090 A 
HETATM    5  C   UNL     1     -42.410 -46.698  11.569  1.00  0.00     0.018 A 
HETATM    6  C   UNL     1     -42.993 -47.783  12.209  1.00  0.00     0.023 A 
HETATM    7  C   UNL     1     -42.388 -49.050  12.164  1.00  0.00     0.083 A 
ENDROOT
BRANCH   7   8
HETATM    8  C   UNL     1     -43.066 -50.141  12.909  1.00  0.00     0.256 C 
HETATM    9  O   UNL     1     -43.588 -49.884  13.992  1.00  0.00    -0.268 OA
HETATM   10  N   UNL     1     -43.113 -51.397  12.351  1.00  0.00    -0.354 N 
HETATM   11  H   UNL     1     -42.556 -51.594  11.523  1.00  0.00     0.162 HD
BRANCH  10  12
HETATM   12  C   UNL     1     -43.620 -52.530  13.112  1.00  0.00     0.156 C 
BRANCH  12  13
HETATM   13  C   UNL     1     -44.999 -53.012  12.621  1.00  0.00     0.167 C 
HETATM   14  C   UNL     1     -46.149 -52.342  13.406  1.00  0.00     0.305 C 
HETATM   15  N   UNL     1     -46.148 -52.776  14.817  1.00  0.00     0.088 N 
HETATM   16  C   UNL     1     -47.220 -52.132  15.572  1.00  0.00     0.310 C 
HETATM   17  C   UNL     1     -46.284 -54.244  14.858  1.00  0.00     0.298 C 
HETATM   18  C   UNL     1     -45.210 -54.951  14.010  1.00  0.00     0.198 C 
HETATM   19  O   UNL     1     -45.131 -54.451  12.668  1.00  0.00    -0.381 OA
ENDBRANCH  12  13
ENDBRANCH  10  12
ENDBRANCH   7   8
BRANCH   1  20
HETATM   20  O   UNL     1     -40.560 -50.390  11.371  1.00  0.00    -0.333 OA
BRANCH  20  21
HETATM   21  C   UNL     1     -39.372 -50.485  12.175  1.00  0.00     0.203 C 
BRANCH  21  22
HETATM   22  C   UNL     1     -39.549 -51.600  13.203  1.00  0.00     0.193 C 
BRANCH  22  23
HETATM   23  O   UNL     1     -40.148 -52.736  12.574  1.00  0.00    -0.394 OA
HETATM   24  C   UNL     1     -40.186 -53.863  13.440  1.00  0.00     0.201 C 
ENDBRANCH  22  23
ENDBRANCH  21  22
ENDBRANCH  20  21
ENDBRANCH   1  20
TORSDOF 7
ENDMDL
MODEL 2
REMARK VINA RESULT:      -5.4      1.693      3.670
REMARK  7 active torsions:
REMARK  status: ('A' for Active; 'I' for Inactive)
REMARK    1  A    between atoms: O_2  and  C_3 
REMARK    2  A    between atoms: C_3  and  C_4 
REMARK    3  A    between atoms: C_4  and  O_5 
REMARK    4  A    between atoms: O_5  and  C_6 
REMARK    5  A    between atoms: C_12  and  C_13 
REMARK       I    between atoms: C_13  and  N_15 
REMARK    6  A    between atoms: N_15  and  C_16 
REMARK    7  A    between atoms: C_16  and  C_17 
ROOT
HETATM    1  C   UNL     1     -39.898 -50.137  11.545  1.00  0.00     0.158 A 
HETATM    2  N   UNL     1     -38.758 -49.660  10.975  1.00  0.00    -0.346 N 
ATOM      3  HN  UNL     1     -38.794 -49.047  10.160  1.00  0.00     0.167 HD
HETATM    4  C   UNL     1     -37.578 -50.023  11.521  1.00  0.00     0.090 A 
HETATM    5  C   UNL     1     -37.468 -50.845  12.626  1.00  0.00     0.018 A 
HETATM    6  C   UNL     1     -38.640 -51.326  13.195  1.00  0.00     0.023 A 
HETATM    7  C   UNL     1     -39.891 -50.971  12.663  1.00  0.00     0.083 A 
ENDROOT
BRANCH   7   8
HETATM    8  C   UNL     1     -41.086 -51.563  13.316  1.00  0.00     0.256 C 
HETATM    9  O   UNL     1     -41.414 -51.159  14.430  1.00  0.00    -0.268 OA
HETATM   10  N   UNL     1     -41.803 -52.523  12.642  1.00  0.00    -0.354 N 
HETATM   11  H   UNL     1     -41.422 -52.920  11.787  1.00  0.00     0.162 HD
BRANCH  10  12
HETATM   12  C   UNL     1     -42.881 -53.246  13.304  1.00  0.00     0.156 C 
BRANCH  12  13
HETATM   13  C   UNL     1     -44.204 -53.202  12.515  1.00  0.00     0.167 C 
HETATM   14  C   UNL     1     -45.154 -52.111  13.058  1.00  0.00     0.305 C 
HETATM   15  N   UNL     1     -45.612 -52.441  14.422  1.00  0.00     0.088 N 
HETATM   16  C   UNL     1     -46.496 -51.405  14.951  1.00  0.00     0.310 C 
HETATM   17  C   UNL     1     -46.295 -53.747  14.386  1.00  0.00     0.298 C 
HETATM   18  C   UNL     1     -45.415 -54.848  13.764  1.00  0.00     0.198 C 
HETATM   19  O   UNL     1     -44.874 -54.483  12.487  1.00  0.00    -0.381 OA
ENDBRANCH  12  13
ENDBRANCH  10  12
ENDBRANCH   7   8
BRANCH   1  20
HETATM   20  O   UNL     1     -41.103 -49.736  10.999  1.00  0.00    -0.333 OA
BRANCH  20  21
HETATM   21  C   UNL     1     -41.286 -48.311  11.018  1.00  0.00     0.203 C 
BRANCH  21  22
HETATM   22  C   UNL     1     -42.353 -47.927   9.995  1.00  0.00     0.193 C 
BRANCH  22  23
HETATM   23  O   UNL     1     -43.602 -47.730  10.662  1.00  0.00    -0.394 OA
HETATM   24  C   UNL     1     -44.649 -47.431   9.749  1.00  0.00     0.201 C 
ENDBRANCH  22  23
ENDBRANCH  21  22
ENDBRANCH  20  21
ENDBRANCH   1  20
TORSDOF 7
ENDMDL
MODEL 3
REMARK VINA RESULT:      -5.4      2.646      4.734
REMARK  7 active torsions:
REMARK  status: ('A' for Active; 'I' for Inactive)
REMARK    1  A    between atoms: O_2  and  C_3 
REMARK    2  A    between atoms: C_3  and  C_4 
REMARK    3  A    between atoms: C_4  and  O_5 
REMARK    4  A    between atoms: O_5  and  C_6 
REMARK    5  A    between atoms: C_12  and  C_13 
REMARK       I    between atoms: C_13  and  N_15 
REMARK    6  A    between atoms: N_15  and  C_16 
REMARK    7  A    between atoms: C_16  and  C_17 
ROOT
HETATM    1  C   UNL     1     -42.197 -46.745  10.142  1.00  0.00     0.158 A 
HETATM    2  N   UNL     1     -42.597 -45.834   9.214  1.00  0.00    -0.346 N 
ATOM      3  HN  UNL     1     -41.952 -45.127   8.858  1.00  0.00     0.167 HD
HETATM    4  C   UNL     1     -43.874 -45.893   8.778  1.00  0.00     0.090 A 
HETATM    5  C   UNL     1     -44.789 -46.830   9.218  1.00  0.00     0.018 A 
HETATM    6  C   UNL     1     -44.367 -47.751  10.167  1.00  0.00     0.023 A 
HETATM    7  C   UNL     1     -43.046 -47.730  10.647  1.00  0.00     0.083 A 
ENDROOT
BRANCH   7   8
HETATM    8  C   UNL     1     -42.697 -48.731  11.687  1.00  0.00     0.256 C 
HETATM    9  O   UNL     1     -43.201 -48.625  12.804  1.00  0.00    -0.268 OA
HETATM   10  N   UNL     1     -41.843 -49.758  11.361  1.00  0.00    -0.354 N 
HETATM   11  H   UNL     1     -41.349 -49.730  10.473  1.00  0.00     0.162 HD
BRANCH  10  12
HETATM   12  C   UNL     1     -41.345 -50.664  12.386  1.00  0.00     0.156 C 
BRANCH  12  13
HETATM   13  C   UNL     1     -41.455 -52.146  11.980  1.00  0.00     0.167 C 
HETATM   14  C   UNL     1     -42.706 -52.814  12.597  1.00  0.00     0.305 C 
HETATM   15  N   UNL     1     -42.588 -52.898  14.066  1.00  0.00     0.088 N 
HETATM   16  C   UNL     1     -43.774 -53.511  14.659  1.00  0.00     0.310 C 
HETATM   17  C   UNL     1     -41.376 -53.670  14.397  1.00  0.00     0.298 C 
HETATM   18  C   UNL     1     -40.116 -53.092  13.725  1.00  0.00     0.198 C 
HETATM   19  O   UNL     1     -40.268 -52.901  12.312  1.00  0.00    -0.381 OA
ENDBRANCH  12  13
ENDBRANCH  10  12
ENDBRANCH   7   8
BRANCH   1  20
HETATM   20  O   UNL     1     -40.881 -46.696  10.561  1.00  0.00    -0.333 OA
BRANCH  20  21
HETATM   21  C   UNL     1     -40.605 -45.582  11.426  1.00  0.00     0.203 C 
BRANCH  21  22
HETATM   22  C   UNL     1     -39.494 -44.733  10.811  1.00  0.00     0.193 C 
BRANCH  22  23
HETATM   23  O   UNL     1     -39.728 -44.586   9.408  1.00  0.00    -0.394 OA
HETATM   24  C   UNL     1     -38.515 -44.540   8.670  1.00  0.00     0.201 C 
ENDBRANCH  22  23
ENDBRANCH  21  22
ENDBRANCH  20  21
ENDBRANCH   1  20
TORSDOF 7
ENDMDL
MODEL 4
REMARK VINA RESULT:      -5.2      3.091      5.116
REMARK  7 active torsions:
REMARK  status: ('A' for Active; 'I' for Inactive)
REMARK    1  A    between atoms: O_2  and  C_3 
REMARK    2  A    between atoms: C_3  and  C_4 
REMARK    3  A    between atoms: C_4  and  O_5 
REMARK    4  A    between atoms: O_5  and  C_6 
REMARK    5  A    between atoms: C_12  and  C_13 
REMARK       I    between atoms: C_13  and  N_15 
REMARK    6  A    between atoms: N_15  and  C_16 
REMARK    7  A    between atoms: C_16  and  C_17 
ROOT
HETATM    1  C   UNL     1     -41.820 -47.301  10.492  1.00  0.00     0.158 A 
HETATM    2  N   UNL     1     -41.372 -46.170   9.881  1.00  0.00    -0.346 N 
ATOM      3  HN  UNL     1     -41.774 -45.854   8.998  1.00  0.00     0.167 HD
HETATM    4  C   UNL     1     -40.378 -45.479  10.481  1.00  0.00     0.090 A 
HETATM    5  C   UNL     1     -39.801 -45.855  11.678  1.00  0.00     0.018 A 
HETATM    6  C   UNL     1     -40.267 -47.013  12.287  1.00  0.00     0.023 A 
HETATM    7  C   UNL     1     -41.302 -47.762  11.702  1.00  0.00     0.083 A 
ENDROOT
BRANCH   7   8
HETATM    8  C   UNL     1     -41.709 -49.003  12.407  1.00  0.00     0.256 C 
HETATM    9  O   UNL     1     -41.931 -48.953  13.616  1.00  0.00    -0.268 OA
HETATM   10  N   UNL     1     -41.851 -50.163  11.682  1.00  0.00    -0.354 N 
HETATM   11  H   UNL     1     -41.530 -50.188  10.718  1.00  0.00     0.162 HD
BRANCH  10  12
HETATM   12  C   UNL     1     -42.088 -51.434  12.353  1.00  0.00     0.156 C 
BRANCH  12  13
HETATM   13  C   UNL     1     -40.951 -52.450  12.128  1.00  0.00     0.167 C 
HETATM   14  C   UNL     1     -41.162 -53.733  12.963  1.00  0.00     0.305 C 
HETATM   15  N   UNL     1     -41.049 -53.447  14.407  1.00  0.00     0.088 N 
HETATM   16  C   UNL     1     -41.266 -54.651  15.205  1.00  0.00     0.310 C 
HETATM   17  C   UNL     1     -39.715 -52.875  14.670  1.00  0.00     0.298 C 
HETATM   18  C   UNL     1     -39.425 -51.646  13.789  1.00  0.00     0.198 C 
HETATM   19  O   UNL     1     -39.646 -51.888  12.393  1.00  0.00    -0.381 OA
ENDBRANCH  12  13
ENDBRANCH  10  12
ENDBRANCH   7   8
BRANCH   1  20
HETATM   20  O   UNL     1     -42.857 -47.986   9.887  1.00  0.00    -0.333 OA
BRANCH  20  21
HETATM   21  C   UNL     1     -43.316 -47.363   8.676  1.00  0.00     0.203 C 
BRANCH  21  22
HETATM   22  C   UNL     1     -44.701 -46.764   8.912  1.00  0.00     0.193 C 
BRANCH  22  23
HETATM   23  O   UNL     1     -45.615 -47.806   9.267  1.00  0.00    -0.394 OA
HETATM   24  C   UNL     1     -46.968 -47.401   9.107  1.00  0.00     0.201 C 
ENDBRANCH  22  23
ENDBRANCH  21  22
ENDBRANCH  20  21
ENDBRANCH   1  20
TORSDOF 7
ENDMDL
MODEL 5
REMARK VINA RESULT:      -5.1      1.644      6.345
REMARK  7 active torsions:
REMARK  status: ('A' for Active; 'I' for Inactive)
REMARK    1  A    between atoms: O_2  and  C_3 
REMARK    2  A    between atoms: C_3  and  C_4 
REMARK    3  A    between atoms: C_4  and  O_5 
REMARK    4  A    between atoms: O_5  and  C_6 
REMARK    5  A    between atoms: C_12  and  C_13 
REMARK       I    between atoms: C_13  and  N_15 
REMARK    6  A    between atoms: N_15  and  C_16 
REMARK    7  A    between atoms: C_16  and  C_17 
ROOT
HETATM    1  C   UNL     1     -44.482 -52.605  13.130  1.00  0.00     0.158 A 
HETATM    2  N   UNL     1     -45.348 -53.650  13.225  1.00  0.00    -0.346 N 
ATOM      3  HN  UNL     1     -45.172 -54.526  12.731  1.00  0.00     0.167 HD
HETATM    4  C   UNL     1     -46.446 -53.494  13.995  1.00  0.00     0.090 A 
HETATM    5  C   UNL     1     -46.732 -52.335  14.691  1.00  0.00     0.018 A 
HETATM    6  C   UNL     1     -45.841 -51.277  14.582  1.00  0.00     0.023 A 
HETATM    7  C   UNL     1     -44.682 -51.396  13.796  1.00  0.00     0.083 A 
ENDROOT
BRANCH   7   8
HETATM    8  C   UNL     1     -43.807 -50.199  13.710  1.00  0.00     0.256 C 
HETATM    9  O   UNL     1     -43.500 -49.614  14.747  1.00  0.00    -0.268 OA
HETATM   10  N   UNL     1     -43.346 -49.800  12.478  1.00  0.00    -0.354 N 
HETATM   11  H   UNL     1     -43.731 -50.230  11.641  1.00  0.00     0.162 HD
BRANCH  10  12
HETATM   12  C   UNL     1     -42.624 -48.545  12.326  1.00  0.00     0.156 C 
BRANCH  12  13
HETATM   13  C   UNL     1     -41.872 -48.445  10.985  1.00  0.00     0.167 C 
HETATM   14  C   UNL     1     -40.637 -47.521  11.092  1.00  0.00     0.305 C 
HETATM   15  N   UNL     1     -41.044 -46.122  11.329  1.00  0.00     0.088 N 
HETATM   16  C   UNL     1     -39.883 -45.245  11.451  1.00  0.00     0.310 C 
HETATM   17  C   UNL     1     -41.916 -45.691  10.220  1.00  0.00     0.298 C 
HETATM   18  C   UNL     1     -43.112 -46.639  10.018  1.00  0.00     0.198 C 
HETATM   19  O   UNL     1     -42.727 -48.016   9.902  1.00  0.00    -0.381 OA
ENDBRANCH  12  13
ENDBRANCH  10  12
ENDBRANCH   7   8
BRANCH   1  20
HETATM   20  O   UNL     1     -43.344 -52.784  12.365  1.00  0.00    -0.333 OA
BRANCH  20  21
HETATM   21  C   UNL     1     -42.321 -53.532  13.041  1.00  0.00     0.203 C 
BRANCH  21  22
HETATM   22  C   UNL     1     -40.958 -53.152  12.466  1.00  0.00     0.193 C 
BRANCH  22  23
HETATM   23  O   UNL     1     -40.949 -51.759  12.144  1.00  0.00    -0.394 OA
HETATM   24  C   UNL     1     -39.862 -51.080  12.756  1.00  0.00     0.201 C 
ENDBRANCH  22  23
ENDBRANCH  21  22
ENDBRANCH  20  21
ENDBRANCH   1  20
TORSDOF 7
ENDMDL
MODEL 6
REMARK VINA RESULT:      -5.0      1.919      6.876
REMARK  7 active torsions:
REMARK  status: ('A' for Active; 'I' for Inactive)
REMARK    1  A    between atoms: O_2  and  C_3 
REMARK    2  A    between atoms: C_3  and  C_4 
REMARK    3  A    between atoms: C_4  and  O_5 
REMARK    4  A    between atoms: O_5  and  C_6 
REMARK    5  A    between atoms: C_12  and  C_13 
REMARK       I    between atoms: C_13  and  N_15 
REMARK    6  A    between atoms: N_15  and  C_16 
REMARK    7  A    between atoms: C_16  and  C_17 
ROOT
HETATM    1  C   UNL     1     -41.697 -53.160  13.359  1.00  0.00     0.158 A 
HETATM    2  N   UNL     1     -41.998 -54.181  14.206  1.00  0.00    -0.346 N 
ATOM      3  HN  UNL     1     -42.926 -54.604  14.211  1.00  0.00     0.167 HD
HETATM    4  C   UNL     1     -41.029 -54.617  15.040  1.00  0.00     0.090 A 
HETATM    5  C   UNL     1     -39.754 -54.087  15.074  1.00  0.00     0.018 A 
HETATM    6  C   UNL     1     -39.463 -53.043  14.205  1.00  0.00     0.023 A 
HETATM    7  C   UNL     1     -40.439 -52.559  13.317  1.00  0.00     0.083 A 
ENDROOT
BRANCH   7   8
HETATM    8  C   UNL     1     -40.047 -51.417  12.452  1.00  0.00     0.256 C 
HETATM    9  O   UNL     1     -38.861 -51.274  12.160  1.00  0.00    -0.268 OA
HETATM   10  N   UNL     1     -41.026 -50.573  11.983  1.00  0.00    -0.354 N 
HETATM   11  H   UNL     1     -41.968 -50.650  12.356  1.00  0.00     0.162 HD
BRANCH  10  12
HETATM   12  C   UNL     1     -40.674 -49.352  11.271  1.00  0.00     0.156 C 
BRANCH  12  13
HETATM   13  C   UNL     1     -41.668 -48.203  11.527  1.00  0.00     0.167 C 
HETATM   14  C   UNL     1     -41.330 -46.958  10.675  1.00  0.00     0.305 C 
HETATM   15  N   UNL     1     -40.046 -46.364  11.097  1.00  0.00     0.088 N 
HETATM   16  C   UNL     1     -39.708 -45.198  10.284  1.00  0.00     0.310 C 
HETATM   17  C   UNL     1     -40.140 -46.002  12.523  1.00  0.00     0.298 C 
HETATM   18  C   UNL     1     -40.567 -47.194  13.399  1.00  0.00     0.198 C 
HETATM   19  O   UNL     1     -41.753 -47.846  12.925  1.00  0.00    -0.381 OA
ENDBRANCH  12  13
ENDBRANCH  10  12
ENDBRANCH   7   8
BRANCH   1  20
HETATM   20  O   UNL     1     -42.684 -52.739  12.488  1.00  0.00    -0.333 OA
BRANCH  20  21
HETATM   21  C   UNL     1     -43.896 -52.346  13.155  1.00  0.00     0.203 C 
BRANCH  21  22
HETATM   22  C   UNL     1     -45.076 -53.088  12.531  1.00  0.00     0.193 C 
BRANCH  22  23
HETATM   23  O   UNL     1     -44.862 -54.498  12.640  1.00  0.00    -0.394 OA
HETATM   24  C   UNL     1     -45.454 -55.035  13.816  1.00  0.00     0.201 C 
ENDBRANCH  22  23
ENDBRANCH  21  22
ENDBRANCH  20  21
ENDBRANCH   1  20
TORSDOF 7
ENDMDL
MODEL 7
REMARK VINA RESULT:      -4.9      4.156      6.831
REMARK  7 active torsions:
REMARK  status: ('A' for Active; 'I' for Inactive)
REMARK    1  A    between atoms: O_2  and  C_3 
REMARK    2  A    between atoms: C_3  and  C_4 
REMARK    3  A    between atoms: C_4  and  O_5 
REMARK    4  A    between atoms: O_5  and  C_6 
REMARK    5  A    between atoms: C_12  and  C_13 
REMARK       I    between atoms: C_13  and  N_15 
REMARK    6  A    between atoms: N_15  and  C_16 
REMARK    7  A    between atoms: C_16  and  C_17 
ROOT
HETATM    1  C   UNL     1     -42.710 -53.995  13.203  1.00  0.00     0.158 A 
HETATM    2  N   UNL     1     -43.448 -53.340  12.266  1.00  0.00    -0.346 N 
ATOM      3  HN  UNL     1     -43.006 -52.925  11.445  1.00  0.00     0.167 HD
HETATM    4  C   UNL     1     -44.782 -53.257  12.456  1.00  0.00     0.090 A 
HETATM    5  C   UNL     1     -45.435 -53.805  13.543  1.00  0.00     0.018 A 
HETATM    6  C   UNL     1     -44.669 -54.467  14.492  1.00  0.00     0.023 A 
HETATM    7  C   UNL     1     -43.277 -54.583  14.335  1.00  0.00     0.083 A 
ENDROOT
BRANCH   7   8
HETATM    8  C   UNL     1     -42.537 -55.277  15.419  1.00  0.00     0.256 C 
HETATM    9  O   UNL     1     -43.011 -56.307  15.895  1.00  0.00    -0.268 OA
HETATM   10  N   UNL     1     -41.333 -54.761  15.837  1.00  0.00    -0.354 N 
HETATM   11  H   UNL     1     -41.047 -53.841  15.513  1.00  0.00     0.162 HD
BRANCH  10  12
HETATM   12  C   UNL     1     -40.654 -55.311  17.003  1.00  0.00     0.156 C 
BRANCH  12  13
HETATM   13  C   UNL     1     -39.800 -56.548  16.669  1.00  0.00     0.167 C 
HETATM   14  C   UNL     1     -39.488 -57.383  17.932  1.00  0.00     0.305 C 
HETATM   15  N   UNL     1     -38.612 -56.635  18.855  1.00  0.00     0.088 N 
HETATM   16  C   UNL     1     -38.327 -57.408  20.061  1.00  0.00     0.310 C 
HETATM   17  C   UNL     1     -37.366 -56.290  18.145  1.00  0.00     0.298 C 
HETATM   18  C   UNL     1     -37.635 -55.537  16.829  1.00  0.00     0.198 C 
HETATM   19  O   UNL     1     -38.576 -56.206  15.979  1.00  0.00    -0.381 OA
ENDBRANCH  12  13
ENDBRANCH  10  12
ENDBRANCH   7   8
BRANCH   1  20
HETATM   20  O   UNL     1     -41.349 -54.102  12.987  1.00  0.00    -0.333 OA
BRANCH  20  21
HETATM   21  C   UNL     1     -40.788 -52.948  12.340  1.00  0.00     0.203 C 
BRANCH  21  22
HETATM   22  C   UNL     1     -40.050 -52.101  13.375  1.00  0.00     0.193 C 
BRANCH  22  23
HETATM   23  O   UNL     1     -39.380 -52.960  14.302  1.00  0.00    -0.394 OA
HETATM   24  C   UNL     1     -38.882 -52.243  15.423  1.00  0.00     0.201 C 
ENDBRANCH  22  23
ENDBRANCH  21  22
ENDBRANCH  20  21
ENDBRANCH   1  20
TORSDOF 7
ENDMDL
MODEL 8
REMARK VINA RESULT:      -4.7      3.039      5.677
REMARK  7 active torsions:
REMARK  status: ('A' for Active; 'I' for Inactive)
REMARK    1  A    between atoms: O_2  and  C_3 
REMARK    2  A    between atoms: C_3  and  C_4 
REMARK    3  A    between atoms: C_4  and  O_5 
REMARK    4  A    between atoms: O_5  and  C_6 
REMARK    5  A    between atoms: C_12  and  C_13 
REMARK       I    between atoms: C_13  and  N_15 
REMARK    6  A    between atoms: N_15  and  C_16 
REMARK    7  A    between atoms: C_16  and  C_17 
ROOT
HETATM    1  C   UNL     1     -42.790 -46.181  10.789  1.00  0.00     0.158 A 
HETATM    2  N   UNL     1     -43.615 -45.367  10.076  1.00  0.00    -0.346 N 
ATOM      3  HN  UNL     1     -43.903 -44.459  10.443  1.00  0.00     0.167 HD
HETATM    4  C   UNL     1     -44.042 -45.798   8.870  1.00  0.00     0.090 A 
HETATM    5  C   UNL     1     -43.681 -47.014   8.321  1.00  0.00     0.018 A 
HETATM    6  C   UNL     1     -42.840 -47.834   9.061  1.00  0.00     0.023 A 
HETATM    7  C   UNL     1     -42.368 -47.426  10.320  1.00  0.00     0.083 A 
ENDROOT
BRANCH   7   8
HETATM    8  C   UNL     1     -41.504 -48.385  11.053  1.00  0.00     0.256 C 
HETATM    9  O   UNL     1     -40.364 -48.040  11.362  1.00  0.00    -0.268 OA
HETATM   10  N   UNL     1     -42.013 -49.618  11.386  1.00  0.00    -0.354 N 
HETATM   11  H   UNL     1     -42.906 -49.908  10.996  1.00  0.00     0.162 HD
BRANCH  10  12
HETATM   12  C   UNL     1     -41.155 -50.647  11.958  1.00  0.00     0.156 C 
BRANCH  12  13
HETATM   13  C   UNL     1     -41.617 -51.103  13.355  1.00  0.00     0.167 C 
HETATM   14  C   UNL     1     -40.624 -52.108  13.982  1.00  0.00     0.305 C 
HETATM   15  N   UNL     1     -40.609 -53.376  13.226  1.00  0.00     0.088 N 
HETATM   16  C   UNL     1     -39.658 -54.325  13.799  1.00  0.00     0.310 C 
HETATM   17  C   UNL     1     -41.973 -53.936  13.218  1.00  0.00     0.298 C 
HETATM   18  C   UNL     1     -43.012 -52.931  12.687  1.00  0.00     0.198 C 
HETATM   19  O   UNL     1     -42.951 -51.657  13.343  1.00  0.00    -0.381 OA
ENDBRANCH  12  13
ENDBRANCH  10  12
ENDBRANCH   7   8
BRANCH   1  20
HETATM   20  O   UNL     1     -42.333 -45.721  12.009  1.00  0.00    -0.333 OA
BRANCH  20  21
HETATM   21  C   UNL     1     -41.913 -44.347  11.973  1.00  0.00     0.203 C 
BRANCH  21  22
HETATM   22  C   UNL     1     -42.406 -43.638  13.233  1.00  0.00     0.193 C 
BRANCH  22  23
HETATM   23  O   UNL     1     -43.433 -42.707  12.884  1.00  0.00    -0.394 OA
HETATM   24  C   UNL     1     -43.238 -42.163  11.586  1.00  0.00     0.201 C 
ENDBRANCH  22  23
ENDBRANCH  21  22
ENDBRANCH  20  21
ENDBRANCH   1  20
TORSDOF 7
ENDMDL
MODEL 9
REMARK VINA RESULT:      -4.7      2.372      6.084
REMARK  7 active torsions:
REMARK  status: ('A' for Active; 'I' for Inactive)
REMARK    1  A    between atoms: O_2  and  C_3 
REMARK    2  A    between atoms: C_3  and  C_4 
REMARK    3  A    between atoms: C_4  and  O_5 
REMARK    4  A    between atoms: O_5  and  C_6 
REMARK    5  A    between atoms: C_12  and  C_13 
REMARK       I    between atoms: C_13  and  N_15 
REMARK    6  A    between atoms: N_15  and  C_16 
REMARK    7  A    between atoms: C_16  and  C_17 
ROOT
HETATM    1  C   UNL     1     -44.402 -52.319  14.960  1.00  0.00     0.158 A 
HETATM    2  N   UNL     1     -45.585 -52.751  15.475  1.00  0.00    -0.346 N 
ATOM      3  HN  UNL     1     -45.613 -53.326  16.318  1.00  0.00     0.167 HD
HETATM    4  C   UNL     1     -46.721 -52.395  14.837  1.00  0.00     0.090 A 
HETATM    5  C   UNL     1     -46.744 -51.615  13.697  1.00  0.00     0.018 A 
HETATM    6  C   UNL     1     -45.529 -51.185  13.181  1.00  0.00     0.023 A 
HETATM    7  C   UNL     1     -44.322 -51.527  13.814  1.00  0.00     0.083 A 
ENDROOT
BRANCH   7   8
HETATM    8  C   UNL     1     -43.071 -51.052  13.170  1.00  0.00     0.256 C 
HETATM    9  O   UNL     1     -42.998 -49.877  12.813  1.00  0.00    -0.268 OA
HETATM   10  N   UNL     1     -42.027 -51.932  13.018  1.00  0.00    -0.354 N 
HETATM   11  H   UNL     1     -42.178 -52.920  13.204  1.00  0.00     0.162 HD
BRANCH  10  12
HETATM   12  C   UNL     1     -40.847 -51.560  12.249  1.00  0.00     0.156 C 
BRANCH  12  13
HETATM   13  C   UNL     1     -39.563 -51.527  13.100  1.00  0.00     0.167 C 
HETATM   14  C   UNL     1     -39.643 -50.452  14.208  1.00  0.00     0.305 C 
HETATM   15  N   UNL     1     -39.670 -49.096  13.627  1.00  0.00     0.088 N 
HETATM   16  C   UNL     1     -39.766 -48.074  14.667  1.00  0.00     0.310 C 
HETATM   17  C   UNL     1     -38.455 -48.907  12.814  1.00  0.00     0.298 C 
HETATM   18  C   UNL     1     -38.286 -50.013  11.754  1.00  0.00     0.198 C 
HETATM   19  O   UNL     1     -38.374 -51.336  12.301  1.00  0.00    -0.381 OA
ENDBRANCH  12  13
ENDBRANCH  10  12
ENDBRANCH   7   8
BRANCH   1  20
HETATM   20  O   UNL     1     -43.246 -52.663  15.635  1.00  0.00    -0.333 OA
BRANCH  20  21
HETATM   21  C   UNL     1     -43.252 -54.019  16.111  1.00  0.00     0.203 C 
BRANCH  21  22
HETATM   22  C   UNL     1     -42.691 -54.934  15.025  1.00  0.00     0.193 C 
BRANCH  22  23
HETATM   23  O   UNL     1     -41.510 -54.348  14.472  1.00  0.00    -0.394 OA
HETATM   24  C   UNL     1     -40.362 -54.619  15.264  1.00  0.00     0.201 C 
ENDBRANCH  22  23
ENDBRANCH  21  22
ENDBRANCH  20  21
ENDBRANCH   1  20
TORSDOF 7
ENDMDL
