MODEL 1
REMARK VINA RESULT:      -6.3      0.000      0.000
REMARK  6 active torsions:
REMARK  status: ('A' for Active; 'I' for Inactive)
REMARK    1  A    between atoms: O_3  and  C_4 
REMARK    2  A    between atoms: C_4  and  C_5 
REMARK    3  A    between atoms: C_5  and  N_6 
REMARK    4  A    between atoms: N_11  and  C_13 
REMARK    5  A    between atoms: C_13  and  C_14 
REMARK    6  A    between atoms: C_14  and  N_15 
ROOT
HETATM    1  N   UNL     2     -40.247 -46.948  11.275  1.00  0.00    -0.274 N 
HETATM    2  N   UNL     2     -41.262 -47.223  10.459  1.00  0.00    -0.307 N 
HETATM    3  C   UNL     2     -41.519 -48.554  10.491  1.00  0.00     0.126 A 
HETATM    4  C   UNL     2     -40.619 -49.129  11.362  1.00  0.00     0.070 A 
HETATM    5  C   UNL     2     -40.406 -50.424  11.818  1.00  0.00     0.117 A 
HETATM    6  N   UNL     2     -41.158 -51.398  11.431  1.00  0.00    -0.374 N 
ATOM      7  HN  UNL     2     -41.894 -51.206  10.752  1.00  0.00     0.161 HD
HETATM    8  N   UNL     2     -39.384 -50.616  12.709  1.00  0.00    -0.338 N 
ATOM      9  HN  UNL     2     -39.201 -51.556  13.061  1.00  0.00     0.168 HD
HETATM   10  C   UNL     2     -38.600 -49.576  13.142  1.00  0.00     0.183 A 
HETATM   11  N   UNL     2     -38.832 -48.302  12.703  1.00  0.00    -0.337 N 
ATOM     12  HN  UNL     2     -38.264 -47.522  13.030  1.00  0.00     0.168 HD
HETATM   13  C   UNL     2     -39.841 -48.109  11.818  1.00  0.00     0.138 A 
HETATM   14  H   UNL     2     -41.780 -46.517   9.891  1.00  0.00     0.186 HD
ENDROOT
BRANCH   6  15
HETATM   15  C   UNL     2     -41.001 -52.751  11.921  1.00  0.00     0.151 C 
BRANCH  15  16
HETATM   16  C   UNL     2     -41.921 -53.022  13.125  1.00  0.00     0.292 C 
BRANCH  16  17
HETATM   17  N   UNL     2     -43.252 -52.355  13.080  1.00  0.00     0.090 N 
HETATM   18  C   UNL     2     -43.554 -51.847  14.446  1.00  0.00     0.272 C 
HETATM   19  C   UNL     2     -44.635 -50.771  14.424  1.00  0.00     0.030 C 
HETATM   20  C   UNL     2     -46.075 -51.284  14.505  1.00  0.00     0.002 C 
HETATM   21  C   UNL     2     -46.403 -52.553  13.722  1.00  0.00     0.002 C 
HETATM   22  C   UNL     2     -45.710 -52.662  12.370  1.00  0.00     0.030 C 
HETATM   23  C   UNL     2     -44.285 -53.239  12.489  1.00  0.00     0.272 C 
ENDBRANCH  16  17
ENDBRANCH  15  16
ENDBRANCH   6  15
BRANCH   1  24
HETATM   24  C   UNL     2     -39.712 -45.606  11.515  1.00  0.00     0.176 C 
BRANCH  24  25
HETATM   25  C   UNL     2     -40.200 -44.644  10.429  1.00  0.00     0.185 C 
BRANCH  25  26
HETATM   26  O   UNL     2     -39.544 -44.921   9.225  1.00  0.00    -0.399 OA
HETATM   27  H   UNL     2     -39.916 -44.286   8.558  1.00  0.00     0.209 HD
ENDBRANCH  25  26
ENDBRANCH  24  25
ENDBRANCH   1  24
TORSDOF 6
ENDMDL
MODEL 2
REMARK VINA RESULT:      -5.9      2.165      3.839
REMARK  6 active torsions:
REMARK  status: ('A' for Active; 'I' for Inactive)
REMARK    1  A    between atoms: O_3  and  C_4 
REMARK    2  A    between atoms: C_4  and  C_5 
REMARK    3  A    between atoms: C_5  and  N_6 
REMARK    4  A    between atoms: N_11  and  C_13 
REMARK    5  A    between atoms: C_13  and  C_14 
REMARK    6  A    between atoms: C_14  and  N_15 
ROOT
HETATM    1  N   UNL     2     -42.167 -44.415  10.982  1.00  0.00    -0.274 N 
HETATM    2  N   UNL     2     -40.874 -44.302  11.276  1.00  0.00    -0.307 N 
HETATM    3  C   UNL     2     -40.314 -45.536  11.336  1.00  0.00     0.126 A 
HETATM    4  C   UNL     2     -41.308 -46.454  11.073  1.00  0.00     0.070 A 
HETATM    5  C   UNL     2     -41.343 -47.839  10.972  1.00  0.00     0.117 A 
HETATM    6  N   UNL     2     -40.273 -48.544  11.118  1.00  0.00    -0.374 N 
ATOM      7  HN  UNL     2     -39.401 -48.067  11.347  1.00  0.00     0.161 HD
HETATM    8  N   UNL     2     -42.551 -48.418  10.687  1.00  0.00    -0.338 N 
ATOM      9  HN  UNL     2     -42.609 -49.433  10.609  1.00  0.00     0.168 HD
HETATM   10  C   UNL     2     -43.685 -47.667  10.506  1.00  0.00     0.183 A 
HETATM   11  N   UNL     2     -43.635 -46.303  10.587  1.00  0.00    -0.337 N 
ATOM     12  HN  UNL     2     -44.470 -45.737  10.438  1.00  0.00     0.168 HD
HETATM   13  C   UNL     2     -42.442 -45.727  10.871  1.00  0.00     0.138 A 
HETATM   14  H   UNL     2     -40.374 -43.398  11.427  1.00  0.00     0.186 HD
ENDROOT
BRANCH   6  15
HETATM   15  C   UNL     2     -40.257 -49.984  10.970  1.00  0.00     0.151 C 
BRANCH  15  16
HETATM   16  C   UNL     2     -40.185 -50.688  12.336  1.00  0.00     0.292 C 
BRANCH  16  17
HETATM   17  N   UNL     2     -40.890 -51.998  12.423  1.00  0.00     0.090 N 
HETATM   18  C   UNL     2     -42.327 -51.725  12.696  1.00  0.00     0.272 C 
HETATM   19  C   UNL     2     -43.206 -52.923  12.349  1.00  0.00     0.030 C 
HETATM   20  C   UNL     2     -43.386 -53.951  13.468  1.00  0.00     0.002 C 
HETATM   21  C   UNL     2     -42.161 -54.268  14.322  1.00  0.00     0.002 C 
HETATM   22  C   UNL     2     -40.846 -54.313  13.554  1.00  0.00     0.030 C 
HETATM   23  C   UNL     2     -40.223 -52.912  13.380  1.00  0.00     0.272 C 
ENDBRANCH  16  17
ENDBRANCH  15  16
ENDBRANCH   6  15
BRANCH   1  24
HETATM   24  C   UNL     2     -43.083 -43.287  10.808  1.00  0.00     0.176 C 
BRANCH  24  25
HETATM   25  C   UNL     2     -42.404 -41.986  11.243  1.00  0.00     0.185 C 
BRANCH  25  26
HETATM   26  O   UNL     2     -41.558 -41.533  10.225  1.00  0.00    -0.399 OA
HETATM   27  H   UNL     2     -41.752 -42.099   9.434  1.00  0.00     0.209 HD
ENDBRANCH  25  26
ENDBRANCH  24  25
ENDBRANCH   1  24
TORSDOF 6
ENDMDL
MODEL 3
REMARK VINA RESULT:      -5.8      3.063      7.440
REMARK  6 active torsions:
REMARK  status: ('A' for Active; 'I' for Inactive)
REMARK    1  A    between atoms: O_3  and  C_4 
REMARK    2  A    between atoms: C_4  and  C_5 
REMARK    3  A    between atoms: C_5  and  N_6 
REMARK    4  A    between atoms: N_11  and  C_13 
REMARK    5  A    between atoms: C_13  and  C_14 
REMARK    6  A    between atoms: C_14  and  N_15 
ROOT
HETATM    1  N   UNL     2     -43.746 -53.208  14.108  1.00  0.00    -0.274 N 
HETATM    2  N   UNL     2     -44.397 -52.127  14.531  1.00  0.00    -0.307 N 
HETATM    3  C   UNL     2     -43.871 -51.024  13.943  1.00  0.00     0.126 A 
HETATM    4  C   UNL     2     -42.843 -51.442  13.124  1.00  0.00     0.070 A 
HETATM    5  C   UNL     2     -41.966 -50.792  12.265  1.00  0.00     0.117 A 
HETATM    6  N   UNL     2     -42.029 -49.516  12.089  1.00  0.00    -0.374 N 
ATOM      7  HN  UNL     2     -42.716 -48.983  12.623  1.00  0.00     0.161 HD
HETATM    8  N   UNL     2     -41.052 -51.564  11.599  1.00  0.00    -0.338 N 
ATOM      9  HN  UNL     2     -40.392 -51.116  10.963  1.00  0.00     0.168 HD
HETATM   10  C   UNL     2     -41.001 -52.926  11.765  1.00  0.00     0.183 A 
HETATM   11  N   UNL     2     -41.883 -53.557  12.597  1.00  0.00    -0.337 N 
ATOM     12  HN  UNL     2     -41.862 -54.570  12.715  1.00  0.00     0.168 HD
HETATM   13  C   UNL     2     -42.787 -52.796  13.260  1.00  0.00     0.138 A 
HETATM   14  H   UNL     2     -45.195 -52.136  15.204  1.00  0.00     0.186 HD
ENDROOT
BRANCH   6  15
HETATM   15  C   UNL     2     -41.168 -48.809  11.166  1.00  0.00     0.151 C 
BRANCH  15  16
HETATM   16  C   UNL     2     -41.979 -47.905  10.221  1.00  0.00     0.292 C 
BRANCH  16  17
HETATM   17  N   UNL     2     -41.645 -46.454  10.273  1.00  0.00     0.090 N 
HETATM   18  C   UNL     2     -40.278 -46.321  10.846  1.00  0.00     0.272 C 
HETATM   19  C   UNL     2     -39.659 -44.964  10.522  1.00  0.00     0.030 C 
HETATM   20  C   UNL     2     -39.977 -43.844  11.516  1.00  0.00     0.002 C 
HETATM   21  C   UNL     2     -41.396 -43.796  12.075  1.00  0.00     0.002 C 
HETATM   22  C   UNL     2     -42.486 -44.154  11.073  1.00  0.00     0.030 C 
HETATM   23  C   UNL     2     -42.702 -45.677  10.963  1.00  0.00     0.272 C 
ENDBRANCH  16  17
ENDBRANCH  15  16
ENDBRANCH   6  15
BRANCH   1  24
HETATM   24  C   UNL     2     -44.062 -54.580  14.511  1.00  0.00     0.176 C 
BRANCH  24  25
HETATM   25  C   UNL     2     -45.446 -54.975  13.992  1.00  0.00     0.185 C 
BRANCH  25  26
HETATM   26  O   UNL     2     -45.774 -54.192  12.881  1.00  0.00    -0.399 OA
HETATM   27  H   UNL     2     -45.235 -54.545  12.127  1.00  0.00     0.209 HD
ENDBRANCH  25  26
ENDBRANCH  24  25
ENDBRANCH   1  24
TORSDOF 6
ENDMDL
MODEL 4
REMARK VINA RESULT:      -5.7      3.368      7.036
REMARK  6 active torsions:
REMARK  status: ('A' for Active; 'I' for Inactive)
REMARK    1  A    between atoms: O_3  and  C_4 
REMARK    2  A    between atoms: C_4  and  C_5 
REMARK    3  A    between atoms: C_5  and  N_6 
REMARK    4  A    between atoms: N_11  and  C_13 
REMARK    5  A    between atoms: C_13  and  C_14 
REMARK    6  A    between atoms: C_14  and  N_15 
ROOT
HETATM    1  N   UNL     2     -39.968 -52.231  13.354  1.00  0.00    -0.274 N 
HETATM    2  N   UNL     2     -41.274 -52.484  13.307  1.00  0.00    -0.307 N 
HETATM    3  C   UNL     2     -41.899 -51.506  12.605  1.00  0.00     0.126 A 
HETATM    4  C   UNL     2     -40.936 -50.604  12.206  1.00  0.00     0.070 A 
HETATM    5  C   UNL     2     -40.959 -49.435  11.456  1.00  0.00     0.117 A 
HETATM    6  N   UNL     2     -42.057 -48.992  10.946  1.00  0.00    -0.374 N 
ATOM      7  HN  UNL     2     -42.922 -49.498  11.135  1.00  0.00     0.161 HD
HETATM    8  N   UNL     2     -39.765 -48.791  11.262  1.00  0.00    -0.338 N 
ATOM      9  HN  UNL     2     -39.749 -47.928  10.717  1.00  0.00     0.168 HD
HETATM   10  C   UNL     2     -38.591 -49.276  11.781  1.00  0.00     0.183 A 
HETATM   11  N   UNL     2     -38.578 -50.439  12.500  1.00  0.00    -0.337 N 
ATOM     12  HN  UNL     2     -37.708 -50.814  12.876  1.00  0.00     0.168 HD
HETATM   13  C   UNL     2     -39.757 -51.078  12.696  1.00  0.00     0.138 A 
HETATM   14  H   UNL     2     -41.737 -53.315  13.738  1.00  0.00     0.186 HD
ENDROOT
BRANCH   6  15
HETATM   15  C   UNL     2     -42.114 -47.806  10.117  1.00  0.00     0.151 C 
BRANCH  15  16
HETATM   16  C   UNL     2     -42.571 -46.578  10.923  1.00  0.00     0.292 C 
BRANCH  16  17
HETATM   17  N   UNL     2     -41.534 -45.532  11.145  1.00  0.00     0.090 N 
HETATM   18  C   UNL     2     -40.860 -45.824  12.440  1.00  0.00     0.272 C 
HETATM   19  C   UNL     2     -39.510 -45.122  12.545  1.00  0.00     0.030 C 
HETATM   20  C   UNL     2     -39.551 -43.699  13.107  1.00  0.00     0.002 C 
HETATM   21  C   UNL     2     -40.713 -42.813  12.664  1.00  0.00     0.002 C 
HETATM   22  C   UNL     2     -41.126 -42.988  11.209  1.00  0.00     0.030 C 
HETATM   23  C   UNL     2     -42.101 -44.168  11.017  1.00  0.00     0.272 C 
ENDBRANCH  16  17
ENDBRANCH  15  16
ENDBRANCH   6  15
BRANCH   1  24
HETATM   24  C   UNL     2     -38.977 -53.090  14.005  1.00  0.00     0.176 C 
BRANCH  24  25
HETATM   25  C   UNL     2     -39.502 -54.524  14.096  1.00  0.00     0.185 C 
BRANCH  25  26
HETATM   26  O   UNL     2     -38.708 -55.368  13.312  1.00  0.00    -0.399 OA
HETATM   27  H   UNL     2     -37.904 -54.840  13.069  1.00  0.00     0.209 HD
ENDBRANCH  25  26
ENDBRANCH  24  25
ENDBRANCH   1  24
TORSDOF 6
ENDMDL
MODEL 5
REMARK VINA RESULT:      -5.6      3.097      7.092
REMARK  6 active torsions:
REMARK  status: ('A' for Active; 'I' for Inactive)
REMARK    1  A    between atoms: O_3  and  C_4 
REMARK    2  A    between atoms: C_4  and  C_5 
REMARK    3  A    between atoms: C_5  and  N_6 
REMARK    4  A    between atoms: N_11  and  C_13 
REMARK    5  A    between atoms: C_13  and  C_14 
REMARK    6  A    between atoms: C_14  and  N_15 
ROOT
HETATM    1  N   UNL     2     -43.913 -52.955  14.069  1.00  0.00    -0.274 N 
HETATM    2  N   UNL     2     -44.631 -51.856  14.288  1.00  0.00    -0.307 N 
HETATM    3  C   UNL     2     -44.091 -50.818  13.602  1.00  0.00     0.126 A 
HETATM    4  C   UNL     2     -42.985 -51.296  12.933  1.00  0.00     0.070 A 
HETATM    5  C   UNL     2     -42.058 -50.728  12.069  1.00  0.00     0.117 A 
HETATM    6  N   UNL     2     -42.145 -49.490  11.718  1.00  0.00    -0.374 N 
ATOM      7  HN  UNL     2     -42.892 -48.921  12.118  1.00  0.00     0.161 HD
HETATM    8  N   UNL     2     -41.066 -51.542  11.588  1.00  0.00    -0.338 N 
ATOM      9  HN  UNL     2     -40.368 -51.154  10.953  1.00  0.00     0.168 HD
HETATM   10  C   UNL     2     -40.986 -52.866  11.940  1.00  0.00     0.183 A 
HETATM   11  N   UNL     2     -41.917 -53.419  12.775  1.00  0.00    -0.337 N 
ATOM     12  HN  UNL     2     -41.874 -54.406  13.030  1.00  0.00     0.168 HD
HETATM   13  C   UNL     2     -42.898 -52.617  13.254  1.00  0.00     0.138 A 
HETATM   14  H   UNL     2     -45.483 -51.810  14.889  1.00  0.00     0.186 HD
ENDROOT
BRANCH   6  15
HETATM   15  C   UNL     2     -41.230 -48.874  10.780  1.00  0.00     0.151 C 
BRANCH  15  16
HETATM   16  C   UNL     2     -40.472 -47.701  11.424  1.00  0.00     0.292 C 
BRANCH  16  17
HETATM   17  N   UNL     2     -39.854 -47.984  12.749  1.00  0.00     0.090 N 
HETATM   18  C   UNL     2     -39.716 -46.691  13.475  1.00  0.00     0.272 C 
HETATM   19  C   UNL     2     -39.538 -46.901  14.975  1.00  0.00     0.030 C 
HETATM   20  C   UNL     2     -38.095 -47.098  15.445  1.00  0.00     0.002 C 
HETATM   21  C   UNL     2     -37.187 -47.945  14.557  1.00  0.00     0.002 C 
HETATM   22  C   UNL     2     -37.869 -49.145  13.913  1.00  0.00     0.030 C 
HETATM   23  C   UNL     2     -38.605 -48.770  12.610  1.00  0.00     0.272 C 
ENDBRANCH  16  17
ENDBRANCH  15  16
ENDBRANCH   6  15
BRANCH   1  24
HETATM   24  C   UNL     2     -44.218 -54.274  14.626  1.00  0.00     0.176 C 
BRANCH  24  25
HETATM   25  C   UNL     2     -45.245 -54.991  13.747  1.00  0.00     0.185 C 
BRANCH  25  26
HETATM   26  O   UNL     2     -46.009 -54.050  13.050  1.00  0.00    -0.399 OA
HETATM   27  H   UNL     2     -46.733 -54.561  12.603  1.00  0.00     0.209 HD
ENDBRANCH  25  26
ENDBRANCH  24  25
ENDBRANCH   1  24
TORSDOF 6
ENDMDL
MODEL 6
REMARK VINA RESULT:      -5.6      2.824      4.184
REMARK  6 active torsions:
REMARK  status: ('A' for Active; 'I' for Inactive)
REMARK    1  A    between atoms: O_3  and  C_4 
REMARK    2  A    between atoms: C_4  and  C_5 
REMARK    3  A    between atoms: C_5  and  N_6 
REMARK    4  A    between atoms: N_11  and  C_13 
REMARK    5  A    between atoms: C_13  and  C_14 
REMARK    6  A    between atoms: C_14  and  N_15 
ROOT
HETATM    1  N   UNL     2     -38.827 -50.702  12.702  1.00  0.00    -0.274 N 
HETATM    2  N   UNL     2     -38.203 -50.960  13.849  1.00  0.00    -0.307 N 
HETATM    3  C   UNL     2     -38.914 -51.873  14.556  1.00  0.00     0.126 A 
HETATM    4  C   UNL     2     -40.032 -52.189  13.814  1.00  0.00     0.070 A 
HETATM    5  C   UNL     2     -41.099 -53.061  13.997  1.00  0.00     0.117 A 
HETATM    6  N   UNL     2     -41.174 -53.812  15.042  1.00  0.00    -0.374 N 
ATOM      7  HN  UNL     2     -40.450 -53.729  15.756  1.00  0.00     0.161 HD
HETATM    8  N   UNL     2     -42.050 -53.104  13.012  1.00  0.00    -0.338 N 
ATOM      9  HN  UNL     2     -42.847 -53.732  13.117  1.00  0.00     0.168 HD
HETATM   10  C   UNL     2     -41.958 -52.324  11.886  1.00  0.00     0.183 A 
HETATM   11  N   UNL     2     -40.893 -51.486  11.707  1.00  0.00    -0.337 N 
ATOM     12  HN  UNL     2     -40.809 -50.915  10.867  1.00  0.00     0.168 HD
HETATM   13  C   UNL     2     -39.952 -51.438  12.681  1.00  0.00     0.138 A 
HETATM   14  H   UNL     2     -37.300 -50.529  14.148  1.00  0.00     0.186 HD
ENDROOT
BRANCH   6  15
HETATM   15  C   UNL     2     -42.241 -54.769  15.245  1.00  0.00     0.151 C 
BRANCH  15  16
HETATM   16  C   UNL     2     -43.124 -54.379  16.443  1.00  0.00     0.292 C 
BRANCH  16  17
HETATM   17  N   UNL     2     -44.372 -53.638  16.107  1.00  0.00     0.090 N 
HETATM   18  C   UNL     2     -44.932 -54.227  14.860  1.00  0.00     0.272 C 
HETATM   19  C   UNL     2     -46.407 -53.878  14.683  1.00  0.00     0.030 C 
HETATM   20  C   UNL     2     -46.688 -52.560  13.958  1.00  0.00     0.002 C 
HETATM   21  C   UNL     2     -45.775 -51.381  14.286  1.00  0.00     0.002 C 
HETATM   22  C   UNL     2     -45.363 -51.286  15.749  1.00  0.00     0.030 C 
HETATM   23  C   UNL     2     -44.143 -52.173  16.071  1.00  0.00     0.272 C 
ENDBRANCH  16  17
ENDBRANCH  15  16
ENDBRANCH   6  15
BRANCH   1  24
HETATM   24  C   UNL     2     -38.333 -49.784  11.674  1.00  0.00     0.176 C 
BRANCH  24  25
HETATM   25  C   UNL     2     -37.094 -50.372  10.995  1.00  0.00     0.185 C 
BRANCH  25  26
HETATM   26  O   UNL     2     -37.105 -50.051   9.634  1.00  0.00    -0.399 OA
HETATM   27  H   UNL     2     -38.036 -50.199   9.324  1.00  0.00     0.209 HD
ENDBRANCH  25  26
ENDBRANCH  24  25
ENDBRANCH   1  24
TORSDOF 6
ENDMDL
MODEL 7
REMARK VINA RESULT:      -5.6      1.583      2.722
REMARK  6 active torsions:
REMARK  status: ('A' for Active; 'I' for Inactive)
REMARK    1  A    between atoms: O_3  and  C_4 
REMARK    2  A    between atoms: C_4  and  C_5 
REMARK    3  A    between atoms: C_5  and  N_6 
REMARK    4  A    between atoms: N_11  and  C_13 
REMARK    5  A    between atoms: C_13  and  C_14 
REMARK    6  A    between atoms: C_14  and  N_15 
ROOT
HETATM    1  N   UNL     2     -40.103 -45.461  11.680  1.00  0.00    -0.274 N 
HETATM    2  N   UNL     2     -39.385 -45.841  12.734  1.00  0.00    -0.307 N 
HETATM    3  C   UNL     2     -39.586 -47.162  12.965  1.00  0.00     0.126 A 
HETATM    4  C   UNL     2     -40.474 -47.618  12.014  1.00  0.00     0.070 A 
HETATM    5  C   UNL     2     -41.032 -48.858  11.728  1.00  0.00     0.117 A 
HETATM    6  N   UNL     2     -40.723 -49.903  12.417  1.00  0.00    -0.374 N 
ATOM      7  HN  UNL     2     -40.084 -49.796  13.205  1.00  0.00     0.161 HD
HETATM    8  N   UNL     2     -41.902 -48.926  10.671  1.00  0.00    -0.338 N 
ATOM      9  HN  UNL     2     -42.330 -49.822  10.437  1.00  0.00     0.168 HD
HETATM   10  C   UNL     2     -42.212 -47.820   9.921  1.00  0.00     0.183 A 
HETATM   11  N   UNL     2     -41.641 -46.609  10.199  1.00  0.00    -0.337 N 
ATOM     12  HN  UNL     2     -41.854 -45.786   9.636  1.00  0.00     0.168 HD
HETATM   13  C   UNL     2     -40.782 -46.537  11.244  1.00  0.00     0.138 A 
HETATM   14  H   UNL     2     -38.759 -45.215  13.286  1.00  0.00     0.186 HD
ENDROOT
BRANCH   6  15
HETATM   15  C   UNL     2     -41.242 -51.221  12.118  1.00  0.00     0.151 C 
BRANCH  15  16
HETATM   16  C   UNL     2     -41.511 -52.022  13.404  1.00  0.00     0.292 C 
BRANCH  16  17
HETATM   17  N   UNL     2     -42.946 -52.278  13.714  1.00  0.00     0.090 N 
HETATM   18  C   UNL     2     -43.558 -52.941  12.530  1.00  0.00     0.272 C 
HETATM   19  C   UNL     2     -44.856 -53.655  12.890  1.00  0.00     0.030 C 
HETATM   20  C   UNL     2     -46.120 -52.795  12.821  1.00  0.00     0.002 C 
HETATM   21  C   UNL     2     -46.007 -51.357  13.322  1.00  0.00     0.002 C 
HETATM   22  C   UNL     2     -45.122 -51.180  14.548  1.00  0.00     0.030 C 
HETATM   23  C   UNL     2     -43.631 -51.048  14.178  1.00  0.00     0.272 C 
ENDBRANCH  16  17
ENDBRANCH  15  16
ENDBRANCH   6  15
BRANCH   1  24
HETATM   24  C   UNL     2     -40.112 -44.107  11.123  1.00  0.00     0.176 C 
BRANCH  24  25
HETATM   25  C   UNL     2     -40.376 -43.085  12.231  1.00  0.00     0.185 C 
BRANCH  25  26
HETATM   26  O   UNL     2     -39.227 -42.929  13.013  1.00  0.00    -0.399 OA
HETATM   27  H   UNL     2     -39.399 -43.423  13.856  1.00  0.00     0.209 HD
ENDBRANCH  25  26
ENDBRANCH  24  25
ENDBRANCH   1  24
TORSDOF 6
ENDMDL
MODEL 8
REMARK VINA RESULT:      -5.3      3.045      3.925
REMARK  6 active torsions:
REMARK  status: ('A' for Active; 'I' for Inactive)
REMARK    1  A    between atoms: O_3  and  C_4 
REMARK    2  A    between atoms: C_4  and  C_5 
REMARK    3  A    between atoms: C_5  and  N_6 
REMARK    4  A    between atoms: N_11  and  C_13 
REMARK    5  A    between atoms: C_13  and  C_14 
REMARK    6  A    between atoms: C_14  and  N_15 
ROOT
HETATM    1  N   UNL     2     -37.679 -49.164  15.149  1.00  0.00    -0.274 N 
HETATM    2  N   UNL     2     -38.209 -49.826  16.174  1.00  0.00    -0.307 N 
HETATM    3  C   UNL     2     -39.083 -50.754  15.709  1.00  0.00     0.126 A 
HETATM    4  C   UNL     2     -39.097 -50.656  14.334  1.00  0.00     0.070 A 
HETATM    5  C   UNL     2     -39.759 -51.340  13.323  1.00  0.00     0.117 A 
HETATM    6  N   UNL     2     -40.555 -52.318  13.591  1.00  0.00    -0.374 N 
ATOM      7  HN  UNL     2     -40.720 -52.560  14.569  1.00  0.00     0.161 HD
HETATM    8  N   UNL     2     -39.513 -50.948  12.034  1.00  0.00    -0.338 N 
ATOM      9  HN  UNL     2     -39.986 -51.430  11.269  1.00  0.00     0.168 HD
HETATM   10  C   UNL     2     -38.646 -49.924  11.745  1.00  0.00     0.183 A 
HETATM   11  N   UNL     2     -37.983 -49.272  12.747  1.00  0.00    -0.337 N 
ATOM     12  HN  UNL     2     -37.326 -48.520  12.540  1.00  0.00     0.168 HD
HETATM   13  C   UNL     2     -38.227 -49.655  14.024  1.00  0.00     0.138 A 
HETATM   14  H   UNL     2     -37.977 -49.658  17.178  1.00  0.00     0.186 HD
ENDROOT
BRANCH   6  15
HETATM   15  C   UNL     2     -41.224 -53.089  12.565  1.00  0.00     0.151 C 
BRANCH  15  16
HETATM   16  C   UNL     2     -42.572 -53.637  13.063  1.00  0.00     0.292 C 
BRANCH  16  17
HETATM   17  N   UNL     2     -43.637 -52.620  13.290  1.00  0.00     0.090 N 
HETATM   18  C   UNL     2     -43.793 -52.442  14.760  1.00  0.00     0.272 C 
HETATM   19  C   UNL     2     -44.494 -51.131  15.099  1.00  0.00     0.030 C 
HETATM   20  C   UNL     2     -46.023 -51.194  15.138  1.00  0.00     0.002 C 
HETATM   21  C   UNL     2     -46.708 -52.041  14.069  1.00  0.00     0.002 C 
HETATM   22  C   UNL     2     -46.059 -51.974  12.693  1.00  0.00     0.030 C 
HETATM   23  C   UNL     2     -44.879 -52.958  12.555  1.00  0.00     0.272 C 
ENDBRANCH  16  17
ENDBRANCH  15  16
ENDBRANCH   6  15
BRANCH   1  24
HETATM   24  C   UNL     2     -36.673 -48.106  15.272  1.00  0.00     0.176 C 
BRANCH  24  25
HETATM   25  C   UNL     2     -35.859 -48.302  16.553  1.00  0.00     0.185 C 
BRANCH  25  26
HETATM   26  O   UNL     2     -34.547 -47.861  16.351  1.00  0.00    -0.399 OA
HETATM   27  H   UNL     2     -33.961 -48.544  16.769  1.00  0.00     0.209 HD
ENDBRANCH  25  26
ENDBRANCH  24  25
ENDBRANCH   1  24
TORSDOF 6
ENDMDL
MODEL 9
REMARK VINA RESULT:      -5.3      3.866      7.286
REMARK  6 active torsions:
REMARK  status: ('A' for Active; 'I' for Inactive)
REMARK    1  A    between atoms: O_3  and  C_4 
REMARK    2  A    between atoms: C_4  and  C_5 
REMARK    3  A    between atoms: C_5  and  N_6 
REMARK    4  A    between atoms: N_11  and  C_13 
REMARK    5  A    between atoms: C_13  and  C_14 
REMARK    6  A    between atoms: C_14  and  N_15 
ROOT
HETATM    1  N   UNL     2     -39.216 -53.336  15.695  1.00  0.00    -0.274 N 
HETATM    2  N   UNL     2     -38.583 -52.217  16.040  1.00  0.00    -0.307 N 
HETATM    3  C   UNL     2     -38.700 -51.306  15.042  1.00  0.00     0.126 A 
HETATM    4  C   UNL     2     -39.433 -51.891  14.032  1.00  0.00     0.070 A 
HETATM    5  C   UNL     2     -39.891 -51.457  12.794  1.00  0.00     0.117 A 
HETATM    6  N   UNL     2     -39.663 -50.257  12.382  1.00  0.00    -0.374 N 
ATOM      7  HN  UNL     2     -39.105 -49.637  12.970  1.00  0.00     0.161 HD
HETATM    8  N   UNL     2     -40.613 -52.349  12.044  1.00  0.00    -0.338 N 
ATOM      9  HN  UNL     2     -40.961 -52.061  11.129  1.00  0.00     0.168 HD
HETATM   10  C   UNL     2     -40.879 -53.618  12.492  1.00  0.00     0.183 A 
HETATM   11  N   UNL     2     -40.441 -54.027  13.721  1.00  0.00    -0.337 N 
ATOM     12  HN  UNL     2     -40.648 -54.963  14.068  1.00  0.00     0.168 HD
HETATM   13  C   UNL     2     -39.725 -53.149  14.465  1.00  0.00     0.138 A 
HETATM   14  H   UNL     2     -38.084 -52.068  16.944  1.00  0.00     0.186 HD
ENDROOT
BRANCH   6  15
HETATM   15  C   UNL     2     -40.166 -49.751  11.122  1.00  0.00     0.151 C 
BRANCH  15  16
HETATM   16  C   UNL     2     -41.430 -48.899  11.324  1.00  0.00     0.292 C 
BRANCH  16  17
HETATM   17  N   UNL     2     -41.370 -47.517  10.770  1.00  0.00     0.090 N 
HETATM   18  C   UNL     2     -40.184 -46.840  11.360  1.00  0.00     0.272 C 
HETATM   19  C   UNL     2     -39.760 -45.625  10.540  1.00  0.00     0.030 C 
HETATM   20  C   UNL     2     -40.454 -44.311  10.907  1.00  0.00     0.002 C 
HETATM   21  C   UNL     2     -41.941 -44.383  11.243  1.00  0.00     0.002 C 
HETATM   22  C   UNL     2     -42.737 -45.365  10.394  1.00  0.00     0.030 C 
HETATM   23  C   UNL     2     -42.659 -46.805  10.941  1.00  0.00     0.272 C 
ENDBRANCH  16  17
ENDBRANCH  15  16
ENDBRANCH   6  15
BRANCH   1  24
HETATM   24  C   UNL     2     -39.322 -54.526  16.541  1.00  0.00     0.176 C 
BRANCH  24  25
HETATM   25  C   UNL     2     -38.150 -55.470  16.270  1.00  0.00     0.185 C 
BRANCH  25  26
HETATM   26  O   UNL     2     -38.187 -55.900  14.940  1.00  0.00    -0.399 OA
HETATM   27  H   UNL     2     -38.864 -56.625  14.904  1.00  0.00     0.209 HD
ENDBRANCH  25  26
ENDBRANCH  24  25
ENDBRANCH   1  24
TORSDOF 6
ENDMDL
