MODEL 1
REMARK VINA RESULT:      -5.4      0.000      0.000
REMARK  3 active torsions:
REMARK  status: ('A' for Active; 'I' for Inactive)
REMARK       I    between atoms: N_2  and  C_3 
REMARK    1  A    between atoms: C_3  and  C_5 
REMARK    2  A    between atoms: C_5  and  N_6 
REMARK    3  A    between atoms: N_13  and  C_14 
ROOT
HETATM    1  N   UNL     1     -44.932 -54.051  14.396  1.00  0.00    -0.256 N 
HETATM    2  C   UNL     1     -45.266 -53.422  13.206  1.00  0.00     0.274 C 
HETATM    3  O   UNL     1     -44.656 -53.603  12.154  1.00  0.00    -0.266 OA
HETATM    4  C   UNL     1     -46.387 -52.460  13.265  1.00  0.00     0.128 C 
HETATM    5  C   UNL     1     -46.879 -51.866  12.072  1.00  0.00     0.106 C 
HETATM    6  N   UNL     1     -47.329 -51.345  11.140  1.00  0.00    -0.191 NA
HETATM    7  C   UNL     1     -46.878 -52.133  14.463  1.00  0.00     0.124 C 
HETATM    8  N   UNL     1     -46.418 -52.697  15.632  1.00  0.00    -0.303 N 
HETATM    9  C   UNL     1     -45.429 -53.691  15.646  1.00  0.00     0.332 C 
HETATM   10  O   UNL     1     -44.992 -54.173  16.692  1.00  0.00    -0.246 OA
ENDROOT
BRANCH   1  11
HETATM   11  C   UNL     1     -43.921 -55.098  14.333  1.00  0.00     0.239 C 
BRANCH  11  12
HETATM   12  C   UNL     1     -42.513 -54.494  14.371  1.00  0.00     0.235 C 
HETATM   13  N   UNL     1     -41.964 -54.309  13.113  1.00  0.00    -0.364 N 
HETATM   14  C   UNL     1     -40.622 -53.809  12.944  1.00  0.00     0.149 C 
HETATM   15  H   UNL     1     -42.439 -54.687  12.303  1.00  0.00     0.161 HD
HETATM   16  O   UNL     1     -41.926 -54.201  15.410  1.00  0.00    -0.272 OA
ENDBRANCH  11  12
ENDBRANCH   1  11
BRANCH   8  17
HETATM   17  C   UNL     1     -46.896 -52.149  16.885  1.00  0.00     0.094 A 
HETATM   18  C   UNL     1     -47.946 -51.067  16.922  1.00  0.00     0.028 A 
HETATM   19  C   UNL     1     -46.551 -50.763  17.373  1.00  0.00     0.028 A 
ENDBRANCH   8  17
TORSDOF 3
ENDMDL
MODEL 2
REMARK VINA RESULT:      -5.3      2.775      4.524
REMARK  3 active torsions:
REMARK  status: ('A' for Active; 'I' for Inactive)
REMARK       I    between atoms: N_2  and  C_3 
REMARK    1  A    between atoms: C_3  and  C_5 
REMARK    2  A    between atoms: C_5  and  N_6 
REMARK    3  A    between atoms: N_13  and  C_14 
ROOT
HETATM    1  N   UNL     1     -42.000 -52.398  13.036  1.00  0.00    -0.256 N 
HETATM    2  C   UNL     1     -41.930 -53.677  13.567  1.00  0.00     0.274 C 
HETATM    3  O   UNL     1     -41.133 -54.527  13.175  1.00  0.00    -0.266 OA
HETATM    4  C   UNL     1     -42.913 -54.004  14.621  1.00  0.00     0.128 C 
HETATM    5  C   UNL     1     -42.834 -55.244  15.310  1.00  0.00     0.106 C 
HETATM    6  N   UNL     1     -42.827 -56.236  15.910  1.00  0.00    -0.191 NA
HETATM    7  C   UNL     1     -43.895 -53.131  14.864  1.00  0.00     0.124 C 
HETATM    8  N   UNL     1     -43.991 -51.924  14.211  1.00  0.00    -0.303 N 
HETATM    9  C   UNL     1     -43.039 -51.500  13.273  1.00  0.00     0.332 C 
HETATM   10  O   UNL     1     -43.140 -50.435  12.663  1.00  0.00    -0.246 OA
ENDROOT
BRANCH   1  11
HETATM   11  C   UNL     1     -40.958 -52.012  12.093  1.00  0.00     0.239 C 
BRANCH  11  12
HETATM   12  C   UNL     1     -39.785 -51.350  12.824  1.00  0.00     0.235 C 
HETATM   13  N   UNL     1     -39.952 -49.987  13.002  1.00  0.00    -0.364 N 
HETATM   14  C   UNL     1     -38.927 -49.177  13.614  1.00  0.00     0.149 C 
HETATM   15  H   UNL     1     -40.724 -49.517  12.547  1.00  0.00     0.161 HD
HETATM   16  O   UNL     1     -38.794 -51.963  13.213  1.00  0.00    -0.272 OA
ENDBRANCH  11  12
ENDBRANCH   1  11
BRANCH   8  17
HETATM   17  C   UNL     1     -45.184 -51.130  14.422  1.00  0.00     0.094 A 
HETATM   18  C   UNL     1     -46.365 -51.672  15.188  1.00  0.00     0.028 A 
HETATM   19  C   UNL     1     -46.496 -51.396  13.722  1.00  0.00     0.028 A 
ENDBRANCH   8  17
TORSDOF 3
ENDMDL
MODEL 3
REMARK VINA RESULT:      -5.2      1.925      5.813
REMARK  3 active torsions:
REMARK  status: ('A' for Active; 'I' for Inactive)
REMARK       I    between atoms: N_2  and  C_3 
REMARK    1  A    between atoms: C_3  and  C_5 
REMARK    2  A    between atoms: C_5  and  N_6 
REMARK    3  A    between atoms: N_13  and  C_14 
ROOT
HETATM    1  N   UNL     1     -43.730 -54.523  13.961  1.00  0.00    -0.256 N 
HETATM    2  C   UNL     1     -42.830 -54.938  14.930  1.00  0.00     0.274 C 
HETATM    3  O   UNL     1     -43.160 -55.582  15.924  1.00  0.00    -0.266 OA
HETATM    4  C   UNL     1     -41.424 -54.523  14.741  1.00  0.00     0.128 C 
HETATM    5  C   UNL     1     -40.415 -55.008  15.614  1.00  0.00     0.106 C 
HETATM    6  N   UNL     1     -39.542 -55.365  16.289  1.00  0.00    -0.191 NA
HETATM    7  C   UNL     1     -41.148 -53.648  13.770  1.00  0.00     0.124 C 
HETATM    8  N   UNL     1     -42.110 -53.166  12.912  1.00  0.00    -0.303 N 
HETATM    9  C   UNL     1     -43.445 -53.592  12.965  1.00  0.00     0.332 C 
HETATM   10  O   UNL     1     -44.313 -53.137  12.220  1.00  0.00    -0.246 OA
ENDROOT
BRANCH   1  11
HETATM   11  C   UNL     1     -45.092 -55.031  14.057  1.00  0.00     0.239 C 
BRANCH  11  12
HETATM   12  C   UNL     1     -45.909 -54.205  15.056  1.00  0.00     0.235 C 
HETATM   13  N   UNL     1     -46.387 -53.020  14.521  1.00  0.00    -0.364 N 
HETATM   14  C   UNL     1     -47.125 -52.076  15.324  1.00  0.00     0.149 C 
HETATM   15  H   UNL     1     -46.073 -52.725  13.605  1.00  0.00     0.161 HD
HETATM   16  O   UNL     1     -46.122 -54.553  16.214  1.00  0.00    -0.272 OA
ENDBRANCH  11  12
ENDBRANCH   1  11
BRANCH   8  17
HETATM   17  C   UNL     1     -41.740 -52.095  12.009  1.00  0.00     0.094 A 
HETATM   18  C   UNL     1     -40.477 -51.294  12.212  1.00  0.00     0.028 A 
HETATM   19  C   UNL     1     -41.810 -50.632  12.379  1.00  0.00     0.028 A 
ENDBRANCH   8  17
TORSDOF 3
ENDMDL
MODEL 4
REMARK VINA RESULT:      -5.2      5.194      7.920
REMARK  3 active torsions:
REMARK  status: ('A' for Active; 'I' for Inactive)
REMARK       I    between atoms: N_2  and  C_3 
REMARK    1  A    between atoms: C_3  and  C_5 
REMARK    2  A    between atoms: C_5  and  N_6 
REMARK    3  A    between atoms: N_13  and  C_14 
ROOT
HETATM    1  N   UNL     1     -42.048 -48.601  11.714  1.00  0.00    -0.256 N 
HETATM    2  C   UNL     1     -42.623 -49.730  12.276  1.00  0.00     0.274 C 
HETATM    3  O   UNL     1     -43.775 -49.756  12.706  1.00  0.00    -0.266 OA
HETATM    4  C   UNL     1     -41.757 -50.922  12.387  1.00  0.00     0.128 C 
HETATM    5  C   UNL     1     -42.298 -52.158  12.832  1.00  0.00     0.106 C 
HETATM    6  N   UNL     1     -42.674 -53.195  13.188  1.00  0.00    -0.191 NA
HETATM    7  C   UNL     1     -40.457 -50.788  12.110  1.00  0.00     0.124 C 
HETATM    8  N   UNL     1     -39.911 -49.602  11.675  1.00  0.00    -0.303 N 
HETATM    9  C   UNL     1     -40.687 -48.457  11.449  1.00  0.00     0.332 C 
HETATM   10  O   UNL     1     -40.196 -47.385  11.092  1.00  0.00    -0.246 OA
ENDROOT
BRANCH   1  11
HETATM   11  C   UNL     1     -42.920 -47.459  11.474  1.00  0.00     0.239 C 
BRANCH  11  12
HETATM   12  C   UNL     1     -43.659 -47.613  10.140  1.00  0.00     0.235 C 
HETATM   13  N   UNL     1     -42.807 -47.788   9.062  1.00  0.00    -0.364 N 
HETATM   14  C   UNL     1     -43.311 -47.888   7.714  1.00  0.00     0.149 C 
HETATM   15  H   UNL     1     -41.810 -47.674   9.193  1.00  0.00     0.161 HD
HETATM   16  O   UNL     1     -44.882 -47.583  10.033  1.00  0.00    -0.272 OA
ENDBRANCH  11  12
ENDBRANCH   1  11
BRANCH   8  17
HETATM   17  C   UNL     1     -38.468 -49.516  11.569  1.00  0.00     0.094 A 
HETATM   18  C   UNL     1     -37.576 -50.639  12.037  1.00  0.00     0.028 A 
HETATM   19  C   UNL     1     -37.556 -49.326  12.757  1.00  0.00     0.028 A 
ENDBRANCH   8  17
TORSDOF 3
ENDMDL
MODEL 5
REMARK VINA RESULT:      -5.1      3.334      5.334
REMARK  3 active torsions:
REMARK  status: ('A' for Active; 'I' for Inactive)
REMARK       I    between atoms: N_2  and  C_3 
REMARK    1  A    between atoms: C_3  and  C_5 
REMARK    2  A    between atoms: C_5  and  N_6 
REMARK    3  A    between atoms: N_13  and  C_14 
ROOT
HETATM    1  N   UNL     1     -41.547 -53.196  12.879  1.00  0.00    -0.256 N 
HETATM    2  C   UNL     1     -42.907 -53.404  13.044  1.00  0.00     0.274 C 
HETATM    3  O   UNL     1     -43.765 -52.779  12.422  1.00  0.00    -0.266 OA
HETATM    4  C   UNL     1     -43.300 -54.401  14.062  1.00  0.00     0.128 C 
HETATM    5  C   UNL     1     -44.664 -54.771  14.208  1.00  0.00     0.106 C 
HETATM    6  N   UNL     1     -45.756 -55.117  14.381  1.00  0.00    -0.191 NA
HETATM    7  C   UNL     1     -42.351 -54.896  14.862  1.00  0.00     0.124 C 
HETATM    8  N   UNL     1     -41.024 -54.554  14.737  1.00  0.00    -0.303 N 
HETATM    9  C   UNL     1     -40.563 -53.693  13.730  1.00  0.00     0.332 C 
HETATM   10  O   UNL     1     -39.381 -53.360  13.637  1.00  0.00    -0.246 OA
ENDROOT
BRANCH   1  11
HETATM   11  C   UNL     1     -41.136 -52.317  11.792  1.00  0.00     0.239 C 
BRANCH  11  12
HETATM   12  C   UNL     1     -41.178 -50.850  12.236  1.00  0.00     0.235 C 
HETATM   13  N   UNL     1     -42.302 -50.177  11.788  1.00  0.00    -0.364 N 
HETATM   14  C   UNL     1     -42.490 -48.771  12.050  1.00  0.00     0.149 C 
HETATM   15  H   UNL     1     -42.918 -50.626  11.123  1.00  0.00     0.161 HD
HETATM   16  O   UNL     1     -40.305 -50.322  12.920  1.00  0.00    -0.272 OA
ENDBRANCH  11  12
ENDBRANCH   1  11
BRANCH   8  17
HETATM   17  C   UNL     1     -40.106 -55.010  15.760  1.00  0.00     0.094 A 
HETATM   18  C   UNL     1     -40.601 -55.615  17.050  1.00  0.00     0.028 A 
HETATM   19  C   UNL     1     -39.898 -54.293  17.073  1.00  0.00     0.028 A 
ENDBRANCH   8  17
TORSDOF 3
ENDMDL
MODEL 6
REMARK VINA RESULT:      -5.1      2.049      5.297
REMARK  3 active torsions:
REMARK  status: ('A' for Active; 'I' for Inactive)
REMARK       I    between atoms: N_2  and  C_3 
REMARK    1  A    between atoms: C_3  and  C_5 
REMARK    2  A    between atoms: C_5  and  N_6 
REMARK    3  A    between atoms: N_13  and  C_14 
ROOT
HETATM    1  N   UNL     1     -43.515 -54.433  14.088  1.00  0.00    -0.256 N 
HETATM    2  C   UNL     1     -43.173 -53.492  13.129  1.00  0.00     0.274 C 
HETATM    3  O   UNL     1     -43.898 -53.205  12.179  1.00  0.00    -0.266 OA
HETATM    4  C   UNL     1     -41.843 -52.865  13.271  1.00  0.00     0.128 C 
HETATM    5  C   UNL     1     -41.461 -51.801  12.411  1.00  0.00     0.106 C 
HETATM    6  N   UNL     1     -41.087 -50.931  11.743  1.00  0.00    -0.191 NA
HETATM    7  C   UNL     1     -41.004 -53.359  14.186  1.00  0.00     0.124 C 
HETATM    8  N   UNL     1     -41.352 -54.387  15.032  1.00  0.00    -0.303 N 
HETATM    9  C   UNL     1     -42.630 -54.964  15.025  1.00  0.00     0.332 C 
HETATM   10  O   UNL     1     -42.934 -55.906  15.757  1.00  0.00    -0.246 OA
ENDROOT
BRANCH   1  11
HETATM   11  C   UNL     1     -44.870 -54.966  14.044  1.00  0.00     0.239 C 
BRANCH  11  12
HETATM   12  C   UNL     1     -45.786 -54.196  15.001  1.00  0.00     0.235 C 
HETATM   13  N   UNL     1     -46.278 -53.021  14.458  1.00  0.00    -0.364 N 
HETATM   14  C   UNL     1     -47.108 -52.126  15.228  1.00  0.00     0.149 C 
HETATM   15  H   UNL     1     -45.917 -52.693  13.571  1.00  0.00     0.161 HD
HETATM   16  O   UNL     1     -46.059 -54.578  16.136  1.00  0.00    -0.272 OA
ENDBRANCH  11  12
ENDBRANCH   1  11
BRANCH   8  17
HETATM   17  C   UNL     1     -40.316 -54.962  15.865  1.00  0.00     0.094 A 
HETATM   18  C   UNL     1     -39.115 -54.158  16.296  1.00  0.00     0.028 A 
HETATM   19  C   UNL     1     -38.937 -55.312  15.358  1.00  0.00     0.028 A 
ENDBRANCH   8  17
TORSDOF 3
ENDMDL
MODEL 7
REMARK VINA RESULT:      -5.0      8.051      9.090
REMARK  3 active torsions:
REMARK  status: ('A' for Active; 'I' for Inactive)
REMARK       I    between atoms: N_2  and  C_3 
REMARK    1  A    between atoms: C_3  and  C_5 
REMARK    2  A    between atoms: C_5  and  N_6 
REMARK    3  A    between atoms: N_13  and  C_14 
ROOT
HETATM    1  N   UNL     1     -42.620 -45.298  11.086  1.00  0.00    -0.256 N 
HETATM    2  C   UNL     1     -43.098 -45.719   9.854  1.00  0.00     0.274 C 
HETATM    3  O   UNL     1     -43.628 -44.964   9.043  1.00  0.00    -0.266 OA
HETATM    4  C   UNL     1     -42.985 -47.165   9.567  1.00  0.00     0.128 C 
HETATM    5  C   UNL     1     -43.331 -47.665   8.283  1.00  0.00     0.106 C 
HETATM    6  N   UNL     1     -43.596 -48.139   7.260  1.00  0.00    -0.191 NA
HETATM    7  C   UNL     1     -42.604 -47.979  10.555  1.00  0.00     0.124 C 
HETATM    8  N   UNL     1     -42.262 -47.517  11.805  1.00  0.00    -0.303 N 
HETATM    9  C   UNL     1     -42.246 -46.151  12.122  1.00  0.00     0.332 C 
HETATM   10  O   UNL     1     -41.973 -45.737  13.249  1.00  0.00    -0.246 OA
ENDROOT
BRANCH   1  11
HETATM   11  C   UNL     1     -42.600 -43.863  11.335  1.00  0.00     0.239 C 
BRANCH  11  12
HETATM   12  C   UNL     1     -41.159 -43.347  11.416  1.00  0.00     0.235 C 
HETATM   13  N   UNL     1     -40.842 -42.804  12.650  1.00  0.00    -0.364 N 
HETATM   14  C   UNL     1     -39.552 -42.209  12.901  1.00  0.00     0.149 C 
HETATM   15  H   UNL     1     -41.575 -42.663  13.334  1.00  0.00     0.161 HD
HETATM   16  O   UNL     1     -40.362 -43.408  10.484  1.00  0.00    -0.272 OA
ENDBRANCH  11  12
ENDBRANCH   1  11
BRANCH   8  17
HETATM   17  C   UNL     1     -42.031 -48.493  12.851  1.00  0.00     0.094 A 
HETATM   18  C   UNL     1     -42.423 -49.939  12.679  1.00  0.00     0.028 A 
HETATM   19  C   UNL     1     -43.134 -49.092  13.689  1.00  0.00     0.028 A 
ENDBRANCH   8  17
TORSDOF 3
ENDMDL
MODEL 8
REMARK VINA RESULT:      -4.9      3.015      6.826
REMARK  3 active torsions:
REMARK  status: ('A' for Active; 'I' for Inactive)
REMARK       I    between atoms: N_2  and  C_3 
REMARK    1  A    between atoms: C_3  and  C_5 
REMARK    2  A    between atoms: C_5  and  N_6 
REMARK    3  A    between atoms: N_13  and  C_14 
ROOT
HETATM    1  N   UNL     1     -41.836 -52.388  14.081  1.00  0.00    -0.256 N 
HETATM    2  C   UNL     1     -41.273 -53.435  14.794  1.00  0.00     0.274 C 
HETATM    3  O   UNL     1     -41.886 -54.079  15.643  1.00  0.00    -0.266 OA
HETATM    4  C   UNL     1     -39.849 -53.723  14.522  1.00  0.00     0.128 C 
HETATM    5  C   UNL     1     -39.226 -54.855  15.111  1.00  0.00     0.106 C 
HETATM    6  N   UNL     1     -38.656 -55.760  15.559  1.00  0.00    -0.191 NA
HETATM    7  C   UNL     1     -39.165 -52.867  13.757  1.00  0.00     0.124 C 
HETATM    8  N   UNL     1     -39.748 -51.765  13.175  1.00  0.00    -0.303 N 
HETATM    9  C   UNL     1     -41.116 -51.483  13.304  1.00  0.00     0.332 C 
HETATM   10  O   UNL     1     -41.633 -50.480  12.812  1.00  0.00    -0.246 OA
ENDROOT
BRANCH   1  11
HETATM   11  C   UNL     1     -43.269 -52.173  14.236  1.00  0.00     0.239 C 
BRANCH  11  12
HETATM   12  C   UNL     1     -44.063 -53.242  13.476  1.00  0.00     0.235 C 
HETATM   13  N   UNL     1     -44.771 -54.090  14.310  1.00  0.00    -0.364 N 
HETATM   14  C   UNL     1     -45.530 -55.200  13.785  1.00  0.00     0.149 C 
HETATM   15  H   UNL     1     -44.623 -54.044  15.310  1.00  0.00     0.161 HD
HETATM   16  O   UNL     1     -44.072 -53.340  12.252  1.00  0.00    -0.272 OA
ENDBRANCH  11  12
ENDBRANCH   1  11
BRANCH   8  17
HETATM   17  C   UNL     1     -38.885 -50.811  12.510  1.00  0.00     0.094 A 
HETATM   18  C   UNL     1     -37.383 -50.900  12.616  1.00  0.00     0.028 A 
HETATM   19  C   UNL     1     -38.103 -49.745  13.241  1.00  0.00     0.028 A 
ENDBRANCH   8  17
TORSDOF 3
ENDMDL
MODEL 9
REMARK VINA RESULT:      -4.9      3.821      6.247
REMARK  3 active torsions:
REMARK  status: ('A' for Active; 'I' for Inactive)
REMARK       I    between atoms: N_2  and  C_3 
REMARK    1  A    between atoms: C_3  and  C_5 
REMARK    2  A    between atoms: C_5  and  N_6 
REMARK    3  A    between atoms: N_13  and  C_14 
ROOT
HETATM    1  N   UNL     1     -41.951 -50.396  13.213  1.00  0.00    -0.256 N 
HETATM    2  C   UNL     1     -43.105 -51.150  13.070  1.00  0.00     0.274 C 
HETATM    3  O   UNL     1     -44.233 -50.662  13.061  1.00  0.00    -0.266 OA
HETATM    4  C   UNL     1     -42.924 -52.615  12.976  1.00  0.00     0.128 C 
HETATM    5  C   UNL     1     -44.036 -53.454  12.701  1.00  0.00     0.106 C 
HETATM    6  N   UNL     1     -44.899 -54.196  12.480  1.00  0.00    -0.191 NA
HETATM    7  C   UNL     1     -41.708 -53.118  13.207  1.00  0.00     0.124 C 
HETATM    8  N   UNL     1     -40.616 -52.324  13.473  1.00  0.00    -0.303 N 
HETATM    9  C   UNL     1     -40.689 -50.924  13.478  1.00  0.00     0.332 C 
HETATM   10  O   UNL     1     -39.721 -50.212  13.749  1.00  0.00    -0.246 OA
ENDROOT
BRANCH   1  11
HETATM   11  C   UNL     1     -42.096 -48.946  13.175  1.00  0.00     0.239 C 
BRANCH  11  12
HETATM   12  C   UNL     1     -42.000 -48.431  11.734  1.00  0.00     0.235 C 
HETATM   13  N   UNL     1     -43.235 -48.165  11.168  1.00  0.00    -0.364 N 
HETATM   14  C   UNL     1     -43.356 -47.730   9.797  1.00  0.00     0.149 C 
HETATM   15  H   UNL     1     -44.077 -48.439  11.657  1.00  0.00     0.161 HD
HETATM   16  O   UNL     1     -40.939 -48.268  11.140  1.00  0.00    -0.272 OA
ENDBRANCH  11  12
ENDBRANCH   1  11
BRANCH   8  17
HETATM   17  C   UNL     1     -39.386 -52.974  13.878  1.00  0.00     0.094 A 
HETATM   18  C   UNL     1     -39.310 -54.468  14.068  1.00  0.00     0.028 A 
HETATM   19  C   UNL     1     -39.168 -53.562  15.252  1.00  0.00     0.028 A 
ENDBRANCH   8  17
TORSDOF 3
ENDMDL
