MODEL 1
REMARK VINA RESULT:      -5.9      0.000      0.000
REMARK  5 active torsions:
REMARK  status: ('A' for Active; 'I' for Inactive)
REMARK    1  A    between atoms: O_2  and  C_3 
REMARK    2  A    between atoms: C_3  and  C_6 
REMARK    3  A    between atoms: C_9  and  C_10 
REMARK    4  A    between atoms: C_10  and  C_11 
REMARK       I    between atoms: C_11  and  N_13 
REMARK    5  A    between atoms: N_13  and  C_14 
ROOT
HETATM    1  C   UNL     1     -42.786 -47.688  10.006  1.00  0.00     0.182 A 
HETATM    2  N   UNL     1     -42.746 -48.808  10.695  1.00  0.00    -0.324 N 
ATOM      3  HN  UNL     1     -43.474 -49.515  10.805  1.00  0.00     0.169 HD
HETATM    4  C   UNL     1     -41.490 -48.790  11.228  1.00  0.00     0.112 A 
HETATM    5  N   UNL     1     -40.758 -47.710  10.910  1.00  0.00    -0.247 N 
ATOM      6  HN  UNL     1     -39.803 -47.486  11.189  1.00  0.00     0.196 HD
HETATM    7  O   UNL     1     -41.627 -46.965  10.100  1.00  0.00    -0.220 OA
ENDROOT
BRANCH   4   8
HETATM    8  C   UNL     1     -40.998 -49.881  12.088  1.00  0.00     0.181 C 
BRANCH   8   9
HETATM    9  C   UNL     1     -42.139 -50.586  12.785  1.00  0.00     0.225 C 
HETATM   10  O   UNL     1     -43.042 -49.960  13.338  1.00  0.00    -0.273 OA
HETATM   11  N   UNL     1     -42.058 -51.968  12.823  1.00  0.00    -0.356 N 
HETATM   12  H   UNL     1     -41.449 -52.431  12.157  1.00  0.00     0.162 HD
BRANCH  11  13
HETATM   13  C   UNL     1     -43.116 -52.730  13.452  1.00  0.00     0.084 C 
HETATM   14  C   UNL     1     -42.625 -53.861  14.351  1.00  0.00     0.025 C 
HETATM   15  C   UNL     1     -43.793 -54.853  14.411  1.00  0.00     0.002 C 
HETATM   16  C   UNL     1     -44.806 -54.383  13.367  1.00  0.00     0.002 C 
HETATM   17  C   UNL     1     -44.017 -53.454  12.456  1.00  0.00     0.025 C 
ENDBRANCH  11  13
ENDBRANCH   8   9
ENDBRANCH   4   8
BRANCH   1  18
HETATM   18  C   UNL     1     -43.871 -47.194   9.085  1.00  0.00     0.120 C 
HETATM   19  C   UNL     1     -43.625 -47.804   7.692  1.00  0.00     0.055 C 
HETATM   20  C   UNL     1     -43.817 -45.660   9.013  1.00  0.00     0.055 C 
BRANCH  18  21
HETATM   21  O   UNL     1     -45.119 -47.642   9.644  1.00  0.00    -0.377 OA
HETATM   22  C   UNL     1     -46.297 -47.067   9.093  1.00  0.00     0.203 C 
ENDBRANCH  18  21
ENDBRANCH   1  18
TORSDOF 5
ENDMDL
MODEL 2
REMARK VINA RESULT:      -5.8      2.055      6.614
REMARK  5 active torsions:
REMARK  status: ('A' for Active; 'I' for Inactive)
REMARK    1  A    between atoms: O_2  and  C_3 
REMARK    2  A    between atoms: C_3  and  C_6 
REMARK    3  A    between atoms: C_9  and  C_10 
REMARK    4  A    between atoms: C_10  and  C_11 
REMARK       I    between atoms: C_11  and  N_13 
REMARK    5  A    between atoms: N_13  and  C_14 
ROOT
HETATM    1  C   UNL     1     -43.759 -53.112  12.810  1.00  0.00     0.182 A 
HETATM    2  N   UNL     1     -43.208 -51.975  12.443  1.00  0.00    -0.324 N 
ATOM      3  HN  UNL     1     -43.655 -51.070  12.291  1.00  0.00     0.169 HD
HETATM    4  C   UNL     1     -41.890 -52.305  12.316  1.00  0.00     0.112 A 
HETATM    5  N   UNL     1     -41.603 -53.591  12.575  1.00  0.00    -0.247 N 
ATOM      6  HN  UNL     1     -40.696 -54.057  12.545  1.00  0.00     0.196 HD
HETATM    7  O   UNL     1     -42.854 -54.137  12.896  1.00  0.00    -0.220 OA
ENDROOT
BRANCH   4   8
HETATM    8  C   UNL     1     -40.878 -51.310  11.917  1.00  0.00     0.181 C 
BRANCH   8   9
HETATM    9  C   UNL     1     -41.425 -49.904  12.012  1.00  0.00     0.225 C 
HETATM   10  O   UNL     1     -41.696 -49.389  13.096  1.00  0.00    -0.273 OA
HETATM   11  N   UNL     1     -41.668 -49.270  10.805  1.00  0.00    -0.356 N 
HETATM   12  H   UNL     1     -41.207 -49.627   9.975  1.00  0.00     0.162 HD
BRANCH  11  13
HETATM   13  C   UNL     1     -42.173 -47.914  10.796  1.00  0.00     0.084 C 
HETATM   14  C   UNL     1     -43.051 -47.579   9.595  1.00  0.00     0.025 C 
HETATM   15  C   UNL     1     -42.970 -46.054   9.460  1.00  0.00     0.002 C 
HETATM   16  C   UNL     1     -41.874 -45.598  10.423  1.00  0.00     0.002 C 
HETATM   17  C   UNL     1     -41.075 -46.858  10.721  1.00  0.00     0.025 C 
ENDBRANCH  11  13
ENDBRANCH   8   9
ENDBRANCH   4   8
BRANCH   1  18
HETATM   18  C   UNL     1     -45.182 -53.372  13.229  1.00  0.00     0.120 C 
HETATM   19  C   UNL     1     -45.502 -52.447  14.419  1.00  0.00     0.055 C 
HETATM   20  C   UNL     1     -45.331 -54.844  13.641  1.00  0.00     0.055 C 
BRANCH  18  21
HETATM   21  O   UNL     1     -46.007 -53.068  12.089  1.00  0.00    -0.377 OA
HETATM   22  C   UNL     1     -46.745 -51.855  12.153  1.00  0.00     0.203 C 
ENDBRANCH  18  21
ENDBRANCH   1  18
TORSDOF 5
ENDMDL
MODEL 3
REMARK VINA RESULT:      -5.7      4.491      6.004
REMARK  5 active torsions:
REMARK  status: ('A' for Active; 'I' for Inactive)
REMARK    1  A    between atoms: O_2  and  C_3 
REMARK    2  A    between atoms: C_3  and  C_6 
REMARK    3  A    between atoms: C_9  and  C_10 
REMARK    4  A    between atoms: C_10  and  C_11 
REMARK       I    between atoms: C_11  and  N_13 
REMARK    5  A    between atoms: N_13  and  C_14 
ROOT
HETATM    1  C   UNL     1     -39.939 -52.280  13.255  1.00  0.00     0.182 A 
HETATM    2  N   UNL     1     -40.512 -52.773  14.333  1.00  0.00    -0.324 N 
ATOM      3  HN  UNL     1     -40.504 -52.405  15.284  1.00  0.00     0.169 HD
HETATM    4  C   UNL     1     -41.120 -53.901  13.861  1.00  0.00     0.112 A 
HETATM    5  N   UNL     1     -40.941 -54.133  12.551  1.00  0.00    -0.247 N 
ATOM      6  HN  UNL     1     -41.299 -54.905  11.988  1.00  0.00     0.196 HD
HETATM    7  O   UNL     1     -40.141 -53.055  12.144  1.00  0.00    -0.220 OA
ENDROOT
BRANCH   4   8
HETATM    8  C   UNL     1     -41.903 -54.784  14.744  1.00  0.00     0.181 C 
BRANCH   8   9
HETATM    9  C   UNL     1     -43.385 -54.526  14.602  1.00  0.00     0.225 C 
HETATM   10  O   UNL     1     -44.210 -55.433  14.695  1.00  0.00    -0.273 OA
HETATM   11  N   UNL     1     -43.742 -53.225  14.288  1.00  0.00    -0.356 N 
HETATM   12  H   UNL     1     -43.068 -52.487  14.466  1.00  0.00     0.162 HD
BRANCH  11  13
HETATM   13  C   UNL     1     -45.140 -52.878  14.152  1.00  0.00     0.084 C 
HETATM   14  C   UNL     1     -45.578 -52.587  12.719  1.00  0.00     0.025 C 
HETATM   15  C   UNL     1     -46.822 -51.702  12.859  1.00  0.00     0.002 C 
HETATM   16  C   UNL     1     -46.913 -51.323  14.337  1.00  0.00     0.002 C 
HETATM   17  C   UNL     1     -45.523 -51.600  14.891  1.00  0.00     0.025 C 
ENDBRANCH  11  13
ENDBRANCH   8   9
ENDBRANCH   4   8
BRANCH   1  18
HETATM   18  C   UNL     1     -39.214 -50.970  13.097  1.00  0.00     0.120 C 
HETATM   19  C   UNL     1     -38.707 -50.537  14.486  1.00  0.00     0.055 C 
HETATM   20  C   UNL     1     -40.180 -49.919  12.529  1.00  0.00     0.055 C 
BRANCH  18  21
HETATM   21  O   UNL     1     -38.122 -51.212  12.190  1.00  0.00    -0.377 OA
HETATM   22  C   UNL     1     -37.562 -50.067  11.560  1.00  0.00     0.203 C 
ENDBRANCH  18  21
ENDBRANCH   1  18
TORSDOF 5
ENDMDL
MODEL 4
REMARK VINA RESULT:      -5.7      2.043      2.627
REMARK  5 active torsions:
REMARK  status: ('A' for Active; 'I' for Inactive)
REMARK    1  A    between atoms: O_2  and  C_3 
REMARK    2  A    between atoms: C_3  and  C_6 
REMARK    3  A    between atoms: C_9  and  C_10 
REMARK    4  A    between atoms: C_10  and  C_11 
REMARK       I    between atoms: C_11  and  N_13 
REMARK    5  A    between atoms: N_13  and  C_14 
ROOT
HETATM    1  C   UNL     1     -42.940 -47.807   9.807  1.00  0.00     0.182 A 
HETATM    2  N   UNL     1     -41.701 -48.251   9.788  1.00  0.00    -0.324 N 
ATOM      3  HN  UNL     1     -41.087 -48.394   8.986  1.00  0.00     0.169 HD
HETATM    4  C   UNL     1     -41.440 -48.474  11.110  1.00  0.00     0.112 A 
HETATM    5  N   UNL     1     -42.460 -48.200  11.940  1.00  0.00    -0.247 N 
ATOM      6  HN  UNL     1     -42.492 -48.288  12.956  1.00  0.00     0.196 HD
HETATM    7  O   UNL     1     -43.469 -47.762  11.070  1.00  0.00    -0.220 OA
ENDROOT
BRANCH   4   8
HETATM    8  C   UNL     1     -40.134 -48.983  11.566  1.00  0.00     0.181 C 
BRANCH   8   9
HETATM    9  C   UNL     1     -40.293 -49.935  12.728  1.00  0.00     0.225 C 
HETATM   10  O   UNL     1     -40.498 -49.530  13.871  1.00  0.00    -0.273 OA
HETATM   11  N   UNL     1     -40.119 -51.277  12.434  1.00  0.00    -0.356 N 
HETATM   12  H   UNL     1     -40.200 -51.570  11.466  1.00  0.00     0.162 HD
BRANCH  11  13
HETATM   13  C   UNL     1     -40.272 -52.266  13.479  1.00  0.00     0.084 C 
HETATM   14  C   UNL     1     -38.959 -52.720  14.111  1.00  0.00     0.025 C 
HETATM   15  C   UNL     1     -39.261 -54.104  14.698  1.00  0.00     0.002 C 
HETATM   16  C   UNL     1     -40.647 -54.493  14.181  1.00  0.00     0.002 C 
HETATM   17  C   UNL     1     -40.886 -53.575  12.993  1.00  0.00     0.025 C 
ENDBRANCH  11  13
ENDBRANCH   8   9
ENDBRANCH   4   8
BRANCH   1  18
HETATM   18  C   UNL     1     -43.758 -47.267   8.664  1.00  0.00     0.120 C 
HETATM   19  C   UNL     1     -45.246 -47.396   9.044  1.00  0.00     0.055 C 
HETATM   20  C   UNL     1     -43.459 -48.079   7.395  1.00  0.00     0.055 C 
BRANCH  18  21
HETATM   21  O   UNL     1     -43.374 -45.889   8.499  1.00  0.00    -0.377 OA
HETATM   22  C   UNL     1     -44.121 -44.935   9.242  1.00  0.00     0.203 C 
ENDBRANCH  18  21
ENDBRANCH   1  18
TORSDOF 5
ENDMDL
MODEL 5
REMARK VINA RESULT:      -5.6      4.345      5.508
REMARK  5 active torsions:
REMARK  status: ('A' for Active; 'I' for Inactive)
REMARK    1  A    between atoms: O_2  and  C_3 
REMARK    2  A    between atoms: C_3  and  C_6 
REMARK    3  A    between atoms: C_9  and  C_10 
REMARK    4  A    between atoms: C_10  and  C_11 
REMARK       I    between atoms: C_11  and  N_13 
REMARK    5  A    between atoms: N_13  and  C_14 
ROOT
HETATM    1  C   UNL     1     -39.832 -51.320  12.545  1.00  0.00     0.182 A 
HETATM    2  N   UNL     1     -40.169 -52.341  13.304  1.00  0.00    -0.324 N 
ATOM      3  HN  UNL     1     -39.769 -52.632  14.196  1.00  0.00     0.169 HD
HETATM    4  C   UNL     1     -41.188 -52.916  12.601  1.00  0.00     0.112 A 
HETATM    5  N   UNL     1     -41.488 -52.308  11.442  1.00  0.00    -0.247 N 
ATOM      6  HN  UNL     1     -42.205 -52.557  10.761  1.00  0.00     0.196 HD
HETATM    7  O   UNL     1     -40.575 -51.244  11.397  1.00  0.00    -0.220 OA
ENDROOT
BRANCH   4   8
HETATM    8  C   UNL     1     -41.888 -54.117  13.094  1.00  0.00     0.181 C 
BRANCH   8   9
HETATM    9  C   UNL     1     -43.373 -53.872  13.221  1.00  0.00     0.225 C 
HETATM   10  O   UNL     1     -44.155 -54.163  12.317  1.00  0.00    -0.273 OA
HETATM   11  N   UNL     1     -43.780 -53.236  14.382  1.00  0.00    -0.356 N 
HETATM   12  H   UNL     1     -43.153 -53.245  15.179  1.00  0.00     0.162 HD
BRANCH  11  13
HETATM   13  C   UNL     1     -45.188 -52.977  14.602  1.00  0.00     0.084 C 
HETATM   14  C   UNL     1     -45.661 -51.615  14.102  1.00  0.00     0.025 C 
HETATM   15  C   UNL     1     -46.918 -51.308  14.925  1.00  0.00     0.002 C 
HETATM   16  C   UNL     1     -46.983 -52.375  16.019  1.00  0.00     0.002 C 
HETATM   17  C   UNL     1     -45.577 -52.954  16.076  1.00  0.00     0.025 C 
ENDBRANCH  11  13
ENDBRANCH   8   9
ENDBRANCH   4   8
BRANCH   1  18
HETATM   18  C   UNL     1     -38.845 -50.222  12.838  1.00  0.00     0.120 C 
HETATM   19  C   UNL     1     -37.607 -50.860  13.496  1.00  0.00     0.055 C 
HETATM   20  C   UNL     1     -39.488 -49.199  13.788  1.00  0.00     0.055 C 
BRANCH  18  21
HETATM   21  O   UNL     1     -38.517 -49.617  11.573  1.00  0.00    -0.377 OA
HETATM   22  C   UNL     1     -37.267 -49.987  11.006  1.00  0.00     0.203 C 
ENDBRANCH  18  21
ENDBRANCH   1  18
TORSDOF 5
ENDMDL
MODEL 6
REMARK VINA RESULT:      -5.5      2.583      2.952
REMARK  5 active torsions:
REMARK  status: ('A' for Active; 'I' for Inactive)
REMARK    1  A    between atoms: O_2  and  C_3 
REMARK    2  A    between atoms: C_3  and  C_6 
REMARK    3  A    between atoms: C_9  and  C_10 
REMARK    4  A    between atoms: C_10  and  C_11 
REMARK       I    between atoms: C_11  and  N_13 
REMARK    5  A    between atoms: N_13  and  C_14 
ROOT
HETATM    1  C   UNL     1     -40.243 -46.473  11.230  1.00  0.00     0.182 A 
HETATM    2  N   UNL     1     -40.738 -47.528  10.618  1.00  0.00    -0.324 N 
ATOM      3  HN  UNL     1     -41.304 -47.566   9.770  1.00  0.00     0.169 HD
HETATM    4  C   UNL     1     -40.307 -48.560  11.401  1.00  0.00     0.112 A 
HETATM    5  N   UNL     1     -39.580 -48.194  12.469  1.00  0.00    -0.247 N 
ATOM      6  HN  UNL     1     -39.158 -48.787  13.183  1.00  0.00     0.196 HD
HETATM    7  O   UNL     1     -39.544 -46.795  12.363  1.00  0.00    -0.220 OA
ENDROOT
BRANCH   4   8
HETATM    8  C   UNL     1     -40.632 -49.962  11.080  1.00  0.00     0.181 C 
BRANCH   8   9
HETATM    9  C   UNL     1     -41.400 -50.617  12.204  1.00  0.00     0.225 C 
HETATM   10  O   UNL     1     -41.399 -50.152  13.343  1.00  0.00    -0.273 OA
HETATM   11  N   UNL     1     -42.039 -51.804  11.885  1.00  0.00    -0.356 N 
HETATM   12  H   UNL     1     -42.215 -52.005  10.906  1.00  0.00     0.162 HD
BRANCH  11  13
HETATM   13  C   UNL     1     -42.817 -52.493  12.892  1.00  0.00     0.084 C 
HETATM   14  C   UNL     1     -42.057 -53.592  13.630  1.00  0.00     0.025 C 
HETATM   15  C   UNL     1     -43.143 -54.536  14.158  1.00  0.00     0.002 C 
HETATM   16  C   UNL     1     -44.453 -54.085  13.511  1.00  0.00     0.002 C 
HETATM   17  C   UNL     1     -44.023 -53.234  12.325  1.00  0.00     0.025 C 
ENDBRANCH  11  13
ENDBRANCH   8   9
ENDBRANCH   4   8
BRANCH   1  18
HETATM   18  C   UNL     1     -40.266 -45.035  10.783  1.00  0.00     0.120 C 
HETATM   19  C   UNL     1     -39.207 -44.864   9.678  1.00  0.00     0.055 C 
HETATM   20  C   UNL     1     -39.943 -44.126  11.979  1.00  0.00     0.055 C 
BRANCH  18  21
HETATM   21  O   UNL     1     -41.593 -44.782  10.285  1.00  0.00    -0.377 OA
HETATM   22  C   UNL     1     -42.476 -44.100  11.164  1.00  0.00     0.203 C 
ENDBRANCH  18  21
ENDBRANCH   1  18
TORSDOF 5
ENDMDL
MODEL 7
REMARK VINA RESULT:      -5.5      1.601      6.892
REMARK  5 active torsions:
REMARK  status: ('A' for Active; 'I' for Inactive)
REMARK    1  A    between atoms: O_2  and  C_3 
REMARK    2  A    between atoms: C_3  and  C_6 
REMARK    3  A    between atoms: C_9  and  C_10 
REMARK    4  A    between atoms: C_10  and  C_11 
REMARK       I    between atoms: C_11  and  N_13 
REMARK    5  A    between atoms: N_13  and  C_14 
ROOT
HETATM    1  C   UNL     1     -42.513 -52.481  13.235  1.00  0.00     0.182 A 
HETATM    2  N   UNL     1     -42.255 -51.192  13.166  1.00  0.00    -0.324 N 
ATOM      3  HN  UNL     1     -42.537 -50.450  13.806  1.00  0.00     0.169 HD
HETATM    4  C   UNL     1     -41.515 -51.094  12.023  1.00  0.00     0.112 A 
HETATM    5  N   UNL     1     -41.314 -52.255  11.379  1.00  0.00    -0.247 N 
ATOM      6  HN  UNL     1     -40.796 -52.421  10.516  1.00  0.00     0.196 HD
HETATM    7  O   UNL     1     -41.990 -53.185  12.183  1.00  0.00    -0.220 OA
ENDROOT
BRANCH   4   8
HETATM    8  C   UNL     1     -40.992 -49.800  11.548  1.00  0.00     0.181 C 
BRANCH   8   9
HETATM    9  C   UNL     1     -42.078 -48.749  11.515  1.00  0.00     0.225 C 
HETATM   10  O   UNL     1     -42.611 -48.340  12.545  1.00  0.00    -0.273 OA
HETATM   11  N   UNL     1     -42.479 -48.338  10.255  1.00  0.00    -0.356 N 
HETATM   12  H   UNL     1     -41.856 -48.511   9.473  1.00  0.00     0.162 HD
BRANCH  11  13
HETATM   13  C   UNL     1     -43.500 -47.320  10.124  1.00  0.00     0.084 C 
HETATM   14  C   UNL     1     -44.874 -47.855   9.732  1.00  0.00     0.025 C 
HETATM   15  C   UNL     1     -45.591 -46.665   9.085  1.00  0.00     0.002 C 
HETATM   16  C   UNL     1     -44.535 -45.572   8.912  1.00  0.00     0.002 C 
HETATM   17  C   UNL     1     -43.205 -46.302   9.027  1.00  0.00     0.025 C 
ENDBRANCH  11  13
ENDBRANCH   8   9
ENDBRANCH   4   8
BRANCH   1  18
HETATM   18  C   UNL     1     -43.192 -53.241  14.344  1.00  0.00     0.120 C 
HETATM   19  C   UNL     1     -43.068 -52.410  15.635  1.00  0.00     0.055 C 
HETATM   20  C   UNL     1     -42.507 -54.605  14.519  1.00  0.00     0.055 C 
BRANCH  18  21
HETATM   21  O   UNL     1     -44.567 -53.400  13.950  1.00  0.00    -0.377 OA
HETATM   22  C   UNL     1     -45.007 -54.733  13.725  1.00  0.00     0.203 C 
ENDBRANCH  18  21
ENDBRANCH   1  18
TORSDOF 5
ENDMDL
MODEL 8
REMARK VINA RESULT:      -5.4      2.009      2.949
REMARK  5 active torsions:
REMARK  status: ('A' for Active; 'I' for Inactive)
REMARK    1  A    between atoms: O_2  and  C_3 
REMARK    2  A    between atoms: C_3  and  C_6 
REMARK    3  A    between atoms: C_9  and  C_10 
REMARK    4  A    between atoms: C_10  and  C_11 
REMARK       I    between atoms: C_11  and  N_13 
REMARK    5  A    between atoms: N_13  and  C_14 
ROOT
HETATM    1  C   UNL     1     -41.270 -49.077  11.325  1.00  0.00     0.182 A 
HETATM    2  N   UNL     1     -42.014 -50.094  11.706  1.00  0.00    -0.324 N 
ATOM      3  HN  UNL     1     -43.014 -50.113  11.907  1.00  0.00     0.169 HD
HETATM    4  C   UNL     1     -41.114 -51.119  11.767  1.00  0.00     0.112 A 
HETATM    5  N   UNL     1     -39.852 -50.782  11.453  1.00  0.00    -0.247 N 
ATOM      6  HN  UNL     1     -39.024 -51.376  11.430  1.00  0.00     0.196 HD
HETATM    7  O   UNL     1     -39.952 -49.412  11.167  1.00  0.00    -0.220 OA
ENDROOT
BRANCH   4   8
HETATM    8  C   UNL     1     -41.519 -52.482  12.156  1.00  0.00     0.181 C 
BRANCH   8   9
HETATM    9  C   UNL     1     -42.856 -52.476  12.859  1.00  0.00     0.225 C 
HETATM   10  O   UNL     1     -42.968 -52.117  14.030  1.00  0.00    -0.273 OA
HETATM   11  N   UNL     1     -43.923 -52.968  12.126  1.00  0.00    -0.356 N 
HETATM   12  H   UNL     1     -43.831 -53.012  11.116  1.00  0.00     0.162 HD
BRANCH  11  13
HETATM   13  C   UNL     1     -45.248 -52.983  12.709  1.00  0.00     0.084 C 
HETATM   14  C   UNL     1     -45.758 -51.612  13.145  1.00  0.00     0.025 C 
HETATM   15  C   UNL     1     -46.814 -51.907  14.216  1.00  0.00     0.002 C 
HETATM   16  C   UNL     1     -46.703 -53.401  14.526  1.00  0.00     0.002 C 
HETATM   17  C   UNL     1     -45.337 -53.804  13.991  1.00  0.00     0.025 C 
ENDBRANCH  11  13
ENDBRANCH   8   9
ENDBRANCH   4   8
BRANCH   1  18
HETATM   18  C   UNL     1     -41.708 -47.684  10.957  1.00  0.00     0.120 C 
HETATM   19  C   UNL     1     -40.466 -46.772  10.989  1.00  0.00     0.055 C 
HETATM   20  C   UNL     1     -42.756 -47.196  11.969  1.00  0.00     0.055 C 
BRANCH  18  21
HETATM   21  O   UNL     1     -42.267 -47.765   9.633  1.00  0.00    -0.377 OA
HETATM   22  C   UNL     1     -43.420 -46.972   9.387  1.00  0.00     0.203 C 
ENDBRANCH  18  21
ENDBRANCH   1  18
TORSDOF 5
ENDMDL
MODEL 9
REMARK VINA RESULT:      -5.4      4.422      7.067
REMARK  5 active torsions:
REMARK  status: ('A' for Active; 'I' for Inactive)
REMARK    1  A    between atoms: O_2  and  C_3 
REMARK    2  A    between atoms: C_3  and  C_6 
REMARK    3  A    between atoms: C_9  and  C_10 
REMARK    4  A    between atoms: C_10  and  C_11 
REMARK       I    between atoms: C_11  and  N_13 
REMARK    5  A    between atoms: N_13  and  C_14 
ROOT
HETATM    1  C   UNL     1     -44.163 -54.071  14.369  1.00  0.00     0.182 A 
HETATM    2  N   UNL     1     -43.022 -53.470  14.108  1.00  0.00    -0.324 N 
ATOM      3  HN  UNL     1     -42.862 -52.593  13.612  1.00  0.00     0.169 HD
HETATM    4  C   UNL     1     -42.103 -54.311  14.667  1.00  0.00     0.112 A 
HETATM    5  N   UNL     1     -42.621 -55.405  15.249  1.00  0.00    -0.247 N 
ATOM      6  HN  UNL     1     -42.130 -56.162  15.726  1.00  0.00     0.196 HD
HETATM    7  O   UNL     1     -44.000 -55.253  15.042  1.00  0.00    -0.220 OA
ENDROOT
BRANCH   4   8
HETATM    8  C   UNL     1     -40.659 -54.022  14.618  1.00  0.00     0.181 C 
BRANCH   8   9
HETATM    9  C   UNL     1     -40.317 -53.135  13.443  1.00  0.00     0.225 C 
HETATM   10  O   UNL     1     -40.586 -53.462  12.288  1.00  0.00    -0.273 OA
HETATM   11  N   UNL     1     -39.622 -51.976  13.746  1.00  0.00    -0.356 N 
HETATM   12  H   UNL     1     -39.647 -51.638  14.703  1.00  0.00     0.162 HD
BRANCH  11  13
HETATM   13  C   UNL     1     -39.269 -51.054  12.688  1.00  0.00     0.084 C 
HETATM   14  C   UNL     1     -37.768 -50.900  12.464  1.00  0.00     0.025 C 
HETATM   15  C   UNL     1     -37.607 -49.530  11.794  1.00  0.00     0.002 C 
HETATM   16  C   UNL     1     -38.975 -48.852  11.875  1.00  0.00     0.002 C 
HETATM   17  C   UNL     1     -39.723 -49.622  12.954  1.00  0.00     0.025 C 
ENDBRANCH  11  13
ENDBRANCH   8   9
ENDBRANCH   4   8
BRANCH   1  18
HETATM   18  C   UNL     1     -45.562 -53.574  14.117  1.00  0.00     0.120 C 
HETATM   19  C   UNL     1     -45.718 -52.215  14.825  1.00  0.00     0.055 C 
HETATM   20  C   UNL     1     -46.571 -54.588  14.679  1.00  0.00     0.055 C 
BRANCH  18  21
HETATM   21  O   UNL     1     -45.700 -53.444  12.690  1.00  0.00    -0.377 OA
HETATM   22  C   UNL     1     -46.332 -52.258  12.225  1.00  0.00     0.203 C 
ENDBRANCH  18  21
ENDBRANCH   1  18
TORSDOF 5
ENDMDL
