MODEL 1
REMARK VINA RESULT:      -7.1      0.000      0.000
REMARK  6 active torsions:
REMARK  status: ('A' for Active; 'I' for Inactive)
REMARK    1  A    between atoms: C_2  and  N_7 
REMARK    2  A    between atoms: N_3  and  C_15 
REMARK    3  A    between atoms: C_11  and  C_14 
REMARK    4  A    between atoms: C_14  and  C_17 
REMARK    5  A    between atoms: C_15  and  C_16 
REMARK    6  A    between atoms: C_16  and  O_24 
REMARK       I    between atoms: C_17  and  N_21 
ROOT
HETATM    1  C   UNL     1     -41.351 -51.194  13.677  1.00  0.00     0.122 A 
HETATM    2  C   UNL     1     -40.777 -49.890  13.737  1.00  0.00     0.135 A 
HETATM    3  N   UNL     1     -42.856 -52.670  13.064  1.00  0.00    -0.324 N 
HETATM    4  C   UNL     1     -42.548 -51.338  12.989  1.00  0.00     0.140 A 
HETATM    5  N   UNL     1     -40.949 -52.427  14.168  1.00  0.00    -0.346 N 
ATOM      6  HN  UNL     1     -40.116 -52.627  14.721  1.00  0.00     0.167 HD
HETATM    7  C   UNL     1     -41.863 -53.284  13.772  1.00  0.00     0.185 A 
HETATM    8  N   UNL     1     -41.454 -48.909  13.058  1.00  0.00    -0.337 N 
ATOM      9  HN  UNL     1     -41.079 -47.961  13.021  1.00  0.00     0.168 HD
HETATM   10  N   UNL     1     -43.255 -50.384  12.369  1.00  0.00    -0.336 N 
ATOM     11  HN  UNL     1     -44.151 -50.534  11.906  1.00  0.00     0.168 HD
HETATM   12  C   UNL     1     -42.619 -49.201  12.440  1.00  0.00     0.183 A 
ENDROOT
BRANCH   2  13
HETATM   13  N   UNL     1     -39.577 -49.574  14.385  1.00  0.00    -0.360 N 
HETATM   14  C   UNL     1     -38.333 -50.220  13.901  1.00  0.00     0.094 C 
HETATM   15  C   UNL     1     -37.304 -50.193  15.054  1.00  0.00     0.026 C 
HETATM   16  C   UNL     1     -37.077 -48.785  15.602  1.00  0.00     0.004 C 
HETATM   17  C   UNL     1     -38.401 -48.155  16.015  1.00  0.00     0.020 C 
HETATM   18  C   UNL     1     -39.442 -48.205  14.900  1.00  0.00     0.125 C 
BRANCH  14  19
HETATM   19  C   UNL     1     -37.802 -49.556  12.619  1.00  0.00     0.127 C 
BRANCH  19  20
HETATM   20  C   UNL     1     -37.286 -50.564  11.622  1.00  0.00     0.217 C 
HETATM   21  O   UNL     1     -36.879 -51.674  11.944  1.00  0.00    -0.274 OA
HETATM   22  N   UNL     1     -37.289 -50.172  10.318  1.00  0.00    -0.370 N 
HETATM   23  H   UNL     1     -37.466 -49.216  10.043  1.00  0.00     0.159 HD
HETATM   24  H   UNL     1     -36.887 -50.807   9.640  1.00  0.00     0.159 HD
ENDBRANCH  19  20
ENDBRANCH  14  19
ENDBRANCH   2  13
BRANCH   3  25
HETATM   25  C   UNL     1     -43.960 -53.334  12.399  1.00  0.00     0.171 C 
BRANCH  25  26
HETATM   26  C   UNL     1     -45.237 -53.477  13.241  1.00  0.00     0.097 C 
HETATM   27  C   UNL     1     -45.262 -52.698  14.542  1.00  0.00     0.068 C 
HETATM   28  C   UNL     1     -46.190 -53.517  15.424  1.00  0.00     0.170 C 
HETATM   29  O   UNL     1     -46.156 -54.870  14.956  1.00  0.00    -0.388 OA
HETATM   30  C   UNL     1     -45.374 -54.915  13.753  1.00  0.00     0.207 C 
BRANCH  26  31
HETATM   31  O   UNL     1     -46.408 -53.158  12.480  1.00  0.00    -0.386 OA
HETATM   32  H   UNL     1     -47.038 -52.662  13.034  1.00  0.00     0.210 HD
ENDBRANCH  26  31
ENDBRANCH  25  26
ENDBRANCH   3  25
TORSDOF 6
ENDMDL
MODEL 2
REMARK VINA RESULT:      -7.0      3.324      5.660
REMARK  6 active torsions:
REMARK  status: ('A' for Active; 'I' for Inactive)
REMARK    1  A    between atoms: C_2  and  N_7 
REMARK    2  A    between atoms: N_3  and  C_15 
REMARK    3  A    between atoms: C_11  and  C_14 
REMARK    4  A    between atoms: C_14  and  C_17 
REMARK    5  A    between atoms: C_15  and  C_16 
REMARK    6  A    between atoms: C_16  and  O_24 
REMARK       I    between atoms: C_17  and  N_21 
ROOT
HETATM    1  C   UNL     1     -42.553 -49.346  12.115  1.00  0.00     0.122 A 
HETATM    2  C   UNL     1     -41.952 -48.617  11.047  1.00  0.00     0.135 A 
HETATM    3  N   UNL     1     -42.709 -51.014  13.534  1.00  0.00    -0.324 N 
HETATM    4  C   UNL     1     -41.958 -50.542  12.491  1.00  0.00     0.140 A 
HETATM    5  N   UNL     1     -43.656 -49.106  12.920  1.00  0.00    -0.346 N 
ATOM      6  HN  UNL     1     -44.294 -48.312  12.869  1.00  0.00     0.167 HD
HETATM    7  C   UNL     1     -43.709 -50.114  13.762  1.00  0.00     0.185 A 
HETATM    8  N   UNL     1     -40.804 -49.158  10.527  1.00  0.00    -0.337 N 
ATOM      9  HN  UNL     1     -40.296 -48.668   9.791  1.00  0.00     0.168 HD
HETATM   10  N   UNL     1     -40.871 -51.118  11.959  1.00  0.00    -0.336 N 
ATOM     11  HN  UNL     1     -40.492 -52.019  12.248  1.00  0.00     0.168 HD
HETATM   12  C   UNL     1     -40.348 -50.342  10.993  1.00  0.00     0.183 A 
ENDROOT
BRANCH   2  13
HETATM   13  N   UNL     1     -42.423 -47.395  10.549  1.00  0.00    -0.360 N 
HETATM   14  C   UNL     1     -43.421 -47.429   9.453  1.00  0.00     0.094 C 
HETATM   15  C   UNL     1     -43.354 -46.077   8.709  1.00  0.00     0.026 C 
HETATM   16  C   UNL     1     -43.529 -44.883   9.646  1.00  0.00     0.004 C 
HETATM   17  C   UNL     1     -42.520 -44.949  10.785  1.00  0.00     0.020 C 
HETATM   18  C   UNL     1     -42.547 -46.292  11.511  1.00  0.00     0.125 C 
BRANCH  14  19
HETATM   19  C   UNL     1     -44.833 -47.749   9.971  1.00  0.00     0.127 C 
BRANCH  19  20
HETATM   20  C   UNL     1     -45.873 -47.683   8.881  1.00  0.00     0.217 C 
HETATM   21  O   UNL     1     -46.817 -46.901   8.905  1.00  0.00    -0.274 OA
HETATM   22  N   UNL     1     -45.715 -48.556   7.848  1.00  0.00    -0.370 N 
HETATM   23  H   UNL     1     -45.046 -49.312   7.879  1.00  0.00     0.159 HD
HETATM   24  H   UNL     1     -46.437 -48.573   7.138  1.00  0.00     0.159 HD
ENDBRANCH  19  20
ENDBRANCH  14  19
ENDBRANCH   2  13
BRANCH   3  25
HETATM   25  C   UNL     1     -42.417 -52.182  14.342  1.00  0.00     0.171 C 
BRANCH  25  26
HETATM   26  C   UNL     1     -43.051 -53.491  13.847  1.00  0.00     0.097 C 
HETATM   27  C   UNL     1     -44.554 -53.465  13.650  1.00  0.00     0.068 C 
HETATM   28  C   UNL     1     -44.962 -54.913  13.868  1.00  0.00     0.170 C 
HETATM   29  O   UNL     1     -43.975 -55.523  14.708  1.00  0.00    -0.388 OA
HETATM   30  C   UNL     1     -42.908 -54.583  14.912  1.00  0.00     0.207 C 
BRANCH  26  31
HETATM   31  O   UNL     1     -42.428 -53.954  12.642  1.00  0.00    -0.386 OA
HETATM   32  H   UNL     1     -43.044 -54.525  12.149  1.00  0.00     0.210 HD
ENDBRANCH  26  31
ENDBRANCH  25  26
ENDBRANCH   3  25
TORSDOF 6
ENDMDL
MODEL 3
REMARK VINA RESULT:      -6.9      3.439      4.582
REMARK  6 active torsions:
REMARK  status: ('A' for Active; 'I' for Inactive)
REMARK    1  A    between atoms: C_2  and  N_7 
REMARK    2  A    between atoms: N_3  and  C_15 
REMARK    3  A    between atoms: C_11  and  C_14 
REMARK    4  A    between atoms: C_14  and  C_17 
REMARK    5  A    between atoms: C_15  and  C_16 
REMARK    6  A    between atoms: C_16  and  O_24 
REMARK       I    between atoms: C_17  and  N_21 
ROOT
HETATM    1  C   UNL     1     -40.976 -48.692  12.662  1.00  0.00     0.122 A 
HETATM    2  C   UNL     1     -39.977 -47.981  11.935  1.00  0.00     0.135 A 
HETATM    3  N   UNL     1     -41.957 -50.500  13.430  1.00  0.00    -0.324 N 
HETATM    4  C   UNL     1     -40.916 -50.079  12.647  1.00  0.00     0.140 A 
HETATM    5  N   UNL     1     -42.048 -48.285  13.440  1.00  0.00    -0.346 N 
ATOM      6  HN  UNL     1     -42.346 -47.327  13.624  1.00  0.00     0.167 HD
HETATM    7  C   UNL     1     -42.601 -49.388  13.892  1.00  0.00     0.185 A 
HETATM    8  N   UNL     1     -39.019 -48.752  11.327  1.00  0.00    -0.337 N 
ATOM      9  HN  UNL     1     -38.249 -48.309  10.826  1.00  0.00     0.168 HD
HETATM   10  N   UNL     1     -40.024 -50.853  12.014  1.00  0.00    -0.336 N 
ATOM     11  HN  UNL     1     -40.044 -51.872  12.003  1.00  0.00     0.168 HD
HETATM   12  C   UNL     1     -39.099 -50.099  11.393  1.00  0.00     0.183 A 
ENDROOT
BRANCH   2  13
HETATM   13  N   UNL     1     -39.891 -46.586  11.850  1.00  0.00    -0.360 N 
HETATM   14  C   UNL     1     -40.498 -45.921  10.672  1.00  0.00     0.094 C 
HETATM   15  C   UNL     1     -39.814 -44.547  10.497  1.00  0.00     0.026 C 
HETATM   16  C   UNL     1     -39.877 -43.697  11.765  1.00  0.00     0.004 C 
HETATM   17  C   UNL     1     -39.302 -44.464  12.948  1.00  0.00     0.020 C 
HETATM   18  C   UNL     1     -39.942 -45.841  13.115  1.00  0.00     0.125 C 
BRANCH  14  19
HETATM   19  C   UNL     1     -42.027 -45.810  10.798  1.00  0.00     0.127 C 
BRANCH  19  20
HETATM   20  C   UNL     1     -42.741 -46.265   9.550  1.00  0.00     0.217 C 
HETATM   21  O   UNL     1     -43.379 -45.505   8.831  1.00  0.00    -0.274 OA
HETATM   22  N   UNL     1     -42.647 -47.591   9.256  1.00  0.00    -0.370 N 
HETATM   23  H   UNL     1     -42.267 -48.263   9.909  1.00  0.00     0.159 HD
HETATM   24  H   UNL     1     -43.172 -47.930   8.459  1.00  0.00     0.159 HD
ENDBRANCH  19  20
ENDBRANCH  14  19
ENDBRANCH   2  13
BRANCH   3  25
HETATM   25  C   UNL     1     -42.244 -51.868  13.815  1.00  0.00     0.171 C 
BRANCH  25  26
HETATM   26  C   UNL     1     -43.245 -52.602  12.910  1.00  0.00     0.097 C 
HETATM   27  C   UNL     1     -44.669 -52.079  12.939  1.00  0.00     0.068 C 
HETATM   28  C   UNL     1     -45.499 -53.304  12.591  1.00  0.00     0.170 C 
HETATM   29  O   UNL     1     -44.747 -54.464  12.969  1.00  0.00    -0.388 OA
HETATM   30  C   UNL     1     -43.446 -54.040  13.401  1.00  0.00     0.207 C 
BRANCH  26  31
HETATM   31  O   UNL     1     -42.790 -52.650  11.552  1.00  0.00    -0.386 OA
HETATM   32  H   UNL     1     -41.823 -52.535  11.523  1.00  0.00     0.210 HD
ENDBRANCH  26  31
ENDBRANCH  25  26
ENDBRANCH   3  25
TORSDOF 6
ENDMDL
MODEL 4
REMARK VINA RESULT:      -6.9      3.611      5.109
REMARK  6 active torsions:
REMARK  status: ('A' for Active; 'I' for Inactive)
REMARK    1  A    between atoms: C_2  and  N_7 
REMARK    2  A    between atoms: N_3  and  C_15 
REMARK    3  A    between atoms: C_11  and  C_14 
REMARK    4  A    between atoms: C_14  and  C_17 
REMARK    5  A    between atoms: C_15  and  C_16 
REMARK    6  A    between atoms: C_16  and  O_24 
REMARK       I    between atoms: C_17  and  N_21 
ROOT
HETATM    1  C   UNL     1     -40.010 -48.472  12.683  1.00  0.00     0.122 A 
HETATM    2  C   UNL     1     -40.483 -47.206  13.137  1.00  0.00     0.135 A 
HETATM    3  N   UNL     1     -39.716 -50.643  12.825  1.00  0.00    -0.324 N 
HETATM    4  C   UNL     1     -40.240 -49.572  13.498  1.00  0.00     0.140 A 
HETATM    5  N   UNL     1     -39.346 -48.877  11.536  1.00  0.00    -0.346 N 
ATOM      6  HN  UNL     1     -39.036 -48.288  10.764  1.00  0.00     0.167 HD
HETATM    7  C   UNL     1     -39.200 -50.179  11.649  1.00  0.00     0.185 A 
HETATM    8  N   UNL     1     -41.167 -47.215  14.326  1.00  0.00    -0.337 N 
ATOM      9  HN  UNL     1     -41.572 -46.352  14.689  1.00  0.00     0.168 HD
HETATM   10  N   UNL     1     -40.855 -49.595  14.688  1.00  0.00    -0.336 N 
ATOM     11  HN  UNL     1     -40.968 -50.427  15.267  1.00  0.00     0.168 HD
HETATM   12  C   UNL     1     -41.303 -48.369  15.013  1.00  0.00     0.183 A 
ENDROOT
BRANCH   2  13
HETATM   13  N   UNL     1     -40.336 -46.001  12.437  1.00  0.00    -0.360 N 
HETATM   14  C   UNL     1     -40.771 -45.961  11.020  1.00  0.00     0.094 C 
HETATM   15  C   UNL     1     -40.021 -44.803  10.326  1.00  0.00     0.026 C 
HETATM   16  C   UNL     1     -40.204 -43.470  11.049  1.00  0.00     0.004 C 
HETATM   17  C   UNL     1     -39.807 -43.600  12.514  1.00  0.00     0.020 C 
HETATM   18  C   UNL     1     -40.512 -44.763  13.208  1.00  0.00     0.125 C 
BRANCH  14  19
HETATM   19  C   UNL     1     -42.298 -45.838  10.890  1.00  0.00     0.127 C 
BRANCH  19  20
HETATM   20  C   UNL     1     -42.797 -46.285   9.539  1.00  0.00     0.217 C 
HETATM   21  O   UNL     1     -43.378 -45.538   8.760  1.00  0.00    -0.274 OA
HETATM   22  N   UNL     1     -42.573 -47.590   9.219  1.00  0.00    -0.370 N 
HETATM   23  H   UNL     1     -42.245 -48.263   9.898  1.00  0.00     0.159 HD
HETATM   24  H   UNL     1     -42.957 -47.928   8.345  1.00  0.00     0.159 HD
ENDBRANCH  19  20
ENDBRANCH  14  19
ENDBRANCH   2  13
BRANCH   3  25
HETATM   25  C   UNL     1     -39.812 -52.036  13.219  1.00  0.00     0.171 C 
BRANCH  25  26
HETATM   26  C   UNL     1     -40.980 -52.810  12.590  1.00  0.00     0.097 C 
HETATM   27  C   UNL     1     -42.268 -52.031  12.407  1.00  0.00     0.068 C 
HETATM   28  C   UNL     1     -43.340 -53.106  12.472  1.00  0.00     0.170 C 
HETATM   29  O   UNL     1     -42.818 -54.199  13.237  1.00  0.00    -0.388 OA
HETATM   30  C   UNL     1     -41.439 -53.929  13.532  1.00  0.00     0.207 C 
BRANCH  26  31
HETATM   31  O   UNL     1     -40.606 -53.402  11.339  1.00  0.00    -0.386 OA
HETATM   32  H   UNL     1     -41.152 -54.192  11.171  1.00  0.00     0.210 HD
ENDBRANCH  26  31
ENDBRANCH  25  26
ENDBRANCH   3  25
TORSDOF 6
ENDMDL
MODEL 5
REMARK VINA RESULT:      -6.7      4.636      7.032
REMARK  6 active torsions:
REMARK  status: ('A' for Active; 'I' for Inactive)
REMARK    1  A    between atoms: C_2  and  N_7 
REMARK    2  A    between atoms: N_3  and  C_15 
REMARK    3  A    between atoms: C_11  and  C_14 
REMARK    4  A    between atoms: C_14  and  C_17 
REMARK    5  A    between atoms: C_15  and  C_16 
REMARK    6  A    between atoms: C_16  and  O_24 
REMARK       I    between atoms: C_17  and  N_21 
ROOT
HETATM    1  C   UNL     1     -40.910 -47.291  11.921  1.00  0.00     0.122 A 
HETATM    2  C   UNL     1     -41.400 -48.604  11.659  1.00  0.00     0.135 A 
HETATM    3  N   UNL     1     -40.686 -45.143  11.521  1.00  0.00    -0.324 N 
HETATM    4  C   UNL     1     -41.256 -46.286  11.027  1.00  0.00     0.140 A 
HETATM    5  N   UNL     1     -40.132 -46.757  12.936  1.00  0.00    -0.346 N 
ATOM      6  HN  UNL     1     -39.724 -47.257  13.726  1.00  0.00     0.167 HD
HETATM    7  C   UNL     1     -40.032 -45.474  12.672  1.00  0.00     0.185 A 
HETATM    8  N   UNL     1     -42.212 -48.730  10.561  1.00  0.00    -0.337 N 
ATOM      9  HN  UNL     1     -42.634 -49.632  10.338  1.00  0.00     0.168 HD
HETATM   10  N   UNL     1     -42.001 -46.398   9.919  1.00  0.00    -0.336 N 
ATOM     11  HN  UNL     1     -42.198 -45.634   9.272  1.00  0.00     0.168 HD
HETATM   12  C   UNL     1     -42.452 -47.657   9.776  1.00  0.00     0.183 A 
ENDROOT
BRANCH   2  13
HETATM   13  N   UNL     1     -41.147 -49.725  12.459  1.00  0.00    -0.360 N 
HETATM   14  C   UNL     1     -40.019 -50.611  12.080  1.00  0.00     0.094 C 
HETATM   15  C   UNL     1     -40.279 -52.002  12.702  1.00  0.00     0.026 C 
HETATM   16  C   UNL     1     -40.511 -51.934  14.210  1.00  0.00     0.004 C 
HETATM   17  C   UNL     1     -41.632 -50.956  14.533  1.00  0.00     0.020 C 
HETATM   18  C   UNL     1     -41.411 -49.586  13.897  1.00  0.00     0.125 C 
BRANCH  14  19
HETATM   19  C   UNL     1     -38.661 -50.022  12.495  1.00  0.00     0.127 C 
BRANCH  19  20
HETATM   20  C   UNL     1     -37.512 -50.638  11.736  1.00  0.00     0.217 C 
HETATM   21  O   UNL     1     -36.811 -51.531  12.195  1.00  0.00    -0.274 OA
HETATM   22  N   UNL     1     -37.281 -50.138  10.490  1.00  0.00    -0.370 N 
HETATM   23  H   UNL     1     -37.735 -49.301  10.152  1.00  0.00     0.159 HD
HETATM   24  H   UNL     1     -36.475 -50.491   9.989  1.00  0.00     0.159 HD
ENDBRANCH  19  20
ENDBRANCH  14  19
ENDBRANCH   2  13
BRANCH   3  25
HETATM   25  C   UNL     1     -40.860 -43.802  10.997  1.00  0.00     0.171 C 
BRANCH  25  26
HETATM   26  C   UNL     1     -42.246 -43.185  11.235  1.00  0.00     0.097 C 
HETATM   27  C   UNL     1     -42.336 -41.680  11.076  1.00  0.00     0.068 C 
HETATM   28  C   UNL     1     -43.483 -41.297  11.998  1.00  0.00     0.170 C 
HETATM   29  O   UNL     1     -43.579 -42.302  13.015  1.00  0.00    -0.388 OA
HETATM   30  C   UNL     1     -42.655 -43.355  12.702  1.00  0.00     0.207 C 
BRANCH  26  31
HETATM   31  O   UNL     1     -43.246 -43.805  10.416  1.00  0.00    -0.386 OA
HETATM   32  H   UNL     1     -43.393 -44.722  10.711  1.00  0.00     0.210 HD
ENDBRANCH  26  31
ENDBRANCH  25  26
ENDBRANCH   3  25
TORSDOF 6
ENDMDL
MODEL 6
REMARK VINA RESULT:      -6.6      3.259      6.529
REMARK  6 active torsions:
REMARK  status: ('A' for Active; 'I' for Inactive)
REMARK    1  A    between atoms: C_2  and  N_7 
REMARK    2  A    between atoms: N_3  and  C_15 
REMARK    3  A    between atoms: C_11  and  C_14 
REMARK    4  A    between atoms: C_14  and  C_17 
REMARK    5  A    between atoms: C_15  and  C_16 
REMARK    6  A    between atoms: C_16  and  O_24 
REMARK       I    between atoms: C_17  and  N_21 
ROOT
HETATM    1  C   UNL     1     -41.949 -49.880  12.241  1.00  0.00     0.122 A 
HETATM    2  C   UNL     1     -41.083 -50.987  12.480  1.00  0.00     0.135 A 
HETATM    3  N   UNL     1     -42.504 -47.958  11.336  1.00  0.00    -0.324 N 
HETATM    4  C   UNL     1     -41.483 -48.867  11.414  1.00  0.00     0.140 A 
HETATM    5  N   UNL     1     -43.234 -49.577  12.663  1.00  0.00    -0.346 N 
ATOM      6  HN  UNL     1     -43.824 -50.129  13.286  1.00  0.00     0.167 HD
HETATM    7  C   UNL     1     -43.537 -48.433  12.093  1.00  0.00     0.185 A 
HETATM    8  N   UNL     1     -39.881 -50.958  11.820  1.00  0.00    -0.337 N 
ATOM      9  HN  UNL     1     -39.229 -51.737  11.909  1.00  0.00     0.168 HD
HETATM   10  N   UNL     1     -40.292 -48.790  10.805  1.00  0.00    -0.336 N 
ATOM     11  HN  UNL     1     -39.982 -48.005  10.234  1.00  0.00     0.168 HD
HETATM   12  C   UNL     1     -39.562 -49.893  11.052  1.00  0.00     0.183 A 
ENDROOT
BRANCH   2  13
HETATM   13  N   UNL     1     -41.398 -52.089  13.284  1.00  0.00    -0.360 N 
HETATM   14  C   UNL     1     -42.831 -52.399  13.511  1.00  0.00     0.094 C 
HETATM   15  C   UNL     1     -42.938 -53.225  14.812  1.00  0.00     0.026 C 
HETATM   16  C   UNL     1     -42.050 -54.468  14.791  1.00  0.00     0.004 C 
HETATM   17  C   UNL     1     -40.607 -54.086  14.484  1.00  0.00     0.020 C 
HETATM   18  C   UNL     1     -40.486 -53.239  13.220  1.00  0.00     0.125 C 
BRANCH  14  19
HETATM   19  C   UNL     1     -43.463 -53.112  12.304  1.00  0.00     0.127 C 
BRANCH  19  20
HETATM   20  C   UNL     1     -44.942 -53.345  12.484  1.00  0.00     0.217 C 
HETATM   21  O   UNL     1     -45.409 -54.410  12.869  1.00  0.00    -0.274 OA
HETATM   22  N   UNL     1     -45.755 -52.293  12.187  1.00  0.00    -0.370 N 
HETATM   23  H   UNL     1     -45.414 -51.464  11.719  1.00  0.00     0.159 HD
HETATM   24  H   UNL     1     -46.754 -52.447  12.238  1.00  0.00     0.159 HD
ENDBRANCH  19  20
ENDBRANCH  14  19
ENDBRANCH   2  13
BRANCH   3  25
HETATM   25  C   UNL     1     -42.540 -46.777  10.495  1.00  0.00     0.171 C 
BRANCH  25  26
HETATM   26  C   UNL     1     -43.584 -46.812   9.369  1.00  0.00     0.097 C 
HETATM   27  C   UNL     1     -44.942 -47.374   9.742  1.00  0.00     0.068 C 
HETATM   28  C   UNL     1     -45.465 -47.932   8.429  1.00  0.00     0.170 C 
HETATM   29  O   UNL     1     -44.334 -48.248   7.608  1.00  0.00    -0.388 OA
HETATM   30  C   UNL     1     -43.147 -47.792   8.274  1.00  0.00     0.207 C 
BRANCH  26  31
HETATM   31  O   UNL     1     -43.757 -45.521   8.772  1.00  0.00    -0.386 OA
HETATM   32  H   UNL     1     -43.520 -45.558   7.827  1.00  0.00     0.210 HD
ENDBRANCH  26  31
ENDBRANCH  25  26
ENDBRANCH   3  25
TORSDOF 6
ENDMDL
MODEL 7
REMARK VINA RESULT:      -6.5      2.996      6.935
REMARK  6 active torsions:
REMARK  status: ('A' for Active; 'I' for Inactive)
REMARK    1  A    between atoms: C_2  and  N_7 
REMARK    2  A    between atoms: N_3  and  C_15 
REMARK    3  A    between atoms: C_11  and  C_14 
REMARK    4  A    between atoms: C_14  and  C_17 
REMARK    5  A    between atoms: C_15  and  C_16 
REMARK    6  A    between atoms: C_16  and  O_24 
REMARK       I    between atoms: C_17  and  N_21 
ROOT
HETATM    1  C   UNL     1     -42.445 -51.364  13.849  1.00  0.00     0.122 A 
HETATM    2  C   UNL     1     -42.016 -52.715  14.004  1.00  0.00     0.135 A 
HETATM    3  N   UNL     1     -42.724 -49.489  12.742  1.00  0.00    -0.324 N 
HETATM    4  C   UNL     1     -42.196 -50.747  12.630  1.00  0.00     0.140 A 
HETATM    5  N   UNL     1     -43.108 -50.481  14.687  1.00  0.00    -0.346 N 
ATOM      6  HN  UNL     1     -43.409 -50.651  15.646  1.00  0.00     0.167 HD
HETATM    7  C   UNL     1     -43.269 -49.379  13.989  1.00  0.00     0.185 A 
HETATM    8  N   UNL     1     -41.437 -53.288  12.900  1.00  0.00    -0.337 N 
ATOM      9  HN  UNL     1     -41.146 -54.265  12.924  1.00  0.00     0.168 HD
HETATM   10  N   UNL     1     -41.581 -51.268  11.560  1.00  0.00    -0.336 N 
ATOM     11  HN  UNL     1     -41.390 -50.760  10.697  1.00  0.00     0.168 HD
HETATM   12  C   UNL     1     -41.252 -52.553  11.781  1.00  0.00     0.183 A 
ENDROOT
BRANCH   2  13
HETATM   13  N   UNL     1     -42.192 -53.481  15.163  1.00  0.00    -0.360 N 
HETATM   14  C   UNL     1     -43.565 -53.925  15.503  1.00  0.00     0.094 C 
HETATM   15  C   UNL     1     -43.606 -54.221  17.019  1.00  0.00     0.026 C 
HETATM   16  C   UNL     1     -42.529 -55.213  17.452  1.00  0.00     0.004 C 
HETATM   17  C   UNL     1     -41.153 -54.730  17.011  1.00  0.00     0.020 C 
HETATM   18  C   UNL     1     -41.103 -54.400  15.521  1.00  0.00     0.125 C 
BRANCH  14  19
HETATM   19  C   UNL     1     -44.007 -55.129  14.654  1.00  0.00     0.127 C 
BRANCH  19  20
HETATM   20  C   UNL     1     -45.127 -54.782  13.706  1.00  0.00     0.217 C 
HETATM   21  O   UNL     1     -44.936 -54.354  12.574  1.00  0.00    -0.274 OA
HETATM   22  N   UNL     1     -46.391 -54.965  14.179  1.00  0.00    -0.370 N 
HETATM   23  H   UNL     1     -46.579 -55.161  15.152  1.00  0.00     0.159 HD
HETATM   24  H   UNL     1     -47.158 -54.677  13.583  1.00  0.00     0.159 HD
ENDBRANCH  19  20
ENDBRANCH  14  19
ENDBRANCH   2  13
BRANCH   3  25
HETATM   25  C   UNL     1     -42.814 -48.499  11.686  1.00  0.00     0.171 C 
BRANCH  25  26
HETATM   26  C   UNL     1     -41.490 -47.806  11.330  1.00  0.00     0.097 C 
HETATM   27  C   UNL     1     -40.721 -47.210  12.493  1.00  0.00     0.068 C 
HETATM   28  C   UNL     1     -39.945 -46.070  11.853  1.00  0.00     0.170 C 
HETATM   29  O   UNL     1     -40.661 -45.657  10.683  1.00  0.00    -0.388 OA
HETATM   30  C   UNL     1     -41.758 -46.560  10.480  1.00  0.00     0.207 C 
BRANCH  26  31
HETATM   31  O   UNL     1     -40.623 -48.676  10.590  1.00  0.00    -0.386 OA
HETATM   32  H   UNL     1     -40.681 -49.582  10.946  1.00  0.00     0.210 HD
ENDBRANCH  26  31
ENDBRANCH  25  26
ENDBRANCH   3  25
TORSDOF 6
ENDMDL
MODEL 8
REMARK VINA RESULT:      -6.5      1.351      2.123
REMARK  6 active torsions:
REMARK  status: ('A' for Active; 'I' for Inactive)
REMARK    1  A    between atoms: C_2  and  N_7 
REMARK    2  A    between atoms: N_3  and  C_15 
REMARK    3  A    between atoms: C_11  and  C_14 
REMARK    4  A    between atoms: C_14  and  C_17 
REMARK    5  A    between atoms: C_15  and  C_16 
REMARK    6  A    between atoms: C_16  and  O_24 
REMARK       I    between atoms: C_17  and  N_21 
ROOT
HETATM    1  C   UNL     1     -42.338 -51.020  13.123  1.00  0.00     0.122 A 
HETATM    2  C   UNL     1     -40.936 -50.770  13.053  1.00  0.00     0.135 A 
HETATM    3  N   UNL     1     -44.147 -52.243  12.886  1.00  0.00    -0.324 N 
HETATM    4  C   UNL     1     -42.791 -52.259  12.690  1.00  0.00     0.140 A 
HETATM    5  N   UNL     1     -43.412 -50.265  13.566  1.00  0.00    -0.346 N 
ATOM      6  HN  UNL     1     -43.386 -49.312  13.929  1.00  0.00     0.167 HD
HETATM    7  C   UNL     1     -44.471 -51.030  13.423  1.00  0.00     0.185 A 
HETATM    8  N   UNL     1     -40.165 -51.813  12.604  1.00  0.00    -0.337 N 
ATOM      9  HN  UNL     1     -39.150 -51.720  12.570  1.00  0.00     0.168 HD
HETATM   10  N   UNL     1     -42.064 -53.269  12.195  1.00  0.00    -0.336 N 
ATOM     11  HN  UNL     1     -42.450 -54.151  11.856  1.00  0.00     0.168 HD
HETATM   12  C   UNL     1     -40.755 -52.962  12.208  1.00  0.00     0.183 A 
ENDROOT
BRANCH   2  13
HETATM   13  N   UNL     1     -40.316 -49.579  13.451  1.00  0.00    -0.360 N 
HETATM   14  C   UNL     1     -38.844 -49.479  13.309  1.00  0.00     0.094 C 
HETATM   15  C   UNL     1     -38.345 -48.395  14.290  1.00  0.00     0.026 C 
HETATM   16  C   UNL     1     -39.060 -47.058  14.098  1.00  0.00     0.004 C 
HETATM   17  C   UNL     1     -40.569 -47.244  14.185  1.00  0.00     0.020 C 
HETATM   18  C   UNL     1     -41.076 -48.338  13.247  1.00  0.00     0.125 C 
BRANCH  14  19
HETATM   19  C   UNL     1     -38.423 -49.201  11.857  1.00  0.00     0.127 C 
BRANCH  19  20
HETATM   20  C   UNL     1     -37.501 -50.264  11.313  1.00  0.00     0.217 C 
HETATM   21  O   UNL     1     -37.151 -51.241  11.963  1.00  0.00    -0.274 OA
HETATM   22  N   UNL     1     -37.060 -50.079  10.037  1.00  0.00    -0.370 N 
HETATM   23  H   UNL     1     -37.201 -49.212   9.539  1.00  0.00     0.159 HD
HETATM   24  H   UNL     1     -36.389 -50.746   9.675  1.00  0.00     0.159 HD
ENDBRANCH  19  20
ENDBRANCH  14  19
ENDBRANCH   2  13
BRANCH   3  25
HETATM   25  C   UNL     1     -45.055 -53.356  12.692  1.00  0.00     0.171 C 
BRANCH  25  26
HETATM   26  C   UNL     1     -45.440 -54.113  13.972  1.00  0.00     0.097 C 
HETATM   27  C   UNL     1     -46.299 -53.348  14.960  1.00  0.00     0.068 C 
HETATM   28  C   UNL     1     -45.936 -53.972  16.298  1.00  0.00     0.170 C 
HETATM   29  O   UNL     1     -44.615 -54.516  16.182  1.00  0.00    -0.388 OA
HETATM   30  C   UNL     1     -44.191 -54.391  14.816  1.00  0.00     0.207 C 
BRANCH  26  31
HETATM   31  O   UNL     1     -46.068 -55.366  13.674  1.00  0.00    -0.386 OA
HETATM   32  H   UNL     1     -45.879 -56.008  14.383  1.00  0.00     0.210 HD
ENDBRANCH  26  31
ENDBRANCH  25  26
ENDBRANCH   3  25
TORSDOF 6
ENDMDL
MODEL 9
REMARK VINA RESULT:      -6.4      3.590      6.850
REMARK  6 active torsions:
REMARK  status: ('A' for Active; 'I' for Inactive)
REMARK    1  A    between atoms: C_2  and  N_7 
REMARK    2  A    between atoms: N_3  and  C_15 
REMARK    3  A    between atoms: C_11  and  C_14 
REMARK    4  A    between atoms: C_14  and  C_17 
REMARK    5  A    between atoms: C_15  and  C_16 
REMARK    6  A    between atoms: C_16  and  O_24 
REMARK       I    between atoms: C_17  and  N_21 
ROOT
HETATM    1  C   UNL     1     -41.432 -49.657  12.685  1.00  0.00     0.122 A 
HETATM    2  C   UNL     1     -41.436 -50.556  13.791  1.00  0.00     0.135 A 
HETATM    3  N   UNL     1     -40.739 -47.904  11.558  1.00  0.00    -0.324 N 
HETATM    4  C   UNL     1     -40.559 -48.579  12.736  1.00  0.00     0.140 A 
HETATM    5  N   UNL     1     -42.136 -49.624  11.491  1.00  0.00    -0.346 N 
ATOM      6  HN  UNL     1     -42.854 -50.279  11.181  1.00  0.00     0.167 HD
HETATM    7  C   UNL     1     -41.687 -48.574  10.840  1.00  0.00     0.185 A 
HETATM    8  N   UNL     1     -40.529 -50.285  14.784  1.00  0.00    -0.337 N 
ATOM      9  HN  UNL     1     -40.446 -50.911  15.585  1.00  0.00     0.168 HD
HETATM   10  N   UNL     1     -39.706 -48.263  13.720  1.00  0.00    -0.336 N 
ATOM     11  HN  UNL     1     -39.108 -47.437  13.727  1.00  0.00     0.168 HD
HETATM   12  C   UNL     1     -39.747 -49.187  14.698  1.00  0.00     0.183 A 
ENDROOT
BRANCH   2  13
HETATM   13  N   UNL     1     -42.251 -51.690  13.896  1.00  0.00    -0.360 N 
HETATM   14  C   UNL     1     -41.706 -52.985  13.422  1.00  0.00     0.094 C 
HETATM   15  C   UNL     1     -42.899 -53.914  13.101  1.00  0.00     0.026 C 
HETATM   16  C   UNL     1     -43.860 -54.060  14.280  1.00  0.00     0.004 C 
HETATM   17  C   UNL     1     -44.325 -52.692  14.760  1.00  0.00     0.020 C 
HETATM   18  C   UNL     1     -43.159 -51.749  15.049  1.00  0.00     0.125 C 
BRANCH  14  19
HETATM   19  C   UNL     1     -40.731 -53.605  14.437  1.00  0.00     0.127 C 
BRANCH  19  20
HETATM   20  C   UNL     1     -39.321 -53.681  13.907  1.00  0.00     0.217 C 
HETATM   21  O   UNL     1     -38.653 -52.689  13.642  1.00  0.00    -0.274 OA
HETATM   22  N   UNL     1     -38.816 -54.933  13.726  1.00  0.00    -0.370 N 
HETATM   23  H   UNL     1     -39.393 -55.760  13.782  1.00  0.00     0.159 HD
HETATM   24  H   UNL     1     -37.895 -55.008  13.309  1.00  0.00     0.159 HD
ENDBRANCH  19  20
ENDBRANCH  14  19
ENDBRANCH   2  13
BRANCH   3  25
HETATM   25  C   UNL     1     -39.968 -46.767  11.094  1.00  0.00     0.171 C 
BRANCH  25  26
HETATM   26  C   UNL     1     -40.787 -45.499  10.809  1.00  0.00     0.097 C 
HETATM   27  C   UNL     1     -40.021 -44.191  10.864  1.00  0.00     0.068 C 
HETATM   28  C   UNL     1     -41.086 -43.178  11.252  1.00  0.00     0.170 C 
HETATM   29  O   UNL     1     -42.117 -43.877  11.959  1.00  0.00    -0.388 OA
HETATM   30  C   UNL     1     -41.828 -45.282  11.912  1.00  0.00     0.207 C 
BRANCH  26  31
HETATM   31  O   UNL     1     -41.474 -45.589   9.554  1.00  0.00    -0.386 OA
HETATM   32  H   UNL     1     -40.922 -45.207   8.847  1.00  0.00     0.210 HD
ENDBRANCH  26  31
ENDBRANCH  25  26
ENDBRANCH   3  25
TORSDOF 6
ENDMDL
