MODEL 1
REMARK VINA RESULT:      -6.8      0.000      0.000
REMARK  6 active torsions:
REMARK  status: ('A' for Active; 'I' for Inactive)
REMARK    1  A    between atoms: N_4  and  C_5 
REMARK    2  A    between atoms: C_5  and  C_6 
REMARK    3  A    between atoms: C_6  and  O_9 
REMARK       I    between atoms: N_12  and  C_13 
REMARK       I    between atoms: C_13  and  N_15 
REMARK    4  A    between atoms: N_15  and  C_16 
REMARK    5  A    between atoms: C_16  and  C_17 
REMARK    6  A    between atoms: C_17  and  C_18 
ROOT
HETATM    1  C   UNL     1     -42.849 -49.732  14.997  1.00  0.00     0.034 C 
HETATM    2  C   UNL     1     -43.306 -49.747  13.533  1.00  0.00     0.113 C 
HETATM    3  C   UNL     1     -44.367 -50.859  13.282  1.00  0.00     0.297 C 
HETATM    4  N   UNL     1     -43.815 -52.240  13.372  1.00  0.00     0.095 N 
HETATM    5  C   UNL     1     -42.681 -52.348  12.420  1.00  0.00     0.292 C 
HETATM    6  C   UNL     1     -41.594 -51.282  12.651  1.00  0.00     0.158 C 
HETATM    7  N   UNL     1     -42.152 -49.932  12.626  1.00  0.00    -0.327 N 
HETATM    8  C   UNL     1     -41.757 -49.102  11.597  1.00  0.00     0.318 C 
HETATM    9  O   UNL     1     -40.918 -49.431  10.767  1.00  0.00    -0.247 OA
HETATM   10  N   UNL     1     -42.375 -47.881  11.544  1.00  0.00    -0.343 N 
HETATM   11  H   UNL     1     -42.518 -47.468  12.452  1.00  0.00     0.164 HD
ENDROOT
BRANCH  10  12
HETATM   12  C   UNL     1     -42.015 -46.943  10.488  1.00  0.00     0.129 C 
BRANCH  12  13
HETATM   13  C   UNL     1     -43.211 -46.139   9.953  1.00  0.00     0.060 C 
BRANCH  13  14
HETATM   14  C   UNL     1     -44.127 -46.990   9.121  1.00  0.00    -0.041 A 
HETATM   15  C   UNL     1     -45.449 -47.222   9.501  1.00  0.00     0.010 A 
HETATM   16  C   UNL     1     -46.256 -48.051   8.725  1.00  0.00     0.025 A 
HETATM   17  C   UNL     1     -45.714 -48.636   7.584  1.00  0.00     0.005 A 
HETATM   18  C   UNL     1     -46.520 -49.586   6.750  1.00  0.00     0.068 C 
HETATM   19  N   UNL     1     -44.438 -48.421   7.191  1.00  0.00    -0.369 N 
HETATM   20  C   UNL     1     -43.679 -47.605   7.958  1.00  0.00     0.095 A 
ATOM     21  HN  UNL     1     -44.061 -48.857   6.349  1.00  0.00     0.165 HD
ENDBRANCH  13  14
ENDBRANCH  12  13
ENDBRANCH  10  12
BRANCH   4  22
HETATM   22  C   UNL     1     -44.887 -53.229  13.071  1.00  0.00     0.309 C 
BRANCH  22  23
HETATM   23  C   UNL     1     -45.109 -54.383  14.103  1.00  0.00     0.077 C 
HETATM   24  C   UNL     1     -43.787 -54.848  14.725  1.00  0.00     0.047 C 
HETATM   25  C   UNL     1     -46.062 -53.922  15.213  1.00  0.00     0.047 C 
BRANCH  23  26
HETATM   26  O   UNL     1     -45.777 -55.491  13.488  1.00  0.00    -0.389 OA
HETATM   27  H   UNL     1     -45.810 -56.215  14.135  1.00  0.00     0.210 HD
ENDBRANCH  23  26
ENDBRANCH  22  23
ENDBRANCH   4  22
TORSDOF 6
ENDMDL
MODEL 2
REMARK VINA RESULT:      -6.2      3.599      7.322
REMARK  6 active torsions:
REMARK  status: ('A' for Active; 'I' for Inactive)
REMARK    1  A    between atoms: N_4  and  C_5 
REMARK    2  A    between atoms: C_5  and  C_6 
REMARK    3  A    between atoms: C_6  and  O_9 
REMARK       I    between atoms: N_12  and  C_13 
REMARK       I    between atoms: C_13  and  N_15 
REMARK    4  A    between atoms: N_15  and  C_16 
REMARK    5  A    between atoms: C_16  and  C_17 
REMARK    6  A    between atoms: C_17  and  C_18 
ROOT
HETATM    1  C   UNL     1     -38.072 -49.720  11.501  1.00  0.00     0.034 C 
HETATM    2  C   UNL     1     -39.484 -50.191  11.870  1.00  0.00     0.113 C 
HETATM    3  C   UNL     1     -40.572 -49.290  11.214  1.00  0.00     0.297 C 
HETATM    4  N   UNL     1     -40.625 -47.913  11.780  1.00  0.00     0.095 N 
HETATM    5  C   UNL     1     -40.826 -48.023  13.247  1.00  0.00     0.292 C 
HETATM    6  C   UNL     1     -39.755 -48.886  13.941  1.00  0.00     0.158 C 
HETATM    7  N   UNL     1     -39.662 -50.213  13.338  1.00  0.00    -0.327 N 
HETATM    8  C   UNL     1     -40.029 -51.290  14.119  1.00  0.00     0.318 C 
HETATM    9  O   UNL     1     -40.353 -51.175  15.295  1.00  0.00    -0.247 OA
HETATM   10  N   UNL     1     -40.029 -52.509  13.494  1.00  0.00    -0.343 N 
HETATM   11  H   UNL     1     -39.254 -52.631  12.860  1.00  0.00     0.164 HD
ENDROOT
BRANCH  10  12
HETATM   12  C   UNL     1     -40.403 -53.699  14.247  1.00  0.00     0.129 C 
BRANCH  12  13
HETATM   13  C   UNL     1     -41.592 -54.458  13.636  1.00  0.00     0.060 C 
BRANCH  13  14
HETATM   14  C   UNL     1     -42.847 -53.633  13.651  1.00  0.00    -0.041 A 
HETATM   15  C   UNL     1     -43.395 -53.164  14.845  1.00  0.00     0.010 A 
HETATM   16  C   UNL     1     -44.584 -52.438  14.822  1.00  0.00     0.025 A 
HETATM   17  C   UNL     1     -45.201 -52.202  13.596  1.00  0.00     0.005 A 
HETATM   18  C   UNL     1     -46.513 -51.480  13.522  1.00  0.00     0.068 C 
HETATM   19  N   UNL     1     -44.685 -52.640  12.425  1.00  0.00    -0.369 N 
HETATM   20  C   UNL     1     -43.526 -53.335  12.476  1.00  0.00     0.095 A 
ATOM     21  HN  UNL     1     -45.152 -52.453  11.537  1.00  0.00     0.165 HD
ENDBRANCH  13  14
ENDBRANCH  12  13
ENDBRANCH  10  12
BRANCH   4  22
HETATM   22  C   UNL     1     -41.721 -47.145  11.128  1.00  0.00     0.309 C 
BRANCH  22  23
HETATM   23  C   UNL     1     -41.368 -45.729  10.563  1.00  0.00     0.077 C 
HETATM   24  C   UNL     1     -42.013 -44.612  11.390  1.00  0.00     0.047 C 
HETATM   25  C   UNL     1     -39.846 -45.536  10.542  1.00  0.00     0.047 C 
BRANCH  23  26
HETATM   26  O   UNL     1     -41.767 -45.617   9.192  1.00  0.00    -0.389 OA
HETATM   27  H   UNL     1     -42.559 -46.167   9.067  1.00  0.00     0.210 HD
ENDBRANCH  23  26
ENDBRANCH  22  23
ENDBRANCH   4  22
TORSDOF 6
ENDMDL
MODEL 3
REMARK VINA RESULT:      -6.2      2.854      7.702
REMARK  6 active torsions:
REMARK  status: ('A' for Active; 'I' for Inactive)
REMARK    1  A    between atoms: N_4  and  C_5 
REMARK    2  A    between atoms: C_5  and  C_6 
REMARK    3  A    between atoms: C_6  and  O_9 
REMARK       I    between atoms: N_12  and  C_13 
REMARK       I    between atoms: C_13  and  N_15 
REMARK    4  A    between atoms: N_15  and  C_16 
REMARK    5  A    between atoms: C_16  and  C_17 
REMARK    6  A    between atoms: C_17  and  C_18 
ROOT
HETATM    1  C   UNL     1     -42.983 -47.703   9.489  1.00  0.00     0.034 C 
HETATM    2  C   UNL     1     -42.858 -48.026  10.982  1.00  0.00     0.113 C 
HETATM    3  C   UNL     1     -43.063 -46.753  11.856  1.00  0.00     0.297 C 
HETATM    4  N   UNL     1     -41.957 -45.763  11.734  1.00  0.00     0.095 N 
HETATM    5  C   UNL     1     -40.683 -46.449  12.067  1.00  0.00     0.292 C 
HETATM    6  C   UNL     1     -40.428 -47.700  11.206  1.00  0.00     0.158 C 
HETATM    7  N   UNL     1     -41.545 -48.638  11.279  1.00  0.00    -0.327 N 
HETATM    8  C   UNL     1     -41.308 -49.860  11.874  1.00  0.00     0.318 C 
HETATM    9  O   UNL     1     -40.199 -50.200  12.268  1.00  0.00    -0.247 OA
HETATM   10  N   UNL     1     -42.399 -50.676  12.018  1.00  0.00    -0.343 N 
HETATM   11  H   UNL     1     -43.021 -50.653  11.224  1.00  0.00     0.164 HD
ENDROOT
BRANCH  10  12
HETATM   12  C   UNL     1     -42.236 -51.986  12.637  1.00  0.00     0.129 C 
BRANCH  12  13
HETATM   13  C   UNL     1     -43.468 -52.891  12.480  1.00  0.00     0.060 C 
BRANCH  13  14
HETATM   14  C   UNL     1     -44.563 -52.513  13.436  1.00  0.00    -0.041 A 
HETATM   15  C   UNL     1     -45.679 -51.789  13.014  1.00  0.00     0.010 A 
HETATM   16  C   UNL     1     -46.653 -51.420  13.939  1.00  0.00     0.025 A 
HETATM   17  C   UNL     1     -46.484 -51.783  15.272  1.00  0.00     0.005 A 
HETATM   18  C   UNL     1     -47.471 -51.357  16.317  1.00  0.00     0.068 C 
HETATM   19  N   UNL     1     -45.414 -52.491  15.704  1.00  0.00    -0.369 N 
HETATM   20  C   UNL     1     -44.488 -52.843  14.783  1.00  0.00     0.095 A 
ATOM     21  HN  UNL     1     -45.311 -52.749  16.685  1.00  0.00     0.165 HD
ENDBRANCH  13  14
ENDBRANCH  12  13
ENDBRANCH  10  12
BRANCH   4  22
HETATM   22  C   UNL     1     -42.216 -44.608  12.638  1.00  0.00     0.309 C 
BRANCH  22  23
HETATM   23  C   UNL     1     -42.481 -43.219  11.970  1.00  0.00     0.077 C 
HETATM   24  C   UNL     1     -43.057 -42.210  12.969  1.00  0.00     0.047 C 
HETATM   25  C   UNL     1     -41.179 -42.664  11.375  1.00  0.00     0.047 C 
BRANCH  23  26
HETATM   26  O   UNL     1     -43.362 -43.356  10.849  1.00  0.00    -0.389 OA
HETATM   27  H   UNL     1     -42.975 -44.011  10.245  1.00  0.00     0.210 HD
ENDBRANCH  23  26
ENDBRANCH  22  23
ENDBRANCH   4  22
TORSDOF 6
ENDMDL
MODEL 4
REMARK VINA RESULT:      -6.1      2.838      4.514
REMARK  6 active torsions:
REMARK  status: ('A' for Active; 'I' for Inactive)
REMARK    1  A    between atoms: N_4  and  C_5 
REMARK    2  A    between atoms: C_5  and  C_6 
REMARK    3  A    between atoms: C_6  and  O_9 
REMARK       I    between atoms: N_12  and  C_13 
REMARK       I    between atoms: C_13  and  N_15 
REMARK    4  A    between atoms: N_15  and  C_16 
REMARK    5  A    between atoms: C_16  and  C_17 
REMARK    6  A    between atoms: C_17  and  C_18 
ROOT
HETATM    1  C   UNL     1     -41.798 -51.916  16.818  1.00  0.00     0.034 C 
HETATM    2  C   UNL     1     -41.646 -51.939  15.292  1.00  0.00     0.113 C 
HETATM    3  C   UNL     1     -42.999 -52.267  14.593  1.00  0.00     0.297 C 
HETATM    4  N   UNL     1     -43.456 -53.668  14.807  1.00  0.00     0.095 N 
HETATM    5  C   UNL     1     -42.377 -54.582  14.354  1.00  0.00     0.292 C 
HETATM    6  C   UNL     1     -41.026 -54.310  15.041  1.00  0.00     0.158 C 
HETATM    7  N   UNL     1     -40.614 -52.917  14.883  1.00  0.00    -0.327 N 
HETATM    8  C   UNL     1     -39.484 -52.672  14.131  1.00  0.00     0.318 C 
HETATM    9  O   UNL     1     -38.792 -53.570  13.665  1.00  0.00    -0.247 OA
HETATM   10  N   UNL     1     -39.183 -51.354  13.917  1.00  0.00    -0.343 N 
HETATM   11  H   UNL     1     -39.344 -50.772  14.724  1.00  0.00     0.164 HD
ENDROOT
BRANCH  10  12
HETATM   12  C   UNL     1     -38.003 -51.007  13.133  1.00  0.00     0.129 C 
BRANCH  12  13
HETATM   13  C   UNL     1     -37.894 -49.505  12.828  1.00  0.00     0.060 C 
BRANCH  13  14
HETATM   14  C   UNL     1     -39.087 -49.002  12.065  1.00  0.00    -0.041 A 
HETATM   15  C   UNL     1     -39.582 -47.712  12.258  1.00  0.00     0.010 A 
HETATM   16  C   UNL     1     -40.717 -47.297  11.564  1.00  0.00     0.025 A 
HETATM   17  C   UNL     1     -41.334 -48.190  10.693  1.00  0.00     0.005 A 
HETATM   18  C   UNL     1     -42.592 -47.814   9.970  1.00  0.00     0.068 C 
HETATM   19  N   UNL     1     -40.869 -49.443  10.484  1.00  0.00    -0.369 N 
HETATM   20  C   UNL     1     -39.761 -49.818  11.165  1.00  0.00     0.095 A 
ATOM     21  HN  UNL     1     -41.334 -50.081   9.839  1.00  0.00     0.165 HD
ENDBRANCH  13  14
ENDBRANCH  12  13
ENDBRANCH  10  12
BRANCH   4  22
HETATM   22  C   UNL     1     -44.726 -53.900  14.065  1.00  0.00     0.309 C 
BRANCH  22  23
HETATM   23  C   UNL     1     -46.056 -53.852  14.886  1.00  0.00     0.077 C 
HETATM   24  C   UNL     1     -45.795 -53.946  16.393  1.00  0.00     0.047 C 
HETATM   25  C   UNL     1     -46.818 -52.556  14.580  1.00  0.00     0.047 C 
BRANCH  23  26
HETATM   26  O   UNL     1     -46.943 -54.900  14.476  1.00  0.00    -0.389 OA
HETATM   27  H   UNL     1     -46.894 -55.608  15.141  1.00  0.00     0.210 HD
ENDBRANCH  23  26
ENDBRANCH  22  23
ENDBRANCH   4  22
TORSDOF 6
ENDMDL
MODEL 5
REMARK VINA RESULT:      -5.7      4.345      7.623
REMARK  6 active torsions:
REMARK  status: ('A' for Active; 'I' for Inactive)
REMARK    1  A    between atoms: N_4  and  C_5 
REMARK    2  A    between atoms: C_5  and  C_6 
REMARK    3  A    between atoms: C_6  and  O_9 
REMARK       I    between atoms: N_12  and  C_13 
REMARK       I    between atoms: C_13  and  N_15 
REMARK    4  A    between atoms: N_15  and  C_16 
REMARK    5  A    between atoms: C_16  and  C_17 
REMARK    6  A    between atoms: C_17  and  C_18 
ROOT
HETATM    1  C   UNL     1     -40.371 -48.365  13.446  1.00  0.00     0.034 C 
HETATM    2  C   UNL     1     -40.483 -49.799  13.977  1.00  0.00     0.113 C 
HETATM    3  C   UNL     1     -39.495 -50.046  15.156  1.00  0.00     0.297 C 
HETATM    4  N   UNL     1     -38.064 -50.057  14.741  1.00  0.00     0.095 N 
HETATM    5  C   UNL     1     -37.900 -51.077  13.674  1.00  0.00     0.292 C 
HETATM    6  C   UNL     1     -38.841 -50.854  12.475  1.00  0.00     0.158 C 
HETATM    7  N   UNL     1     -40.238 -50.779  12.896  1.00  0.00    -0.327 N 
HETATM    8  C   UNL     1     -41.081 -51.785  12.474  1.00  0.00     0.318 C 
HETATM    9  O   UNL     1     -40.720 -52.677  11.716  1.00  0.00    -0.247 OA
HETATM   10  N   UNL     1     -42.358 -51.741  12.968  1.00  0.00    -0.343 N 
HETATM   11  H   UNL     1     -42.732 -50.807  13.022  1.00  0.00     0.164 HD
ENDROOT
BRANCH  10  12
HETATM   12  C   UNL     1     -43.315 -52.767  12.571  1.00  0.00     0.129 C 
BRANCH  12  13
HETATM   13  C   UNL     1     -43.795 -53.638  13.743  1.00  0.00     0.060 C 
BRANCH  13  14
HETATM   14  C   UNL     1     -44.935 -52.999  14.483  1.00  0.00    -0.041 A 
HETATM   15  C   UNL     1     -45.745 -52.036  13.880  1.00  0.00     0.010 A 
HETATM   16  C   UNL     1     -46.766 -51.434  14.612  1.00  0.00     0.025 A 
HETATM   17  C   UNL     1     -46.949 -51.809  15.940  1.00  0.00     0.005 A 
HETATM   18  C   UNL     1     -47.992 -51.148  16.789  1.00  0.00     0.068 C 
HETATM   19  N   UNL     1     -46.182 -52.746  16.544  1.00  0.00    -0.369 N 
HETATM   20  C   UNL     1     -45.203 -53.320  15.808  1.00  0.00     0.095 A 
ATOM     21  HN  UNL     1     -46.335 -53.009  17.518  1.00  0.00     0.165 HD
ENDBRANCH  13  14
ENDBRANCH  12  13
ENDBRANCH  10  12
BRANCH   4  22
HETATM   22  C   UNL     1     -37.202 -50.347  15.920  1.00  0.00     0.309 C 
BRANCH  22  23
HETATM   23  C   UNL     1     -36.215 -49.224  16.380  1.00  0.00     0.077 C 
HETATM   24  C   UNL     1     -36.445 -47.918  15.611  1.00  0.00     0.047 C 
HETATM   25  C   UNL     1     -36.375 -48.966  17.885  1.00  0.00     0.047 C 
BRANCH  23  26
HETATM   26  O   UNL     1     -34.857 -49.651  16.227  1.00  0.00    -0.389 OA
HETATM   27  H   UNL     1     -34.390 -48.975  15.707  1.00  0.00     0.210 HD
ENDBRANCH  23  26
ENDBRANCH  22  23
ENDBRANCH   4  22
TORSDOF 6
ENDMDL
MODEL 6
REMARK VINA RESULT:      -5.7      4.097      5.568
REMARK  6 active torsions:
REMARK  status: ('A' for Active; 'I' for Inactive)
REMARK    1  A    between atoms: N_4  and  C_5 
REMARK    2  A    between atoms: C_5  and  C_6 
REMARK    3  A    between atoms: C_6  and  O_9 
REMARK       I    between atoms: N_12  and  C_13 
REMARK       I    between atoms: C_13  and  N_15 
REMARK    4  A    between atoms: N_15  and  C_16 
REMARK    5  A    between atoms: C_16  and  C_17 
REMARK    6  A    between atoms: C_17  and  C_18 
ROOT
HETATM    1  C   UNL     1     -40.938 -54.420  15.313  1.00  0.00     0.034 C 
HETATM    2  C   UNL     1     -40.945 -52.925  14.975  1.00  0.00     0.113 C 
HETATM    3  C   UNL     1     -42.399 -52.377  14.858  1.00  0.00     0.297 C 
HETATM    4  N   UNL     1     -43.136 -52.893  13.671  1.00  0.00     0.095 N 
HETATM    5  C   UNL     1     -42.339 -52.577  12.459  1.00  0.00     0.292 C 
HETATM    6  C   UNL     1     -40.901 -53.124  12.521  1.00  0.00     0.158 C 
HETATM    7  N   UNL     1     -40.204 -52.667  13.721  1.00  0.00    -0.327 N 
HETATM    8  C   UNL     1     -39.127 -51.823  13.546  1.00  0.00     0.318 C 
HETATM    9  O   UNL     1     -38.704 -51.512  12.439  1.00  0.00    -0.247 OA
HETATM   10  N   UNL     1     -38.560 -51.332  14.692  1.00  0.00    -0.343 N 
HETATM   11  H   UNL     1     -38.507 -52.014  15.433  1.00  0.00     0.164 HD
ENDROOT
BRANCH  10  12
HETATM   12  C   UNL     1     -37.416 -50.434  14.596  1.00  0.00     0.129 C 
BRANCH  12  13
HETATM   13  C   UNL     1     -37.633 -49.092  15.314  1.00  0.00     0.060 C 
BRANCH  13  14
HETATM   14  C   UNL     1     -38.650 -48.241  14.610  1.00  0.00    -0.041 A 
HETATM   15  C   UNL     1     -38.652 -48.109  13.221  1.00  0.00     0.010 A 
HETATM   16  C   UNL     1     -39.585 -47.276  12.607  1.00  0.00     0.025 A 
HETATM   17  C   UNL     1     -40.495 -46.587  13.404  1.00  0.00     0.005 A 
HETATM   18  C   UNL     1     -41.478 -45.631  12.798  1.00  0.00     0.068 C 
HETATM   19  N   UNL     1     -40.517 -46.704  14.752  1.00  0.00    -0.369 N 
HETATM   20  C   UNL     1     -39.606 -47.526  15.321  1.00  0.00     0.095 A 
ATOM     21  HN  UNL     1     -41.195 -46.192  15.317  1.00  0.00     0.165 HD
ENDBRANCH  13  14
ENDBRANCH  12  13
ENDBRANCH  10  12
BRANCH   4  22
HETATM   22  C   UNL     1     -44.492 -52.280  13.617  1.00  0.00     0.309 C 
BRANCH  22  23
HETATM   23  C   UNL     1     -45.709 -53.246  13.434  1.00  0.00     0.077 C 
HETATM   24  C   UNL     1     -45.307 -54.709  13.646  1.00  0.00     0.047 C 
HETATM   25  C   UNL     1     -46.828 -52.875  14.416  1.00  0.00     0.047 C 
BRANCH  23  26
HETATM   26  O   UNL     1     -46.294 -53.081  12.137  1.00  0.00    -0.389 OA
HETATM   27  H   UNL     1     -45.574 -52.921  11.504  1.00  0.00     0.210 HD
ENDBRANCH  23  26
ENDBRANCH  22  23
ENDBRANCH   4  22
TORSDOF 6
ENDMDL
MODEL 7
REMARK VINA RESULT:      -5.5      2.774      3.928
REMARK  6 active torsions:
REMARK  status: ('A' for Active; 'I' for Inactive)
REMARK    1  A    between atoms: N_4  and  C_5 
REMARK    2  A    between atoms: C_5  and  C_6 
REMARK    3  A    between atoms: C_6  and  O_9 
REMARK       I    between atoms: N_12  and  C_13 
REMARK       I    between atoms: C_13  and  N_15 
REMARK    4  A    between atoms: N_15  and  C_16 
REMARK    5  A    between atoms: C_16  and  C_17 
REMARK    6  A    between atoms: C_17  and  C_18 
ROOT
HETATM    1  C   UNL     1     -41.868 -50.252  15.073  1.00  0.00     0.034 C 
HETATM    2  C   UNL     1     -42.466 -50.201  13.663  1.00  0.00     0.113 C 
HETATM    3  C   UNL     1     -43.587 -51.268  13.483  1.00  0.00     0.297 C 
HETATM    4  N   UNL     1     -43.080 -52.668  13.476  1.00  0.00     0.095 N 
HETATM    5  C   UNL     1     -42.049 -52.781  12.413  1.00  0.00     0.292 C 
HETATM    6  C   UNL     1     -40.906 -51.761  12.568  1.00  0.00     0.158 C 
HETATM    7  N   UNL     1     -41.415 -50.393  12.641  1.00  0.00    -0.327 N 
HETATM    8  C   UNL     1     -41.093 -49.542  11.604  1.00  0.00     0.318 C 
HETATM    9  O   UNL     1     -40.352 -49.869  10.685  1.00  0.00    -0.247 OA
HETATM   10  N   UNL     1     -41.668 -48.300  11.650  1.00  0.00    -0.343 N 
HETATM   11  H   UNL     1     -41.706 -47.913  12.580  1.00  0.00     0.164 HD
ENDROOT
BRANCH  10  12
HETATM   12  C   UNL     1     -41.379 -47.338  10.593  1.00  0.00     0.129 C 
BRANCH  12  13
HETATM   13  C   UNL     1     -40.397 -46.236  11.024  1.00  0.00     0.060 C 
BRANCH  13  14
HETATM   14  C   UNL     1     -41.062 -44.891  11.088  1.00  0.00    -0.041 A 
HETATM   15  C   UNL     1     -40.329 -43.728  11.332  1.00  0.00     0.010 A 
HETATM   16  C   UNL     1     -40.986 -42.504  11.427  1.00  0.00     0.025 A 
HETATM   17  C   UNL     1     -42.370 -42.473  11.279  1.00  0.00     0.005 A 
HETATM   18  C   UNL     1     -43.132 -41.192  11.434  1.00  0.00     0.068 C 
HETATM   19  N   UNL     1     -43.102 -43.585  11.034  1.00  0.00    -0.369 N 
HETATM   20  C   UNL     1     -42.437 -44.759  10.939  1.00  0.00     0.095 A 
ATOM     21  HN  UNL     1     -44.115 -43.540  10.926  1.00  0.00     0.165 HD
ENDBRANCH  13  14
ENDBRANCH  12  13
ENDBRANCH  10  12
BRANCH   4  22
HETATM   22  C   UNL     1     -44.211 -53.610  13.251  1.00  0.00     0.309 C 
BRANCH  22  23
HETATM   23  C   UNL     1     -44.552 -54.610  14.405  1.00  0.00     0.077 C 
HETATM   24  C   UNL     1     -43.287 -55.232  15.007  1.00  0.00     0.047 C 
HETATM   25  C   UNL     1     -45.343 -53.892  15.508  1.00  0.00     0.047 C 
BRANCH  23  26
HETATM   26  O   UNL     1     -45.431 -55.640  13.940  1.00  0.00    -0.389 OA
HETATM   27  H   UNL     1     -45.028 -56.041  13.152  1.00  0.00     0.210 HD
ENDBRANCH  23  26
ENDBRANCH  22  23
ENDBRANCH   4  22
TORSDOF 6
ENDMDL
MODEL 8
REMARK VINA RESULT:      -5.4      2.244      3.393
REMARK  6 active torsions:
REMARK  status: ('A' for Active; 'I' for Inactive)
REMARK    1  A    between atoms: N_4  and  C_5 
REMARK    2  A    between atoms: C_5  and  C_6 
REMARK    3  A    between atoms: C_6  and  O_9 
REMARK       I    between atoms: N_12  and  C_13 
REMARK       I    between atoms: C_13  and  N_15 
REMARK    4  A    between atoms: N_15  and  C_16 
REMARK    5  A    between atoms: C_16  and  C_17 
REMARK    6  A    between atoms: C_17  and  C_18 
ROOT
HETATM    1  C   UNL     1     -43.737 -49.006  16.407  1.00  0.00     0.034 C 
HETATM    2  C   UNL     1     -43.116 -49.355  15.049  1.00  0.00     0.113 C 
HETATM    3  C   UNL     1     -43.989 -50.389  14.276  1.00  0.00     0.297 C 
HETATM    4  N   UNL     1     -43.992 -51.745  14.892  1.00  0.00     0.095 N 
HETATM    5  C   UNL     1     -42.584 -52.203  15.008  1.00  0.00     0.292 C 
HETATM    6  C   UNL     1     -41.691 -51.222  15.789  1.00  0.00     0.158 C 
HETATM    7  N   UNL     1     -41.743 -49.878  15.220  1.00  0.00    -0.327 N 
HETATM    8  C   UNL     1     -40.586 -49.384  14.655  1.00  0.00     0.318 C 
HETATM    9  O   UNL     1     -39.524 -49.995  14.681  1.00  0.00    -0.247 OA
HETATM   10  N   UNL     1     -40.694 -48.166  14.039  1.00  0.00    -0.343 N 
HETATM   11  H   UNL     1     -41.285 -47.519  14.538  1.00  0.00     0.164 HD
ENDROOT
BRANCH  10  12
HETATM   12  C   UNL     1     -39.516 -47.571  13.417  1.00  0.00     0.129 C 
BRANCH  12  13
HETATM   13  C   UNL     1     -39.364 -47.933  11.931  1.00  0.00     0.060 C 
BRANCH  13  14
HETATM   14  C   UNL     1     -40.575 -47.537  11.134  1.00  0.00    -0.041 A 
HETATM   15  C   UNL     1     -40.900 -46.197  10.923  1.00  0.00     0.010 A 
HETATM   16  C   UNL     1     -42.054 -45.870  10.215  1.00  0.00     0.025 A 
HETATM   17  C   UNL     1     -42.862 -46.898   9.737  1.00  0.00     0.005 A 
HETATM   18  C   UNL     1     -44.146 -46.599   9.024  1.00  0.00     0.068 C 
HETATM   19  N   UNL     1     -42.564 -48.205   9.923  1.00  0.00    -0.369 N 
HETATM   20  C   UNL     1     -41.433 -48.494  10.607  1.00  0.00     0.095 A 
ATOM     21  HN  UNL     1     -43.167 -48.943   9.561  1.00  0.00     0.165 HD
ENDBRANCH  13  14
ENDBRANCH  12  13
ENDBRANCH  10  12
BRANCH   4  22
HETATM   22  C   UNL     1     -44.809 -52.671  14.060  1.00  0.00     0.309 C 
BRANCH  22  23
HETATM   23  C   UNL     1     -46.352 -52.418  14.010  1.00  0.00     0.077 C 
HETATM   24  C   UNL     1     -46.830 -51.596  15.212  1.00  0.00     0.047 C 
HETATM   25  C   UNL     1     -46.724 -51.690  12.712  1.00  0.00     0.047 C 
BRANCH  23  26
HETATM   26  O   UNL     1     -47.066 -53.658  13.949  1.00  0.00    -0.389 OA
HETATM   27  H   UNL     1     -46.953 -54.109  14.802  1.00  0.00     0.210 HD
ENDBRANCH  23  26
ENDBRANCH  22  23
ENDBRANCH   4  22
TORSDOF 6
ENDMDL
MODEL 9
REMARK VINA RESULT:      -5.4      3.828      7.747
REMARK  6 active torsions:
REMARK  status: ('A' for Active; 'I' for Inactive)
REMARK    1  A    between atoms: N_4  and  C_5 
REMARK    2  A    between atoms: C_5  and  C_6 
REMARK    3  A    between atoms: C_6  and  O_9 
REMARK       I    between atoms: N_12  and  C_13 
REMARK       I    between atoms: C_13  and  N_15 
REMARK    4  A    between atoms: N_15  and  C_16 
REMARK    5  A    between atoms: C_16  and  C_17 
REMARK    6  A    between atoms: C_17  and  C_18 
ROOT
HETATM    1  C   UNL     1     -41.303 -48.490  10.835  1.00  0.00     0.034 C 
HETATM    2  C   UNL     1     -41.126 -49.196  12.184  1.00  0.00     0.113 C 
HETATM    3  C   UNL     1     -41.139 -48.177  13.363  1.00  0.00     0.297 C 
HETATM    4  N   UNL     1     -39.941 -47.293  13.398  1.00  0.00     0.095 N 
HETATM    5  C   UNL     1     -38.732 -48.154  13.440  1.00  0.00     0.292 C 
HETATM    6  C   UNL     1     -38.665 -49.159  12.275  1.00  0.00     0.158 C 
HETATM    7  N   UNL     1     -39.872 -49.980  12.205  1.00  0.00    -0.327 N 
HETATM    8  C   UNL     1     -39.735 -51.330  12.454  1.00  0.00     0.318 C 
HETATM    9  O   UNL     1     -38.648 -51.858  12.656  1.00  0.00    -0.247 OA
HETATM   10  N   UNL     1     -40.897 -52.053  12.482  1.00  0.00    -0.343 N 
HETATM   11  H   UNL     1     -41.559 -51.771  11.775  1.00  0.00     0.164 HD
ENDROOT
BRANCH  10  12
HETATM   12  C   UNL     1     -40.842 -53.488  12.738  1.00  0.00     0.129 C 
BRANCH  12  13
HETATM   13  C   UNL     1     -41.328 -53.875  14.144  1.00  0.00     0.060 C 
BRANCH  13  14
HETATM   14  C   UNL     1     -42.815 -53.716  14.283  1.00  0.00    -0.041 A 
HETATM   15  C   UNL     1     -43.696 -54.265  13.350  1.00  0.00     0.010 A 
HETATM   16  C   UNL     1     -45.066 -54.060  13.489  1.00  0.00     0.025 A 
HETATM   17  C   UNL     1     -45.525 -53.302  14.563  1.00  0.00     0.005 A 
HETATM   18  C   UNL     1     -46.984 -53.000  14.724  1.00  0.00     0.068 C 
HETATM   19  N   UNL     1     -44.692 -52.766  15.485  1.00  0.00    -0.369 N 
HETATM   20  C   UNL     1     -43.366 -52.987  15.329  1.00  0.00     0.095 A 
ATOM     21  HN  UNL     1     -45.049 -52.216  16.266  1.00  0.00     0.165 HD
ENDBRANCH  13  14
ENDBRANCH  12  13
ENDBRANCH  10  12
BRANCH   4  22
HETATM   22  C   UNL     1     -40.019 -46.391  14.581  1.00  0.00     0.309 C 
BRANCH  22  23
HETATM   23  C   UNL     1     -39.972 -44.851  14.312  1.00  0.00     0.077 C 
HETATM   24  C   UNL     1     -39.018 -44.505  13.164  1.00  0.00     0.047 C 
HETATM   25  C   UNL     1     -41.377 -44.330  13.983  1.00  0.00     0.047 C 
BRANCH  23  26
HETATM   26  O   UNL     1     -39.591 -44.142  15.496  1.00  0.00    -0.389 OA
HETATM   27  H   UNL     1     -39.356 -43.235  15.237  1.00  0.00     0.210 HD
ENDBRANCH  23  26
ENDBRANCH  22  23
ENDBRANCH   4  22
TORSDOF 6
ENDMDL
