MODEL 1
REMARK VINA RESULT:      -6.9      0.000      0.000
REMARK  5 active torsions:
REMARK  status: ('A' for Active; 'I' for Inactive)
REMARK    1  A    between atoms: C_8  and  N_9 
REMARK       I    between atoms: N_9  and  C_10 
REMARK       I    between atoms: C_10  and  N_12 
REMARK    2  A    between atoms: N_12  and  C_13 
REMARK    3  A    between atoms: C_13  and  C_14 
REMARK    4  A    between atoms: C_14  and  C_15 
REMARK    5  A    between atoms: C_14  and  N_20 
ROOT
HETATM    1  N   UNL     1     -40.978 -48.328  10.617  1.00  0.00    -0.294 N 
HETATM    2  C   UNL     1     -40.598 -49.476  11.235  1.00  0.00     0.321 C 
HETATM    3  O   UNL     1     -39.437 -49.594  11.624  1.00  0.00    -0.247 OA
HETATM    4  N   UNL     1     -41.536 -50.462  11.376  1.00  0.00    -0.341 N 
HETATM    5  H   UNL     1     -40.215 -47.675  10.520  1.00  0.00     0.172 HD
HETATM    6  H   UNL     1     -42.495 -50.127  11.315  1.00  0.00     0.164 HD
ENDROOT
BRANCH   4   7
HETATM    7  C   UNL     1     -41.192 -51.625  12.139  1.00  0.00     0.160 C 
BRANCH   7   8
HETATM    8  C   UNL     1     -42.164 -52.205  13.195  1.00  0.00     0.247 C 
BRANCH   8   9
HETATM    9  C   UNL     1     -43.635 -52.283  12.701  1.00  0.00     0.046 C 
HETATM   10  C   UNL     1     -44.661 -51.665  13.642  1.00  0.00     0.035 C 
HETATM   11  C   UNL     1     -45.932 -52.466  13.426  1.00  0.00     0.168 C 
HETATM   12  O   UNL     1     -45.615 -53.538  12.536  1.00  0.00    -0.391 OA
HETATM   13  C   UNL     1     -44.187 -53.695  12.555  1.00  0.00     0.174 C 
ENDBRANCH   8   9
BRANCH   8  14
HETATM   14  N   UNL     1     -41.693 -53.512  13.747  1.00  0.00     0.099 N 
HETATM   15  C   UNL     1     -41.816 -53.654  15.219  1.00  0.00     0.299 C 
HETATM   16  C   UNL     1     -40.602 -53.182  16.054  1.00  0.00     0.198 C 
HETATM   17  O   UNL     1     -39.383 -53.768  15.588  1.00  0.00    -0.388 OA
HETATM   18  C   UNL     1     -39.173 -53.481  14.203  1.00  0.00     0.198 C 
HETATM   19  C   UNL     1     -40.349 -53.978  13.343  1.00  0.00     0.299 C 
ENDBRANCH   8  14
ENDBRANCH   7   8
ENDBRANCH   4   7
BRANCH   1  20
HETATM   20  C   UNL     1     -42.222 -48.008  10.068  1.00  0.00     0.114 A 
HETATM   21  C   UNL     1     -43.236 -47.508  10.889  1.00  0.00    -0.018 A 
HETATM   22  C   UNL     1     -43.096 -47.326  12.373  1.00  0.00     0.052 C 
HETATM   23  C   UNL     1     -44.429 -47.119  10.271  1.00  0.00     0.012 A 
HETATM   24  C   UNL     1     -44.593 -47.254   8.897  1.00  0.00     0.018 A 
HETATM   25  C   UNL     1     -43.546 -47.790   8.178  1.00  0.00     0.089 A 
HETATM   26  N   UNL     1     -42.385 -48.176   8.733  1.00  0.00    -0.352 N 
ATOM     27  HN  UNL     1     -41.644 -48.586   8.164  1.00  0.00     0.166 HD
ENDBRANCH   1  20
TORSDOF 5
ENDMDL
MODEL 2
REMARK VINA RESULT:      -6.9      1.412      3.691
REMARK  5 active torsions:
REMARK  status: ('A' for Active; 'I' for Inactive)
REMARK    1  A    between atoms: C_8  and  N_9 
REMARK       I    between atoms: N_9  and  C_10 
REMARK       I    between atoms: C_10  and  N_12 
REMARK    2  A    between atoms: N_12  and  C_13 
REMARK    3  A    between atoms: C_13  and  C_14 
REMARK    4  A    between atoms: C_14  and  C_15 
REMARK    5  A    between atoms: C_14  and  N_20 
ROOT
HETATM    1  N   UNL     1     -41.157 -48.199  10.251  1.00  0.00    -0.294 N 
HETATM    2  C   UNL     1     -41.070 -49.211  11.153  1.00  0.00     0.321 C 
HETATM    3  O   UNL     1     -39.973 -49.718  11.383  1.00  0.00    -0.247 OA
HETATM    4  N   UNL     1     -42.226 -49.632  11.750  1.00  0.00    -0.341 N 
HETATM    5  H   UNL     1     -40.266 -47.983   9.831  1.00  0.00     0.172 HD
HETATM    6  H   UNL     1     -42.975 -48.943  11.724  1.00  0.00     0.164 HD
ENDROOT
BRANCH   4   7
HETATM    7  C   UNL     1     -42.136 -50.606  12.797  1.00  0.00     0.160 C 
BRANCH   7   8
HETATM    8  C   UNL     1     -42.256 -52.120  12.492  1.00  0.00     0.247 C 
BRANCH   8   9
HETATM    9  C   UNL     1     -40.895 -52.869  12.547  1.00  0.00     0.046 C 
HETATM   10  C   UNL     1     -40.960 -54.274  13.130  1.00  0.00     0.035 C 
HETATM   11  C   UNL     1     -39.611 -54.495  13.787  1.00  0.00     0.168 C 
HETATM   12  O   UNL     1     -38.888 -53.264  13.703  1.00  0.00    -0.391 OA
HETATM   13  C   UNL     1     -39.849 -52.227  13.449  1.00  0.00     0.174 C 
ENDBRANCH   8   9
BRANCH   8  14
HETATM   14  N   UNL     1     -43.294 -52.791  13.333  1.00  0.00     0.099 N 
HETATM   15  C   UNL     1     -44.454 -53.334  12.585  1.00  0.00     0.299 C 
HETATM   16  C   UNL     1     -45.646 -52.369  12.377  1.00  0.00     0.198 C 
HETATM   17  O   UNL     1     -46.068 -51.781  13.611  1.00  0.00    -0.388 OA
HETATM   18  C   UNL     1     -44.986 -51.101  14.253  1.00  0.00     0.198 C 
HETATM   19  C   UNL     1     -43.801 -52.050  14.509  1.00  0.00     0.299 C 
ENDBRANCH   8  14
ENDBRANCH   7   8
ENDBRANCH   4   7
BRANCH   1  20
HETATM   20  C   UNL     1     -42.298 -47.519   9.817  1.00  0.00     0.114 A 
HETATM   21  C   UNL     1     -42.559 -46.229  10.286  1.00  0.00    -0.018 A 
HETATM   22  C   UNL     1     -41.699 -45.515  11.288  1.00  0.00     0.052 C 
HETATM   23  C   UNL     1     -43.665 -45.562   9.748  1.00  0.00     0.012 A 
HETATM   24  C   UNL     1     -44.476 -46.181   8.804  1.00  0.00     0.018 A 
HETATM   25  C   UNL     1     -44.156 -47.469   8.431  1.00  0.00     0.089 A 
HETATM   26  N   UNL     1     -43.104 -48.144   8.924  1.00  0.00    -0.352 N 
ATOM     27  HN  UNL     1     -42.916 -49.103   8.633  1.00  0.00     0.166 HD
ENDBRANCH   1  20
TORSDOF 5
ENDMDL
MODEL 3
REMARK VINA RESULT:      -6.8      2.414      6.468
REMARK  5 active torsions:
REMARK  status: ('A' for Active; 'I' for Inactive)
REMARK    1  A    between atoms: C_8  and  N_9 
REMARK       I    between atoms: N_9  and  C_10 
REMARK       I    between atoms: C_10  and  N_12 
REMARK    2  A    between atoms: N_12  and  C_13 
REMARK    3  A    between atoms: C_13  and  C_14 
REMARK    4  A    between atoms: C_14  and  C_15 
REMARK    5  A    between atoms: C_14  and  N_20 
ROOT
HETATM    1  N   UNL     1     -42.704 -52.824  12.778  1.00  0.00    -0.294 N 
HETATM    2  C   UNL     1     -41.706 -52.049  12.281  1.00  0.00     0.321 C 
HETATM    3  O   UNL     1     -40.590 -52.540  12.114  1.00  0.00    -0.247 OA
HETATM    4  N   UNL     1     -41.993 -50.740  12.007  1.00  0.00    -0.341 N 
HETATM    5  H   UNL     1     -42.394 -53.760  12.989  1.00  0.00     0.172 HD
HETATM    6  H   UNL     1     -42.986 -50.556  11.880  1.00  0.00     0.164 HD
ENDROOT
BRANCH   4   7
HETATM    7  C   UNL     1     -40.992 -49.944  11.361  1.00  0.00     0.160 C 
BRANCH   7   8
HETATM    8  C   UNL     1     -40.260 -48.810  12.120  1.00  0.00     0.247 C 
BRANCH   8   9
HETATM    9  C   UNL     1     -38.828 -49.201  12.580  1.00  0.00     0.046 C 
HETATM   10  C   UNL     1     -38.085 -50.138  11.636  1.00  0.00     0.035 C 
HETATM   11  C   UNL     1     -37.173 -50.959  12.528  1.00  0.00     0.168 C 
HETATM   12  O   UNL     1     -37.473 -50.612  13.882  1.00  0.00    -0.391 OA
HETATM   13  C   UNL     1     -38.768 -49.991  13.881  1.00  0.00     0.174 C 
ENDBRANCH   8   9
BRANCH   8  14
HETATM   14  N   UNL     1     -40.269 -47.520  11.365  1.00  0.00     0.099 N 
HETATM   15  C   UNL     1     -39.895 -46.324  12.159  1.00  0.00     0.299 C 
HETATM   16  C   UNL     1     -41.054 -45.590  12.875  1.00  0.00     0.198 C 
HETATM   17  O   UNL     1     -42.122 -45.286  11.973  1.00  0.00    -0.388 OA
HETATM   18  C   UNL     1     -42.606 -46.471  11.334  1.00  0.00     0.198 C 
HETATM   19  C   UNL     1     -41.479 -47.199  10.578  1.00  0.00     0.299 C 
ENDBRANCH   8  14
ENDBRANCH   7   8
ENDBRANCH   4   7
BRANCH   1  20
HETATM   20  C   UNL     1     -44.019 -52.458  13.079  1.00  0.00     0.114 A 
HETATM   21  C   UNL     1     -44.315 -51.892  14.322  1.00  0.00    -0.018 A 
HETATM   22  C   UNL     1     -43.298 -51.680  15.406  1.00  0.00     0.052 C 
HETATM   23  C   UNL     1     -45.629 -51.462  14.535  1.00  0.00     0.012 A 
HETATM   24  C   UNL     1     -46.596 -51.622  13.549  1.00  0.00     0.018 A 
HETATM   25  C   UNL     1     -46.213 -52.225  12.370  1.00  0.00     0.089 A 
HETATM   26  N   UNL     1     -44.963 -52.652  12.127  1.00  0.00    -0.352 N 
ATOM     27  HN  UNL     1     -44.730 -53.110  11.245  1.00  0.00     0.166 HD
ENDBRANCH   1  20
TORSDOF 5
ENDMDL
MODEL 4
REMARK VINA RESULT:      -6.7      2.063      2.953
REMARK  5 active torsions:
REMARK  status: ('A' for Active; 'I' for Inactive)
REMARK    1  A    between atoms: C_8  and  N_9 
REMARK       I    between atoms: N_9  and  C_10 
REMARK       I    between atoms: C_10  and  N_12 
REMARK    2  A    between atoms: N_12  and  C_13 
REMARK    3  A    between atoms: C_13  and  C_14 
REMARK    4  A    between atoms: C_14  and  C_15 
REMARK    5  A    between atoms: C_14  and  N_20 
ROOT
HETATM    1  N   UNL     1     -40.405 -50.908  11.207  1.00  0.00    -0.294 N 
HETATM    2  C   UNL     1     -40.864 -51.797  12.126  1.00  0.00     0.321 C 
HETATM    3  O   UNL     1     -40.637 -52.995  11.969  1.00  0.00    -0.247 OA
HETATM    4  N   UNL     1     -41.581 -51.305  13.182  1.00  0.00    -0.341 N 
HETATM    5  H   UNL     1     -39.925 -51.360  10.443  1.00  0.00     0.172 HD
HETATM    6  H   UNL     1     -41.420 -50.317  13.362  1.00  0.00     0.164 HD
ENDROOT
BRANCH   4   7
HETATM    7  C   UNL     1     -41.960 -52.210  14.227  1.00  0.00     0.160 C 
BRANCH   7   8
HETATM    8  C   UNL     1     -43.450 -52.498  14.533  1.00  0.00     0.247 C 
BRANCH   8   9
HETATM    9  C   UNL     1     -44.410 -52.057  13.394  1.00  0.00     0.046 C 
HETATM   10  C   UNL     1     -45.698 -51.393  13.862  1.00  0.00     0.035 C 
HETATM   11  C   UNL     1     -46.732 -51.744  12.809  1.00  0.00     0.168 C 
HETATM   12  O   UNL     1     -46.115 -52.649  11.889  1.00  0.00    -0.391 OA
HETATM   13  C   UNL     1     -44.961 -53.196  12.546  1.00  0.00     0.174 C 
ENDBRANCH   8   9
BRANCH   8  14
HETATM   14  N   UNL     1     -43.684 -53.918  14.940  1.00  0.00     0.099 N 
HETATM   15  C   UNL     1     -44.480 -54.093  16.179  1.00  0.00     0.299 C 
HETATM   16  C   UNL     1     -43.682 -54.139  17.504  1.00  0.00     0.198 C 
HETATM   17  O   UNL     1     -42.618 -55.093  17.444  1.00  0.00    -0.388 OA
HETATM   18  C   UNL     1     -41.743 -54.819  16.347  1.00  0.00     0.198 C 
HETATM   19  C   UNL     1     -42.507 -54.809  15.010  1.00  0.00     0.299 C 
ENDBRANCH   8  14
ENDBRANCH   7   8
ENDBRANCH   4   7
BRANCH   1  20
HETATM   20  C   UNL     1     -40.586 -49.523  11.172  1.00  0.00     0.114 A 
HETATM   21  C   UNL     1     -39.617 -48.682  11.726  1.00  0.00    -0.018 A 
HETATM   22  C   UNL     1     -38.378 -49.176  12.416  1.00  0.00     0.052 C 
HETATM   23  C   UNL     1     -39.806 -47.303  11.582  1.00  0.00     0.012 A 
HETATM   24  C   UNL     1     -40.930 -46.805  10.934  1.00  0.00     0.018 A 
HETATM   25  C   UNL     1     -41.847 -47.716  10.452  1.00  0.00     0.089 A 
HETATM   26  N   UNL     1     -41.703 -49.046  10.570  1.00  0.00    -0.352 N 
ATOM     27  HN  UNL     1     -42.417 -49.682  10.215  1.00  0.00     0.166 HD
ENDBRANCH   1  20
TORSDOF 5
ENDMDL
MODEL 5
REMARK VINA RESULT:      -6.3      2.562      5.670
REMARK  5 active torsions:
REMARK  status: ('A' for Active; 'I' for Inactive)
REMARK    1  A    between atoms: C_8  and  N_9 
REMARK       I    between atoms: N_9  and  C_10 
REMARK       I    between atoms: C_10  and  N_12 
REMARK    2  A    between atoms: N_12  and  C_13 
REMARK    3  A    between atoms: C_13  and  C_14 
REMARK    4  A    between atoms: C_14  and  C_15 
REMARK    5  A    between atoms: C_14  and  N_20 
ROOT
HETATM    1  N   UNL     1     -42.804 -52.998  12.586  1.00  0.00    -0.294 N 
HETATM    2  C   UNL     1     -41.762 -52.278  12.095  1.00  0.00     0.321 C 
HETATM    3  O   UNL     1     -40.705 -52.850  11.837  1.00  0.00    -0.247 OA
HETATM    4  N   UNL     1     -41.942 -50.932  11.930  1.00  0.00    -0.341 N 
HETATM    5  H   UNL     1     -42.571 -53.971  12.715  1.00  0.00     0.172 HD
HETATM    6  H   UNL     1     -42.919 -50.654  11.867  1.00  0.00     0.164 HD
ENDROOT
BRANCH   4   7
HETATM    7  C   UNL     1     -40.903 -50.180  11.293  1.00  0.00     0.160 C 
BRANCH   7   8
HETATM    8  C   UNL     1     -40.256 -48.958  11.992  1.00  0.00     0.247 C 
BRANCH   8   9
HETATM    9  C   UNL     1     -40.997 -47.623  11.708  1.00  0.00     0.046 C 
HETATM   10  C   UNL     1     -42.197 -47.741  10.777  1.00  0.00     0.035 C 
HETATM   11  C   UNL     1     -42.270 -46.410  10.052  1.00  0.00     0.168 C 
HETATM   12  O   UNL     1     -41.124 -45.648  10.441  1.00  0.00    -0.391 OA
HETATM   13  C   UNL     1     -40.167 -46.572  10.982  1.00  0.00     0.174 C 
ENDBRANCH   8   9
BRANCH   8  14
HETATM   14  N   UNL     1     -40.052 -49.182  13.456  1.00  0.00     0.099 N 
HETATM   15  C   UNL     1     -39.825 -47.951  14.253  1.00  0.00     0.299 C 
HETATM   16  C   UNL     1     -38.355 -47.493  14.402  1.00  0.00     0.198 C 
HETATM   17  O   UNL     1     -37.517 -48.557  14.862  1.00  0.00    -0.388 OA
HETATM   18  C   UNL     1     -37.598 -49.688  13.990  1.00  0.00     0.198 C 
HETATM   19  C   UNL     1     -39.047 -50.190  13.858  1.00  0.00     0.299 C 
ENDBRANCH   8  14
ENDBRANCH   7   8
ENDBRANCH   4   7
BRANCH   1  20
HETATM   20  C   UNL     1     -44.065 -52.544  12.980  1.00  0.00     0.114 A 
HETATM   21  C   UNL     1     -44.251 -52.039  14.270  1.00  0.00    -0.018 A 
HETATM   22  C   UNL     1     -43.170 -51.989  15.310  1.00  0.00     0.052 C 
HETATM   23  C   UNL     1     -45.510 -51.515  14.579  1.00  0.00     0.012 A 
HETATM   24  C   UNL     1     -46.533 -51.525  13.638  1.00  0.00     0.018 A 
HETATM   25  C   UNL     1     -46.262 -52.076  12.404  1.00  0.00     0.089 A 
HETATM   26  N   UNL     1     -45.067 -52.590  12.068  1.00  0.00    -0.352 N 
ATOM     27  HN  UNL     1     -44.917 -53.006  11.148  1.00  0.00     0.166 HD
ENDBRANCH   1  20
TORSDOF 5
ENDMDL
MODEL 6
REMARK VINA RESULT:      -6.2      2.176      2.659
REMARK  5 active torsions:
REMARK  status: ('A' for Active; 'I' for Inactive)
REMARK    1  A    between atoms: C_8  and  N_9 
REMARK       I    between atoms: N_9  and  C_10 
REMARK       I    between atoms: C_10  and  N_12 
REMARK    2  A    between atoms: N_12  and  C_13 
REMARK    3  A    between atoms: C_13  and  C_14 
REMARK    4  A    between atoms: C_14  and  C_15 
REMARK    5  A    between atoms: C_14  and  N_20 
ROOT
HETATM    1  N   UNL     1     -40.896 -48.768  10.599  1.00  0.00    -0.294 N 
HETATM    2  C   UNL     1     -41.039 -49.868  11.384  1.00  0.00     0.321 C 
HETATM    3  O   UNL     1     -40.046 -50.532  11.675  1.00  0.00    -0.247 OA
HETATM    4  N   UNL     1     -42.302 -50.193  11.797  1.00  0.00    -0.341 N 
HETATM    5  H   UNL     1     -39.941 -48.628  10.308  1.00  0.00     0.172 HD
HETATM    6  H   UNL     1     -42.957 -49.415  11.766  1.00  0.00     0.164 HD
ENDROOT
BRANCH   4   7
HETATM    7  C   UNL     1     -42.457 -51.270  12.729  1.00  0.00     0.160 C 
BRANCH   7   8
HETATM    8  C   UNL     1     -43.488 -51.188  13.882  1.00  0.00     0.247 C 
BRANCH   8   9
HETATM    9  C   UNL     1     -44.483 -52.381  13.903  1.00  0.00     0.046 C 
HETATM   10  C   UNL     1     -44.025 -53.584  14.716  1.00  0.00     0.035 C 
HETATM   11  C   UNL     1     -44.645 -54.787  14.031  1.00  0.00     0.168 C 
HETATM   12  O   UNL     1     -45.291 -54.317  12.845  1.00  0.00    -0.391 OA
HETATM   13  C   UNL     1     -44.738 -53.026  12.547  1.00  0.00     0.174 C 
ENDBRANCH   8   9
BRANCH   8  14
HETATM   14  N   UNL     1     -42.839 -50.981  15.213  1.00  0.00     0.099 N 
HETATM   15  C   UNL     1     -43.613 -50.147  16.166  1.00  0.00     0.299 C 
HETATM   16  C   UNL     1     -43.349 -48.624  16.112  1.00  0.00     0.198 C 
HETATM   17  O   UNL     1     -41.952 -48.328  16.198  1.00  0.00    -0.388 OA
HETATM   18  C   UNL     1     -41.222 -48.995  15.165  1.00  0.00     0.198 C 
HETATM   19  C   UNL     1     -41.435 -50.519  15.222  1.00  0.00     0.299 C 
ENDBRANCH   8  14
ENDBRANCH   7   8
ENDBRANCH   4   7
BRANCH   1  20
HETATM   20  C   UNL     1     -41.887 -47.908  10.121  1.00  0.00     0.114 A 
HETATM   21  C   UNL     1     -42.116 -46.687  10.761  1.00  0.00    -0.018 A 
HETATM   22  C   UNL     1     -41.380 -46.238  11.991  1.00  0.00     0.052 C 
HETATM   23  C   UNL     1     -43.056 -45.826  10.185  1.00  0.00     0.012 A 
HETATM   24  C   UNL     1     -43.745 -46.196   9.035  1.00  0.00     0.018 A 
HETATM   25  C   UNL     1     -43.474 -47.436   8.498  1.00  0.00     0.089 A 
HETATM   26  N   UNL     1     -42.580 -48.291   9.021  1.00  0.00    -0.352 N 
ATOM     27  HN  UNL     1     -42.425 -49.208   8.600  1.00  0.00     0.166 HD
ENDBRANCH   1  20
TORSDOF 5
ENDMDL
MODEL 7
REMARK VINA RESULT:      -6.2      1.830      3.643
REMARK  5 active torsions:
REMARK  status: ('A' for Active; 'I' for Inactive)
REMARK    1  A    between atoms: C_8  and  N_9 
REMARK       I    between atoms: N_9  and  C_10 
REMARK       I    between atoms: C_10  and  N_12 
REMARK    2  A    between atoms: N_12  and  C_13 
REMARK    3  A    between atoms: C_13  and  C_14 
REMARK    4  A    between atoms: C_14  and  C_15 
REMARK    5  A    between atoms: C_14  and  N_20 
ROOT
HETATM    1  N   UNL     1     -40.489 -49.565  11.643  1.00  0.00    -0.294 N 
HETATM    2  C   UNL     1     -40.722 -50.873  11.925  1.00  0.00     0.321 C 
HETATM    3  O   UNL     1     -39.776 -51.603  12.219  1.00  0.00    -0.247 OA
HETATM    4  N   UNL     1     -42.012 -51.320  11.846  1.00  0.00    -0.341 N 
HETATM    5  H   UNL     1     -39.508 -49.333  11.685  1.00  0.00     0.172 HD
HETATM    6  H   UNL     1     -42.707 -50.580  11.916  1.00  0.00     0.164 HD
ENDROOT
BRANCH   4   7
HETATM    7  C   UNL     1     -42.295 -52.661  12.265  1.00  0.00     0.160 C 
BRANCH   7   8
HETATM    8  C   UNL     1     -43.584 -52.997  13.055  1.00  0.00     0.247 C 
BRANCH   8   9
HETATM    9  C   UNL     1     -43.307 -53.617  14.452  1.00  0.00     0.046 C 
HETATM   10  C   UNL     1     -41.850 -53.973  14.717  1.00  0.00     0.035 C 
HETATM   11  C   UNL     1     -41.896 -55.164  15.655  1.00  0.00     0.168 C 
HETATM   12  O   UNL     1     -43.267 -55.540  15.802  1.00  0.00    -0.391 OA
HETATM   13  C   UNL     1     -43.984 -54.958  14.702  1.00  0.00     0.174 C 
ENDBRANCH   8   9
BRANCH   8  14
HETATM   14  N   UNL     1     -44.521 -51.834  13.138  1.00  0.00     0.099 N 
HETATM   15  C   UNL     1     -44.427 -51.040  14.388  1.00  0.00     0.299 C 
HETATM   16  C   UNL     1     -45.332 -51.496  15.557  1.00  0.00     0.198 C 
HETATM   17  O   UNL     1     -46.695 -51.633  15.144  1.00  0.00    -0.388 OA
HETATM   18  C   UNL     1     -46.810 -52.541  14.045  1.00  0.00     0.198 C 
HETATM   19  C   UNL     1     -45.949 -52.088  12.852  1.00  0.00     0.299 C 
ENDBRANCH   8  14
ENDBRANCH   7   8
ENDBRANCH   4   7
BRANCH   1  20
HETATM   20  C   UNL     1     -41.404 -48.585  11.251  1.00  0.00     0.114 A 
HETATM   21  C   UNL     1     -41.981 -47.749  12.211  1.00  0.00    -0.018 A 
HETATM   22  C   UNL     1     -41.714 -47.860  13.684  1.00  0.00     0.052 C 
HETATM   23  C   UNL     1     -42.819 -46.727  11.751  1.00  0.00     0.012 A 
HETATM   24  C   UNL     1     -43.077 -46.579  10.393  1.00  0.00     0.018 A 
HETATM   25  C   UNL     1     -42.488 -47.476   9.528  1.00  0.00     0.089 A 
HETATM   26  N   UNL     1     -41.678 -48.470   9.929  1.00  0.00    -0.352 N 
ATOM     27  HN  UNL     1     -41.279 -49.123   9.254  1.00  0.00     0.166 HD
ENDBRANCH   1  20
TORSDOF 5
ENDMDL
MODEL 8
REMARK VINA RESULT:      -6.0      4.102      5.892
REMARK  5 active torsions:
REMARK  status: ('A' for Active; 'I' for Inactive)
REMARK    1  A    between atoms: C_8  and  N_9 
REMARK       I    between atoms: N_9  and  C_10 
REMARK       I    between atoms: C_10  and  N_12 
REMARK    2  A    between atoms: N_12  and  C_13 
REMARK    3  A    between atoms: C_13  and  C_14 
REMARK    4  A    between atoms: C_14  and  C_15 
REMARK    5  A    between atoms: C_14  and  N_20 
ROOT
HETATM    1  N   UNL     1     -41.753 -46.374  10.476  1.00  0.00    -0.294 N 
HETATM    2  C   UNL     1     -41.413 -47.591  10.975  1.00  0.00     0.321 C 
HETATM    3  O   UNL     1     -41.621 -48.597  10.299  1.00  0.00    -0.247 OA
HETATM    4  N   UNL     1     -40.867 -47.634  12.228  1.00  0.00    -0.341 N 
HETATM    5  H   UNL     1     -42.186 -46.440   9.567  1.00  0.00     0.172 HD
HETATM    6  H   UNL     1     -40.460 -46.750  12.528  1.00  0.00     0.164 HD
ENDROOT
BRANCH   4   7
HETATM    7  C   UNL     1     -40.382 -48.890  12.717  1.00  0.00     0.160 C 
BRANCH   7   8
HETATM    8  C   UNL     1     -39.175 -48.960  13.685  1.00  0.00     0.247 C 
BRANCH   8   9
HETATM    9  C   UNL     1     -37.915 -49.611  13.052  1.00  0.00     0.046 C 
HETATM   10  C   UNL     1     -37.844 -49.528  11.533  1.00  0.00     0.035 C 
HETATM   11  C   UNL     1     -37.086 -50.769  11.100  1.00  0.00     0.168 C 
HETATM   12  O   UNL     1     -36.864 -51.562  12.269  1.00  0.00    -0.391 OA
HETATM   13  C   UNL     1     -37.796 -51.115  13.266  1.00  0.00     0.174 C 
ENDBRANCH   8   9
BRANCH   8  14
HETATM   14  N   UNL     1     -38.865 -47.636  14.305  1.00  0.00     0.099 N 
HETATM   15  C   UNL     1     -37.424 -47.377  14.546  1.00  0.00     0.299 C 
HETATM   16  C   UNL     1     -36.866 -47.835  15.914  1.00  0.00     0.198 C 
HETATM   17  O   UNL     1     -37.658 -47.340  16.998  1.00  0.00    -0.388 OA
HETATM   18  C   UNL     1     -39.024 -47.741  16.860  1.00  0.00     0.198 C 
HETATM   19  C   UNL     1     -39.616 -47.261  15.522  1.00  0.00     0.299 C 
ENDBRANCH   8  14
ENDBRANCH   7   8
ENDBRANCH   4   7
BRANCH   1  20
HETATM   20  C   UNL     1     -41.643 -45.123  11.088  1.00  0.00     0.114 A 
HETATM   21  C   UNL     1     -40.522 -44.325  10.841  1.00  0.00    -0.018 A 
HETATM   22  C   UNL     1     -39.372 -44.747   9.973  1.00  0.00     0.052 C 
HETATM   23  C   UNL     1     -40.507 -43.046  11.407  1.00  0.00     0.012 A 
HETATM   24  C   UNL     1     -41.562 -42.610  12.202  1.00  0.00     0.018 A 
HETATM   25  C   UNL     1     -42.606 -43.484  12.415  1.00  0.00     0.089 A 
HETATM   26  N   UNL     1     -42.658 -44.720  11.890  1.00  0.00    -0.352 N 
ATOM     27  HN  UNL     1     -43.443 -45.340  12.091  1.00  0.00     0.166 HD
ENDBRANCH   1  20
TORSDOF 5
ENDMDL
MODEL 9
REMARK VINA RESULT:      -5.9      1.534      1.993
REMARK  5 active torsions:
REMARK  status: ('A' for Active; 'I' for Inactive)
REMARK    1  A    between atoms: C_8  and  N_9 
REMARK       I    between atoms: N_9  and  C_10 
REMARK       I    between atoms: C_10  and  N_12 
REMARK    2  A    between atoms: N_12  and  C_13 
REMARK    3  A    between atoms: C_13  and  C_14 
REMARK    4  A    between atoms: C_14  and  C_15 
REMARK    5  A    between atoms: C_14  and  N_20 
ROOT
HETATM    1  N   UNL     1     -40.223 -48.880  11.243  1.00  0.00    -0.294 N 
HETATM    2  C   UNL     1     -39.916 -50.153  11.601  1.00  0.00     0.321 C 
HETATM    3  O   UNL     1     -38.744 -50.448  11.829  1.00  0.00    -0.247 OA
HETATM    4  N   UNL     1     -40.940 -51.058  11.672  1.00  0.00    -0.341 N 
HETATM    5  H   UNL     1     -39.405 -48.293  11.176  1.00  0.00     0.172 HD
HETATM    6  H   UNL     1     -41.857 -50.631  11.780  1.00  0.00     0.164 HD
ENDROOT
BRANCH   4   7
HETATM    7  C   UNL     1     -40.656 -52.370  12.174  1.00  0.00     0.160 C 
BRANCH   7   8
HETATM    8  C   UNL     1     -40.663 -52.663  13.694  1.00  0.00     0.247 C 
BRANCH   8   9
HETATM    9  C   UNL     1     -41.861 -53.543  14.146  1.00  0.00     0.046 C 
HETATM   10  C   UNL     1     -42.899 -53.816  13.065  1.00  0.00     0.035 C 
HETATM   11  C   UNL     1     -44.216 -53.959  13.805  1.00  0.00     0.168 C 
HETATM   12  O   UNL     1     -43.968 -53.656  15.181  1.00  0.00    -0.391 OA
HETATM   13  C   UNL     1     -42.730 -52.930  15.236  1.00  0.00     0.174 C 
ENDBRANCH   8   9
BRANCH   8  14
HETATM   14  N   UNL     1     -39.358 -53.210  14.175  1.00  0.00     0.099 N 
HETATM   15  C   UNL     1     -39.379 -54.645  14.552  1.00  0.00     0.299 C 
HETATM   16  C   UNL     1     -39.736 -54.960  16.025  1.00  0.00     0.198 C 
HETATM   17  O   UNL     1     -38.927 -54.208  16.934  1.00  0.00    -0.388 OA
HETATM   18  C   UNL     1     -39.043 -52.805  16.685  1.00  0.00     0.198 C 
HETATM   19  C   UNL     1     -38.653 -52.459  15.236  1.00  0.00     0.299 C 
ENDBRANCH   8  14
ENDBRANCH   7   8
ENDBRANCH   4   7
BRANCH   1  20
HETATM   20  C   UNL     1     -41.470 -48.349  10.904  1.00  0.00     0.114 A 
HETATM   21  C   UNL     1     -42.286 -47.801  11.897  1.00  0.00    -0.018 A 
HETATM   22  C   UNL     1     -41.927 -47.779  13.354  1.00  0.00     0.052 C 
HETATM   23  C   UNL     1     -43.483 -47.203  11.488  1.00  0.00     0.012 A 
HETATM   24  C   UNL     1     -43.843 -47.186  10.145  1.00  0.00     0.018 A 
HETATM   25  C   UNL     1     -42.988 -47.784   9.245  1.00  0.00     0.089 A 
HETATM   26  N   UNL     1     -41.831 -48.369   9.597  1.00  0.00    -0.352 N 
ATOM     27  HN  UNL     1     -41.238 -48.817   8.899  1.00  0.00     0.166 HD
ENDBRANCH   1  20
TORSDOF 5
ENDMDL
