MODEL 1
REMARK VINA RESULT:      -6.6      0.000      0.000
REMARK  6 active torsions:
REMARK  status: ('A' for Active; 'I' for Inactive)
REMARK    1  A    between atoms: N_2  and  C_4 
REMARK    2  A    between atoms: N_8  and  C_9 
REMARK    3  A    between atoms: C_9  and  C_10 
REMARK       I    between atoms: C_10  and  N_12 
REMARK    4  A    between atoms: N_12  and  C_13 
REMARK    5  A    between atoms: C_13  and  C_20 
REMARK    6  A    between atoms: C_20  and  N_21 
ROOT
HETATM    1  C   UNL     1     -42.937 -50.298  13.115  1.00  0.00     0.237 C 
HETATM    2  O   UNL     1     -42.350 -50.993  13.940  1.00  0.00    -0.272 OA
HETATM    3  N   UNL     1     -44.210 -50.561  12.651  1.00  0.00    -0.339 N 
HETATM    4  H   UNL     1     -44.716 -49.771  12.242  1.00  0.00     0.164 HD
ENDROOT
BRANCH   1   5
HETATM    5  C   UNL     1     -42.312 -49.025  12.555  1.00  0.00     0.234 C 
BRANCH   5   6
HETATM    6  N   UNL     1     -40.892 -48.938  12.878  1.00  0.00    -0.314 N 
HETATM    7  C   UNL     1     -40.483 -48.270  14.020  1.00  0.00     0.095 C 
HETATM    8  C   UNL     1     -39.194 -48.240  14.380  1.00  0.00     0.020 C 
HETATM    9  C   UNL     1     -38.217 -48.978  13.612  1.00  0.00     0.043 C 
HETATM   10  C   UNL     1     -38.589 -49.595  12.482  1.00  0.00     0.170 C 
HETATM   11  C   UNL     1     -39.983 -49.518  11.979  1.00  0.00     0.281 C 
HETATM   12  O   UNL     1     -40.335 -49.893  10.862  1.00  0.00    -0.265 OA
BRANCH  10  13
HETATM   13  N   UNL     1     -37.622 -50.415  11.794  1.00  0.00    -0.110 N 
HETATM   14  O   UNL     1     -37.093 -49.944  10.777  1.00  0.00    -0.532 OA
HETATM   15  O   UNL     1     -37.332 -51.508  12.294  1.00  0.00    -0.532 OA
ENDBRANCH  10  13
ENDBRANCH   5   6
ENDBRANCH   1   5
BRANCH   3  16
HETATM   16  C   UNL     1     -44.997 -51.736  13.066  1.00  0.00     0.104 C 
HETATM   17  C   UNL     1     -45.529 -51.550  14.514  1.00  0.00     0.045 C 
HETATM   18  C   UNL     1     -46.635 -52.508  14.970  1.00  0.00     0.004 C 
HETATM   19  C   UNL     1     -46.207 -53.903  15.420  1.00  0.00     0.000 C 
HETATM   20  C   UNL     1     -44.983 -54.541  14.773  1.00  0.00     0.000 C 
HETATM   21  C   UNL     1     -44.850 -54.345  13.271  1.00  0.00     0.004 C 
HETATM   22  C   UNL     1     -44.148 -53.028  12.904  1.00  0.00     0.045 C 
BRANCH  16  23
HETATM   23  C   UNL     1     -46.170 -51.931  12.119  1.00  0.00    -0.046 C 
BRANCH  23  24
HETATM   24  N   UNL     1     -47.142 -52.094  11.334  1.00  0.00    -0.367 N 
ATOM     25  HN2 UNL     1     -46.365 -51.984  11.986  1.00  0.00     0.165 HD
ATOM     26  HN1 UNL     1     -47.929 -52.225  10.699  1.00  0.00     0.165 HD
ENDBRANCH  23  24
ENDBRANCH  16  23
ENDBRANCH   3  16
TORSDOF 6
ENDMDL
MODEL 2
REMARK VINA RESULT:      -6.6      2.440      3.348
REMARK  6 active torsions:
REMARK  status: ('A' for Active; 'I' for Inactive)
REMARK    1  A    between atoms: N_2  and  C_4 
REMARK    2  A    between atoms: N_8  and  C_9 
REMARK    3  A    between atoms: C_9  and  C_10 
REMARK       I    between atoms: C_10  and  N_12 
REMARK    4  A    between atoms: N_12  and  C_13 
REMARK    5  A    between atoms: C_13  and  C_20 
REMARK    6  A    between atoms: C_20  and  N_21 
ROOT
HETATM    1  C   UNL     1     -42.692 -50.878  13.187  1.00  0.00     0.237 C 
HETATM    2  O   UNL     1     -42.390 -51.357  14.277  1.00  0.00    -0.272 OA
HETATM    3  N   UNL     1     -43.928 -51.031  12.593  1.00  0.00    -0.339 N 
HETATM    4  H   UNL     1     -44.178 -50.341  11.880  1.00  0.00     0.164 HD
ENDROOT
BRANCH   1   5
HETATM    5  C   UNL     1     -41.719 -50.007  12.401  1.00  0.00     0.234 C 
BRANCH   5   6
HETATM    6  N   UNL     1     -42.117 -48.604  12.422  1.00  0.00    -0.314 N 
HETATM    7  C   UNL     1     -42.536 -48.022  13.607  1.00  0.00     0.095 C 
HETATM    8  C   UNL     1     -42.834 -46.718  13.670  1.00  0.00     0.020 C 
HETATM    9  C   UNL     1     -42.643 -45.881  12.508  1.00  0.00     0.043 C 
HETATM   10  C   UNL     1     -42.278 -46.435  11.343  1.00  0.00     0.170 C 
HETATM   11  C   UNL     1     -42.088 -47.901  11.207  1.00  0.00     0.281 C 
HETATM   12  O   UNL     1     -41.947 -48.481  10.132  1.00  0.00    -0.265 OA
BRANCH  10  13
HETATM   13  N   UNL     1     -41.988 -45.568  10.228  1.00  0.00    -0.110 N 
HETATM   14  O   UNL     1     -40.852 -45.076  10.165  1.00  0.00    -0.532 OA
HETATM   15  O   UNL     1     -42.865 -45.420   9.370  1.00  0.00    -0.532 OA
ENDBRANCH  10  13
ENDBRANCH   5   6
ENDBRANCH   1   5
BRANCH   3  16
HETATM   16  C   UNL     1     -45.019 -51.828  13.184  1.00  0.00     0.104 C 
HETATM   17  C   UNL     1     -45.552 -51.148  14.475  1.00  0.00     0.045 C 
HETATM   18  C   UNL     1     -46.893 -51.654  15.017  1.00  0.00     0.004 C 
HETATM   19  C   UNL     1     -46.873 -52.944  15.833  1.00  0.00     0.000 C 
HETATM   20  C   UNL     1     -45.832 -54.007  15.502  1.00  0.00     0.000 C 
HETATM   21  C   UNL     1     -45.579 -54.248  14.022  1.00  0.00     0.004 C 
HETATM   22  C   UNL     1     -44.536 -53.285  13.434  1.00  0.00     0.045 C 
BRANCH  16  23
HETATM   23  C   UNL     1     -46.154 -51.971  12.183  1.00  0.00    -0.046 C 
BRANCH  23  24
HETATM   24  N   UNL     1     -47.095 -52.091  11.354  1.00  0.00    -0.367 N 
ATOM     25  HN2 UNL     1     -46.317 -52.012  12.009  1.00  0.00     0.165 HD
ATOM     26  HN1 UNL     1     -47.857 -52.187  10.683  1.00  0.00     0.165 HD
ENDBRANCH  23  24
ENDBRANCH  16  23
ENDBRANCH   3  16
TORSDOF 6
ENDMDL
MODEL 3
REMARK VINA RESULT:      -6.6      2.638      7.541
REMARK  6 active torsions:
REMARK  status: ('A' for Active; 'I' for Inactive)
REMARK    1  A    between atoms: N_2  and  C_4 
REMARK    2  A    between atoms: N_8  and  C_9 
REMARK    3  A    between atoms: C_9  and  C_10 
REMARK       I    between atoms: C_10  and  N_12 
REMARK    4  A    between atoms: N_12  and  C_13 
REMARK    5  A    between atoms: C_13  and  C_20 
REMARK    6  A    between atoms: C_20  and  N_21 
ROOT
HETATM    1  C   UNL     1     -41.402 -51.484  12.272  1.00  0.00     0.237 C 
HETATM    2  O   UNL     1     -41.986 -50.710  13.025  1.00  0.00    -0.272 OA
HETATM    3  N   UNL     1     -40.124 -51.279  11.792  1.00  0.00    -0.339 N 
HETATM    4  H   UNL     1     -39.624 -52.108  11.463  1.00  0.00     0.164 HD
ENDROOT
BRANCH   1   5
HETATM    5  C   UNL     1     -42.036 -52.799  11.832  1.00  0.00     0.234 C 
BRANCH   5   6
HETATM    6  N   UNL     1     -42.507 -53.576  12.973  1.00  0.00    -0.314 N 
HETATM    7  C   UNL     1     -41.596 -54.095  13.878  1.00  0.00     0.095 C 
HETATM    8  C   UNL     1     -42.005 -54.747  14.974  1.00  0.00     0.020 C 
HETATM    9  C   UNL     1     -43.417 -54.846  15.265  1.00  0.00     0.043 C 
HETATM   10  C   UNL     1     -44.311 -54.385  14.380  1.00  0.00     0.170 C 
HETATM   11  C   UNL     1     -43.889 -53.794  13.086  1.00  0.00     0.281 C 
HETATM   12  O   UNL     1     -44.658 -53.539  12.161  1.00  0.00    -0.265 OA
BRANCH  10  13
HETATM   13  N   UNL     1     -45.708 -54.397  14.742  1.00  0.00    -0.110 N 
HETATM   14  O   UNL     1     -46.377 -55.386  14.411  1.00  0.00    -0.532 OA
HETATM   15  O   UNL     1     -46.137 -53.453  15.416  1.00  0.00    -0.532 OA
ENDBRANCH  10  13
ENDBRANCH   5   6
ENDBRANCH   1   5
BRANCH   3  16
HETATM   16  C   UNL     1     -39.327 -50.077  12.099  1.00  0.00     0.104 C 
HETATM   17  C   UNL     1     -38.841 -50.108  13.574  1.00  0.00     0.045 C 
HETATM   18  C   UNL     1     -37.732 -49.122  13.956  1.00  0.00     0.004 C 
HETATM   19  C   UNL     1     -38.146 -47.680  14.234  1.00  0.00     0.000 C 
HETATM   20  C   UNL     1     -39.338 -47.099  13.483  1.00  0.00     0.000 C 
HETATM   21  C   UNL     1     -39.431 -47.460  12.008  1.00  0.00     0.004 C 
HETATM   22  C   UNL     1     -40.147 -48.798  11.768  1.00  0.00     0.045 C 
BRANCH  16  23
HETATM   23  C   UNL     1     -38.124 -50.007  11.174  1.00  0.00    -0.046 C 
BRANCH  23  24
HETATM   24  N   UNL     1     -37.126 -49.948  10.405  1.00  0.00    -0.367 N 
ATOM     25  HN2 UNL     1     -37.917 -50.011  11.046  1.00  0.00     0.165 HD
ATOM     26  HN1 UNL     1     -36.319 -49.900   9.783  1.00  0.00     0.165 HD
ENDBRANCH  23  24
ENDBRANCH  16  23
ENDBRANCH   3  16
TORSDOF 6
ENDMDL
MODEL 4
REMARK VINA RESULT:      -6.6      1.912      2.438
REMARK  6 active torsions:
REMARK  status: ('A' for Active; 'I' for Inactive)
REMARK    1  A    between atoms: N_2  and  C_4 
REMARK    2  A    between atoms: N_8  and  C_9 
REMARK    3  A    between atoms: C_9  and  C_10 
REMARK       I    between atoms: C_10  and  N_12 
REMARK    4  A    between atoms: N_12  and  C_13 
REMARK    5  A    between atoms: C_13  and  C_20 
REMARK    6  A    between atoms: C_20  and  N_21 
ROOT
HETATM    1  C   UNL     1     -42.380 -52.786  12.819  1.00  0.00     0.237 C 
HETATM    2  O   UNL     1     -42.212 -53.322  13.911  1.00  0.00    -0.272 OA
HETATM    3  N   UNL     1     -43.605 -52.357  12.351  1.00  0.00    -0.339 N 
HETATM    4  H   UNL     1     -43.586 -51.649  11.612  1.00  0.00     0.164 HD
ENDROOT
BRANCH   1   5
HETATM    5  C   UNL     1     -41.211 -52.496  11.885  1.00  0.00     0.234 C 
BRANCH   5   6
HETATM    6  N   UNL     1     -40.487 -51.295  12.288  1.00  0.00    -0.314 N 
HETATM    7  C   UNL     1     -40.826 -50.069  11.741  1.00  0.00     0.095 C 
HETATM    8  C   UNL     1     -40.230 -48.941  12.150  1.00  0.00     0.020 C 
HETATM    9  C   UNL     1     -39.274 -48.986  13.232  1.00  0.00     0.043 C 
HETATM   10  C   UNL     1     -38.905 -50.169  13.743  1.00  0.00     0.170 C 
HETATM   11  C   UNL     1     -39.437 -51.447  13.207  1.00  0.00     0.281 C 
HETATM   12  O   UNL     1     -38.993 -52.555  13.499  1.00  0.00    -0.265 OA
BRANCH  10  13
HETATM   13  N   UNL     1     -38.034 -50.181  14.893  1.00  0.00    -0.110 N 
HETATM   14  O   UNL     1     -38.562 -50.260  16.011  1.00  0.00    -0.532 OA
HETATM   15  O   UNL     1     -36.813 -50.179  14.692  1.00  0.00    -0.532 OA
ENDBRANCH  10  13
ENDBRANCH   5   6
ENDBRANCH   1   5
BRANCH   3  16
HETATM   16  C   UNL     1     -44.865 -52.532  13.096  1.00  0.00     0.104 C 
HETATM   17  C   UNL     1     -44.952 -51.512  14.265  1.00  0.00     0.045 C 
HETATM   18  C   UNL     1     -46.326 -51.329  14.919  1.00  0.00     0.004 C 
HETATM   19  C   UNL     1     -46.756 -52.376  15.942  1.00  0.00     0.000 C 
HETATM   20  C   UNL     1     -46.273 -53.812  15.772  1.00  0.00     0.000 C 
HETATM   21  C   UNL     1     -46.279 -54.348  14.349  1.00  0.00     0.004 C 
HETATM   22  C   UNL     1     -44.995 -54.004  13.579  1.00  0.00     0.045 C 
BRANCH  16  23
HETATM   23  C   UNL     1     -46.048 -52.333  12.163  1.00  0.00    -0.046 C 
BRANCH  23  24
HETATM   24  N   UNL     1     -47.029 -52.168  11.389  1.00  0.00    -0.367 N 
ATOM     25  HN2 UNL     1     -46.230 -52.327  12.003  1.00  0.00     0.165 HD
ATOM     26  HN1 UNL     1     -47.823 -52.034  10.763  1.00  0.00     0.165 HD
ENDBRANCH  23  24
ENDBRANCH  16  23
ENDBRANCH   3  16
TORSDOF 6
ENDMDL
MODEL 5
REMARK VINA RESULT:      -6.5      1.978      2.518
REMARK  6 active torsions:
REMARK  status: ('A' for Active; 'I' for Inactive)
REMARK    1  A    between atoms: N_2  and  C_4 
REMARK    2  A    between atoms: N_8  and  C_9 
REMARK    3  A    between atoms: C_9  and  C_10 
REMARK       I    between atoms: C_10  and  N_12 
REMARK    4  A    between atoms: N_12  and  C_13 
REMARK    5  A    between atoms: C_13  and  C_20 
REMARK    6  A    between atoms: C_20  and  N_21 
ROOT
HETATM    1  C   UNL     1     -42.334 -52.371  12.794  1.00  0.00     0.237 C 
HETATM    2  O   UNL     1     -42.103 -52.722  13.948  1.00  0.00    -0.272 OA
HETATM    3  N   UNL     1     -43.602 -52.193  12.280  1.00  0.00    -0.339 N 
HETATM    4  H   UNL     1     -43.677 -51.599  11.451  1.00  0.00     0.164 HD
ENDROOT
BRANCH   1   5
HETATM    5  C   UNL     1     -41.208 -52.044  11.820  1.00  0.00     0.234 C 
BRANCH   5   6
HETATM    6  N   UNL     1     -40.412 -50.912  12.280  1.00  0.00    -0.314 N 
HETATM    7  C   UNL     1     -39.167 -51.128  12.847  1.00  0.00     0.095 C 
HETATM    8  C   UNL     1     -38.384 -50.104  13.207  1.00  0.00     0.020 C 
HETATM    9  C   UNL     1     -38.803 -48.748  12.933  1.00  0.00     0.043 C 
HETATM   10  C   UNL     1     -40.021 -48.521  12.422  1.00  0.00     0.170 C 
HETATM   11  C   UNL     1     -40.970 -49.630  12.154  1.00  0.00     0.281 C 
HETATM   12  O   UNL     1     -42.157 -49.470  11.876  1.00  0.00    -0.265 OA
BRANCH  10  13
HETATM   13  N   UNL     1     -40.374 -47.171  12.056  1.00  0.00    -0.110 N 
HETATM   14  O   UNL     1     -40.624 -46.375  12.973  1.00  0.00    -0.532 OA
HETATM   15  O   UNL     1     -40.340 -46.871  10.856  1.00  0.00    -0.532 OA
ENDBRANCH  10  13
ENDBRANCH   5   6
ENDBRANCH   1   5
BRANCH   3  16
HETATM   16  C   UNL     1     -44.832 -52.447  13.053  1.00  0.00     0.104 C 
HETATM   17  C   UNL     1     -44.945 -51.451  14.239  1.00  0.00     0.045 C 
HETATM   18  C   UNL     1     -46.309 -51.351  14.929  1.00  0.00     0.004 C 
HETATM   19  C   UNL     1     -46.658 -52.435  15.945  1.00  0.00     0.000 C 
HETATM   20  C   UNL     1     -46.105 -53.840  15.740  1.00  0.00     0.000 C 
HETATM   21  C   UNL     1     -46.117 -54.355  14.309  1.00  0.00     0.004 C 
HETATM   22  C   UNL     1     -44.872 -53.931  13.514  1.00  0.00     0.045 C 
BRANCH  16  23
HETATM   23  C   UNL     1     -46.047 -52.297  12.152  1.00  0.00    -0.046 C 
BRANCH  23  24
HETATM   24  N   UNL     1     -47.054 -52.173  11.405  1.00  0.00    -0.367 N 
ATOM     25  HN2 UNL     1     -46.233 -52.245  12.005  1.00  0.00     0.165 HD
ATOM     26  HN1 UNL     1     -47.870 -52.073  10.800  1.00  0.00     0.165 HD
ENDBRANCH  23  24
ENDBRANCH  16  23
ENDBRANCH   3  16
TORSDOF 6
ENDMDL
MODEL 6
REMARK VINA RESULT:      -6.5      2.560      3.836
REMARK  6 active torsions:
REMARK  status: ('A' for Active; 'I' for Inactive)
REMARK    1  A    between atoms: N_2  and  C_4 
REMARK    2  A    between atoms: N_8  and  C_9 
REMARK    3  A    between atoms: C_9  and  C_10 
REMARK       I    between atoms: C_10  and  N_12 
REMARK    4  A    between atoms: N_12  and  C_13 
REMARK    5  A    between atoms: C_13  and  C_20 
REMARK    6  A    between atoms: C_20  and  N_21 
ROOT
HETATM    1  C   UNL     1     -40.983 -51.044  12.107  1.00  0.00     0.237 C 
HETATM    2  O   UNL     1     -40.383 -51.876  12.783  1.00  0.00    -0.272 OA
HETATM    3  N   UNL     1     -42.345 -50.830  12.176  1.00  0.00    -0.339 N 
HETATM    4  H   UNL     1     -42.680 -49.925  11.837  1.00  0.00     0.164 HD
ENDROOT
BRANCH   1   5
HETATM    5  C   UNL     1     -40.248 -50.119  11.144  1.00  0.00     0.234 C 
BRANCH   5   6
HETATM    6  N   UNL     1     -40.209 -48.748  11.642  1.00  0.00    -0.314 N 
HETATM    7  C   UNL     1     -39.418 -48.433  12.735  1.00  0.00     0.095 C 
HETATM    8  C   UNL     1     -39.305 -47.170  13.165  1.00  0.00     0.020 C 
HETATM    9  C   UNL     1     -39.952 -46.103  12.436  1.00  0.00     0.043 C 
HETATM   10  C   UNL     1     -40.753 -46.395  11.403  1.00  0.00     0.170 C 
HETATM   11  C   UNL     1     -41.018 -47.798  10.998  1.00  0.00     0.281 C 
HETATM   12  O   UNL     1     -41.886 -48.132  10.195  1.00  0.00    -0.265 OA
BRANCH  10  13
HETATM   13  N   UNL     1     -41.300 -45.309  10.626  1.00  0.00    -0.110 N 
HETATM   14  O   UNL     1     -42.468 -44.968  10.861  1.00  0.00    -0.532 OA
HETATM   15  O   UNL     1     -40.551 -44.743   9.820  1.00  0.00    -0.532 OA
ENDBRANCH  10  13
ENDBRANCH   5   6
ENDBRANCH   1   5
BRANCH   3  16
HETATM   16  C   UNL     1     -43.245 -51.609  13.046  1.00  0.00     0.104 C 
HETATM   17  C   UNL     1     -43.531 -53.003  12.424  1.00  0.00     0.045 C 
HETATM   18  C   UNL     1     -44.160 -54.054  13.345  1.00  0.00     0.004 C 
HETATM   19  C   UNL     1     -45.666 -53.966  13.578  1.00  0.00     0.000 C 
HETATM   20  C   UNL     1     -46.334 -52.596  13.558  1.00  0.00     0.000 C 
HETATM   21  C   UNL     1     -45.570 -51.476  14.248  1.00  0.00     0.004 C 
HETATM   22  C   UNL     1     -44.544 -50.802  13.325  1.00  0.00     0.045 C 
BRANCH  16  23
HETATM   23  C   UNL     1     -42.609 -51.789  14.415  1.00  0.00    -0.046 C 
BRANCH  23  24
HETATM   24  N   UNL     1     -42.082 -51.939  15.550  1.00  0.00    -0.367 N 
ATOM     25  HN2 UNL     1     -42.527 -51.839  14.638  1.00  0.00     0.165 HD
ATOM     26  HN1 UNL     1     -41.654 -52.059  16.468  1.00  0.00     0.165 HD
ENDBRANCH  23  24
ENDBRANCH  16  23
ENDBRANCH   3  16
TORSDOF 6
ENDMDL
MODEL 7
REMARK VINA RESULT:      -6.4      2.924      6.907
REMARK  6 active torsions:
REMARK  status: ('A' for Active; 'I' for Inactive)
REMARK    1  A    between atoms: N_2  and  C_4 
REMARK    2  A    between atoms: N_8  and  C_9 
REMARK    3  A    between atoms: C_9  and  C_10 
REMARK       I    between atoms: C_10  and  N_12 
REMARK    4  A    between atoms: N_12  and  C_13 
REMARK    5  A    between atoms: C_13  and  C_20 
REMARK    6  A    between atoms: C_20  and  N_21 
ROOT
HETATM    1  C   UNL     1     -41.669 -51.138  12.456  1.00  0.00     0.237 C 
HETATM    2  O   UNL     1     -41.576 -50.831  13.641  1.00  0.00    -0.272 OA
HETATM    3  N   UNL     1     -41.742 -50.224  11.425  1.00  0.00    -0.339 N 
HETATM    4  H   UNL     1     -41.485 -50.565  10.496  1.00  0.00     0.164 HD
ENDROOT
BRANCH   1   5
HETATM    5  C   UNL     1     -41.661 -52.595  12.006  1.00  0.00     0.234 C 
BRANCH   5   6
HETATM    6  N   UNL     1     -42.161 -53.482  13.051  1.00  0.00    -0.314 N 
HETATM    7  C   UNL     1     -41.289 -53.991  14.000  1.00  0.00     0.095 C 
HETATM    8  C   UNL     1     -41.734 -54.745  15.013  1.00  0.00     0.020 C 
HETATM    9  C   UNL     1     -43.152 -54.971  15.171  1.00  0.00     0.043 C 
HETATM   10  C   UNL     1     -44.005 -54.520  14.240  1.00  0.00     0.170 C 
HETATM   11  C   UNL     1     -43.525 -53.812  13.027  1.00  0.00     0.281 C 
HETATM   12  O   UNL     1     -44.232 -53.553  12.056  1.00  0.00    -0.265 OA
BRANCH  10  13
HETATM   13  N   UNL     1     -45.421 -54.663  14.475  1.00  0.00    -0.110 N 
HETATM   14  O   UNL     1     -45.986 -55.650  13.983  1.00  0.00    -0.532 OA
HETATM   15  O   UNL     1     -45.971 -53.830  15.206  1.00  0.00    -0.532 OA
ENDBRANCH  10  13
ENDBRANCH   5   6
ENDBRANCH   1   5
BRANCH   3  16
HETATM   16  C   UNL     1     -41.758 -48.764  11.636  1.00  0.00     0.104 C 
HETATM   17  C   UNL     1     -40.359 -48.265  12.092  1.00  0.00     0.045 C 
HETATM   18  C   UNL     1     -40.111 -46.755  12.025  1.00  0.00     0.004 C 
HETATM   19  C   UNL     1     -40.668 -45.905  13.164  1.00  0.00     0.000 C 
HETATM   20  C   UNL     1     -41.952 -46.350  13.853  1.00  0.00     0.000 C 
HETATM   21  C   UNL     1     -43.043 -46.887  12.938  1.00  0.00     0.004 C 
HETATM   22  C   UNL     1     -42.883 -48.386  12.641  1.00  0.00     0.045 C 
BRANCH  16  23
HETATM   23  C   UNL     1     -42.149 -48.062  10.347  1.00  0.00    -0.046 C 
BRANCH  23  24
HETATM   24  N   UNL     1     -42.475 -47.478   9.278  1.00  0.00    -0.367 N 
ATOM     25  HN2 UNL     1     -42.187 -47.935  10.143  1.00  0.00     0.165 HD
ATOM     26  HN1 UNL     1     -42.739 -47.007   8.413  1.00  0.00     0.165 HD
ENDBRANCH  23  24
ENDBRANCH  16  23
ENDBRANCH   3  16
TORSDOF 6
ENDMDL
MODEL 8
REMARK VINA RESULT:      -6.4      2.458      3.122
REMARK  6 active torsions:
REMARK  status: ('A' for Active; 'I' for Inactive)
REMARK    1  A    between atoms: N_2  and  C_4 
REMARK    2  A    between atoms: N_8  and  C_9 
REMARK    3  A    between atoms: C_9  and  C_10 
REMARK       I    between atoms: C_10  and  N_12 
REMARK    4  A    between atoms: N_12  and  C_13 
REMARK    5  A    between atoms: C_13  and  C_20 
REMARK    6  A    between atoms: C_20  and  N_21 
ROOT
HETATM    1  C   UNL     1     -42.078 -54.077  13.928  1.00  0.00     0.237 C 
HETATM    2  O   UNL     1     -42.268 -54.960  14.760  1.00  0.00    -0.272 OA
HETATM    3  N   UNL     1     -42.995 -53.090  13.627  1.00  0.00    -0.339 N 
HETATM    4  H   UNL     1     -42.623 -52.244  13.188  1.00  0.00     0.164 HD
ENDROOT
BRANCH   1   5
HETATM    5  C   UNL     1     -40.759 -53.963  13.173  1.00  0.00     0.234 C 
BRANCH   5   6
HETATM    6  N   UNL     1     -40.025 -52.761  13.553  1.00  0.00    -0.314 N 
HETATM    7  C   UNL     1     -39.371 -52.707  14.773  1.00  0.00     0.095 C 
HETATM    8  C   UNL     1     -38.629 -51.646  15.113  1.00  0.00     0.020 C 
HETATM    9  C   UNL     1     -38.437 -50.571  14.168  1.00  0.00     0.043 C 
HETATM   10  C   UNL     1     -39.095 -50.588  13.000  1.00  0.00     0.170 C 
HETATM   11  C   UNL     1     -40.044 -51.678  12.660  1.00  0.00     0.281 C 
HETATM   12  O   UNL     1     -40.815 -51.647  11.703  1.00  0.00    -0.265 OA
BRANCH  10  13
HETATM   13  N   UNL     1     -38.804 -49.561  12.030  1.00  0.00    -0.110 N 
HETATM   14  O   UNL     1     -39.464 -48.514  12.089  1.00  0.00    -0.532 OA
HETATM   15  O   UNL     1     -37.873 -49.760  11.242  1.00  0.00    -0.532 OA
ENDBRANCH  10  13
ENDBRANCH   5   6
ENDBRANCH   1   5
BRANCH   3  16
HETATM   16  C   UNL     1     -44.331 -53.009  14.245  1.00  0.00     0.104 C 
HETATM   17  C   UNL     1     -45.111 -51.783  13.696  1.00  0.00     0.045 C 
HETATM   18  C   UNL     1     -46.618 -51.746  13.970  1.00  0.00     0.004 C 
HETATM   19  C   UNL     1     -47.064 -51.277  15.353  1.00  0.00     0.000 C 
HETATM   20  C   UNL     1     -46.165 -51.560  16.550  1.00  0.00     0.000 C 
HETATM   21  C   UNL     1     -45.516 -52.935  16.581  1.00  0.00     0.004 C 
HETATM   22  C   UNL     1     -44.197 -52.987  15.794  1.00  0.00     0.045 C 
BRANCH  16  23
HETATM   23  C   UNL     1     -45.113 -54.278  13.950  1.00  0.00    -0.046 C 
BRANCH  23  24
HETATM   24  N   UNL     1     -45.761 -55.331  13.706  1.00  0.00    -0.367 N 
ATOM     25  HN2 UNL     1     -45.236 -54.474  13.875  1.00  0.00     0.165 HD
ATOM     26  HN1 UNL     1     -46.285 -56.184  13.508  1.00  0.00     0.165 HD
ENDBRANCH  23  24
ENDBRANCH  16  23
ENDBRANCH   3  16
TORSDOF 6
ENDMDL
MODEL 9
REMARK VINA RESULT:      -6.4      2.908      3.658
REMARK  6 active torsions:
REMARK  status: ('A' for Active; 'I' for Inactive)
REMARK    1  A    between atoms: N_2  and  C_4 
REMARK    2  A    between atoms: N_8  and  C_9 
REMARK    3  A    between atoms: C_9  and  C_10 
REMARK       I    between atoms: C_10  and  N_12 
REMARK    4  A    between atoms: N_12  and  C_13 
REMARK    5  A    between atoms: C_13  and  C_20 
REMARK    6  A    between atoms: C_20  and  N_21 
ROOT
HETATM    1  C   UNL     1     -42.424 -49.565  12.367  1.00  0.00     0.237 C 
HETATM    2  O   UNL     1     -43.073 -48.745  13.010  1.00  0.00    -0.272 OA
HETATM    3  N   UNL     1     -42.690 -50.920  12.351  1.00  0.00    -0.339 N 
HETATM    4  H   UNL     1     -42.321 -51.446  11.554  1.00  0.00     0.164 HD
ENDROOT
BRANCH   1   5
HETATM    5  C   UNL     1     -41.269 -49.140  11.467  1.00  0.00     0.234 C 
BRANCH   5   6
HETATM    6  N   UNL     1     -40.728 -47.845  11.865  1.00  0.00    -0.314 N 
HETATM    7  C   UNL     1     -39.984 -47.735  13.028  1.00  0.00     0.095 C 
HETATM    8  C   UNL     1     -39.412 -46.575  13.376  1.00  0.00     0.020 C 
HETATM    9  C   UNL     1     -39.502 -45.437  12.492  1.00  0.00     0.043 C 
HETATM   10  C   UNL     1     -40.251 -45.514  11.383  1.00  0.00     0.170 C 
HETATM   11  C   UNL     1     -41.020 -46.739  11.050  1.00  0.00     0.281 C 
HETATM   12  O   UNL     1     -41.869 -46.801  10.163  1.00  0.00    -0.265 OA
BRANCH  10  13
HETATM   13  N   UNL     1     -40.237 -44.404  10.463  1.00  0.00    -0.110 N 
HETATM   14  O   UNL     1     -39.443 -44.458   9.512  1.00  0.00    -0.532 OA
HETATM   15  O   UNL     1     -41.062 -43.499  10.638  1.00  0.00    -0.532 OA
ENDBRANCH  10  13
ENDBRANCH   5   6
ENDBRANCH   1   5
BRANCH   3  16
HETATM   16  C   UNL     1     -43.766 -51.543  13.143  1.00  0.00     0.104 C 
HETATM   17  C   UNL     1     -45.125 -50.850  12.855  1.00  0.00     0.045 C 
HETATM   18  C   UNL     1     -46.386 -51.583  13.325  1.00  0.00     0.004 C 
HETATM   19  C   UNL     1     -46.756 -51.458  14.800  1.00  0.00     0.000 C 
HETATM   20  C   UNL     1     -45.641 -51.303  15.827  1.00  0.00     0.000 C 
HETATM   21  C   UNL     1     -44.410 -52.169  15.605  1.00  0.00     0.004 C 
HETATM   22  C   UNL     1     -43.393 -51.522  14.652  1.00  0.00     0.045 C 
BRANCH  16  23
HETATM   23  C   UNL     1     -43.869 -53.020  12.799  1.00  0.00    -0.046 C 
BRANCH  23  24
HETATM   24  N   UNL     1     -43.955 -54.245  12.513  1.00  0.00    -0.367 N 
ATOM     25  HN2 UNL     1     -43.857 -53.257  12.748  1.00  0.00     0.165 HD
ATOM     26  HN1 UNL     1     -44.025 -55.236  12.282  1.00  0.00     0.165 HD
ENDBRANCH  23  24
ENDBRANCH  16  23
ENDBRANCH   3  16
TORSDOF 6
ENDMDL
