MODEL 1
REMARK VINA RESULT:      -6.0      0.000      0.000
REMARK  4 active torsions:
REMARK  status: ('A' for Active; 'I' for Inactive)
REMARK    1  A    between atoms: C_5  and  C_6 
REMARK    2  A    between atoms: C_6  and  C_7 
REMARK    3  A    between atoms: C_7  and  N_8 
REMARK       I    between atoms: N_8  and  C_9 
REMARK       I    between atoms: C_9  and  N_11 
REMARK    4  A    between atoms: C_16  and  C_17 
ROOT
HETATM    1  N   UNL     1     -41.375 -49.342  13.062  1.00  0.00    -0.343 N 
HETATM    2  C   UNL     1     -42.599 -49.931  12.836  1.00  0.00     0.318 C 
HETATM    3  O   UNL     1     -43.526 -49.264  12.388  1.00  0.00    -0.247 OA
HETATM    4  N   UNL     1     -42.675 -51.277  13.151  1.00  0.00    -0.325 N 
HETATM    5  C   UNL     1     -41.472 -52.092  13.390  1.00  0.00     0.154 C 
HETATM    6  C   UNL     1     -41.596 -53.482  12.772  1.00  0.00     0.187 C 
HETATM    7  O   UNL     1     -42.756 -54.150  13.272  1.00  0.00    -0.387 OA
HETATM    8  C   UNL     1     -43.933 -53.418  12.898  1.00  0.00     0.193 C 
HETATM    9  C   UNL     1     -43.951 -51.987  13.498  1.00  0.00     0.116 C 
HETATM   10  H   UNL     1     -40.814 -49.742  13.797  1.00  0.00     0.164 HD
ENDROOT
BRANCH   1  11
HETATM   11  C   UNL     1     -41.193 -47.913  12.831  1.00  0.00     0.131 C 
BRANCH  11  12
HETATM   12  C   UNL     1     -40.647 -47.609  11.434  1.00  0.00     0.084 C 
BRANCH  12  13
HETATM   13  C   UNL     1     -41.738 -47.235  10.482  1.00  0.00     0.052 A 
HETATM   14  S   UNL     1     -42.430 -45.662  10.528  1.00  0.00    -0.087 SA
HETATM   15  C   UNL     1     -43.423 -46.073   9.197  1.00  0.00     0.076 A 
HETATM   16  C   UNL     1     -43.175 -47.373   8.804  1.00  0.00     0.012 A 
HETATM   17  C   UNL     1     -43.818 -48.095   7.676  1.00  0.00     0.068 C 
HETATM   18  N   UNL     1     -42.218 -48.037   9.553  1.00  0.00    -0.357 N 
ATOM     19  HN  UNL     1     -41.928 -49.004   9.408  1.00  0.00     0.166 HD
ENDBRANCH  12  13
ENDBRANCH  11  12
ENDBRANCH   1  11
BRANCH   9  20
HETATM   20  C   UNL     1     -45.248 -51.246  13.222  1.00  0.00     0.011 A 
HETATM   21  C   UNL     1     -46.477 -51.459  14.082  1.00  0.00     0.007 A 
HETATM   22  C   UNL     1     -46.488 -51.901  12.648  1.00  0.00     0.007 A 
ENDBRANCH   9  20
TORSDOF 4
ENDMDL
MODEL 2
REMARK VINA RESULT:      -6.0      2.015      3.506
REMARK  4 active torsions:
REMARK  status: ('A' for Active; 'I' for Inactive)
REMARK    1  A    between atoms: C_5  and  C_6 
REMARK    2  A    between atoms: C_6  and  C_7 
REMARK    3  A    between atoms: C_7  and  N_8 
REMARK       I    between atoms: N_8  and  C_9 
REMARK       I    between atoms: C_9  and  N_11 
REMARK    4  A    between atoms: C_16  and  C_17 
ROOT
HETATM    1  N   UNL     1     -41.025 -51.095  11.503  1.00  0.00    -0.343 N 
HETATM    2  C   UNL     1     -40.838 -51.793  12.676  1.00  0.00     0.318 C 
HETATM    3  O   UNL     1     -39.902 -51.508  13.416  1.00  0.00    -0.247 OA
HETATM    4  N   UNL     1     -41.761 -52.796  12.921  1.00  0.00    -0.325 N 
HETATM    5  C   UNL     1     -43.025 -52.894  12.171  1.00  0.00     0.154 C 
HETATM    6  C   UNL     1     -44.193 -53.278  13.075  1.00  0.00     0.187 C 
HETATM    7  O   UNL     1     -43.919 -54.508  13.751  1.00  0.00    -0.387 OA
HETATM    8  C   UNL     1     -42.770 -54.347  14.596  1.00  0.00     0.193 C 
HETATM    9  C   UNL     1     -41.492 -53.989  13.790  1.00  0.00     0.116 C 
HETATM   10  H   UNL     1     -41.470 -51.596  10.751  1.00  0.00     0.164 HD
ENDROOT
BRANCH   1  11
HETATM   11  C   UNL     1     -40.077 -50.061  11.104  1.00  0.00     0.131 C 
BRANCH  11  12
HETATM   12  C   UNL     1     -40.503 -48.665  11.564  1.00  0.00     0.084 C 
BRANCH  12  13
HETATM   13  C   UNL     1     -41.724 -48.192  10.841  1.00  0.00     0.052 A 
HETATM   14  S   UNL     1     -42.991 -47.410  11.700  1.00  0.00    -0.087 SA
HETATM   15  C   UNL     1     -43.834 -47.187  10.227  1.00  0.00     0.076 A 
HETATM   16  C   UNL     1     -43.109 -47.721   9.180  1.00  0.00     0.012 A 
HETATM   17  C   UNL     1     -43.489 -47.712   7.744  1.00  0.00     0.068 C 
HETATM   18  N   UNL     1     -41.908 -48.307   9.542  1.00  0.00    -0.357 N 
ATOM     19  HN  UNL     1     -41.261 -48.762   8.897  1.00  0.00     0.166 HD
ENDBRANCH  12  13
ENDBRANCH  11  12
ENDBRANCH   1  11
BRANCH   9  20
HETATM   20  C   UNL     1     -40.242 -53.946  14.652  1.00  0.00     0.011 A 
HETATM   21  C   UNL     1     -39.050 -54.832  14.358  1.00  0.00     0.007 A 
HETATM   22  C   UNL     1     -39.842 -55.046  15.614  1.00  0.00     0.007 A 
ENDBRANCH   9  20
TORSDOF 4
ENDMDL
MODEL 3
REMARK VINA RESULT:      -5.8      2.858      6.589
REMARK  4 active torsions:
REMARK  status: ('A' for Active; 'I' for Inactive)
REMARK    1  A    between atoms: C_5  and  C_6 
REMARK    2  A    between atoms: C_6  and  C_7 
REMARK    3  A    between atoms: C_7  and  N_8 
REMARK       I    between atoms: N_8  and  C_9 
REMARK       I    between atoms: C_9  and  N_11 
REMARK    4  A    between atoms: C_16  and  C_17 
ROOT
HETATM    1  N   UNL     1     -39.886 -48.689  11.173  1.00  0.00    -0.343 N 
HETATM    2  C   UNL     1     -41.151 -48.178  10.986  1.00  0.00     0.318 C 
HETATM    3  O   UNL     1     -42.127 -48.918  11.058  1.00  0.00    -0.247 OA
HETATM    4  N   UNL     1     -41.207 -46.820  10.722  1.00  0.00    -0.325 N 
HETATM    5  C   UNL     1     -40.055 -45.932  10.949  1.00  0.00     0.154 C 
HETATM    6  C   UNL     1     -40.478 -44.592  11.545  1.00  0.00     0.187 C 
HETATM    7  O   UNL     1     -41.440 -43.953  10.703  1.00  0.00    -0.387 OA
HETATM    8  C   UNL     1     -42.620 -44.765  10.616  1.00  0.00     0.193 C 
HETATM    9  C   UNL     1     -42.333 -46.155   9.986  1.00  0.00     0.116 C 
HETATM   10  H   UNL     1     -39.137 -48.215  10.695  1.00  0.00     0.164 HD
ENDROOT
BRANCH   1  11
HETATM   11  C   UNL     1     -39.696 -50.119  11.392  1.00  0.00     0.131 C 
BRANCH  11  12
HETATM   12  C   UNL     1     -39.952 -50.530  12.843  1.00  0.00     0.084 C 
BRANCH  12  13
HETATM   13  C   UNL     1     -40.842 -51.729  12.932  1.00  0.00     0.052 A 
HETATM   14  S   UNL     1     -40.279 -53.174  13.673  1.00  0.00    -0.087 SA
HETATM   15  C   UNL     1     -41.811 -53.891  13.410  1.00  0.00     0.076 A 
HETATM   16  C   UNL     1     -42.650 -52.996  12.775  1.00  0.00     0.012 A 
HETATM   17  C   UNL     1     -44.065 -53.229  12.391  1.00  0.00     0.068 C 
HETATM   18  N   UNL     1     -42.083 -51.765  12.492  1.00  0.00    -0.357 N 
ATOM     19  HN  UNL     1     -42.557 -50.998  12.014  1.00  0.00     0.166 HD
ENDBRANCH  12  13
ENDBRANCH  11  12
ENDBRANCH   1  11
BRANCH   9  20
HETATM   20  C   UNL     1     -43.592 -46.976   9.765  1.00  0.00     0.011 A 
HETATM   21  C   UNL     1     -43.931 -47.551   8.405  1.00  0.00     0.007 A 
HETATM   22  C   UNL     1     -44.799 -46.479   8.996  1.00  0.00     0.007 A 
ENDBRANCH   9  20
TORSDOF 4
ENDMDL
MODEL 4
REMARK VINA RESULT:      -5.5      2.527      4.308
REMARK  4 active torsions:
REMARK  status: ('A' for Active; 'I' for Inactive)
REMARK    1  A    between atoms: C_5  and  C_6 
REMARK    2  A    between atoms: C_6  and  C_7 
REMARK    3  A    between atoms: C_7  and  N_8 
REMARK       I    between atoms: N_8  and  C_9 
REMARK       I    between atoms: C_9  and  N_11 
REMARK    4  A    between atoms: C_16  and  C_17 
ROOT
HETATM    1  N   UNL     1     -43.427 -50.473  12.621  1.00  0.00    -0.343 N 
HETATM    2  C   UNL     1     -42.908 -51.383  13.516  1.00  0.00     0.318 C 
HETATM    3  O   UNL     1     -42.009 -51.046  14.280  1.00  0.00    -0.247 OA
HETATM    4  N   UNL     1     -43.471 -52.647  13.467  1.00  0.00    -0.325 N 
HETATM    5  C   UNL     1     -44.735 -52.912  12.760  1.00  0.00     0.154 C 
HETATM    6  C   UNL     1     -45.628 -53.878  13.535  1.00  0.00     0.187 C 
HETATM    7  O   UNL     1     -44.935 -55.102  13.790  1.00  0.00    -0.387 OA
HETATM    8  C   UNL     1     -43.785 -54.844  14.610  1.00  0.00     0.193 C 
HETATM    9  C   UNL     1     -42.770 -53.895  13.918  1.00  0.00     0.116 C 
HETATM   10  H   UNL     1     -43.799 -50.850  11.764  1.00  0.00     0.164 HD
ENDROOT
BRANCH   1  11
HETATM   11  C   UNL     1     -42.868 -49.129  12.533  1.00  0.00     0.131 C 
BRANCH  11  12
HETATM   12  C   UNL     1     -41.958 -48.950  11.316  1.00  0.00     0.084 C 
BRANCH  12  13
HETATM   13  C   UNL     1     -40.511 -49.021  11.690  1.00  0.00     0.052 A 
HETATM   14  S   UNL     1     -39.952 -48.282  13.138  1.00  0.00    -0.087 SA
HETATM   15  C   UNL     1     -38.376 -48.866  12.812  1.00  0.00     0.076 A 
HETATM   16  C   UNL     1     -38.370 -49.577  11.629  1.00  0.00     0.012 A 
HETATM   17  C   UNL     1     -37.203 -50.258  11.011  1.00  0.00     0.068 C 
HETATM   18  N   UNL     1     -39.594 -49.649  10.985  1.00  0.00    -0.357 N 
ATOM     19  HN  UNL     1     -39.760 -50.121  10.095  1.00  0.00     0.166 HD
ENDBRANCH  12  13
ENDBRANCH  11  12
ENDBRANCH   1  11
BRANCH   9  20
HETATM   20  C   UNL     1     -41.489 -53.717  14.714  1.00  0.00     0.011 A 
HETATM   21  C   UNL     1     -40.157 -54.209  14.187  1.00  0.00     0.007 A 
HETATM   22  C   UNL     1     -40.758 -54.851  15.402  1.00  0.00     0.007 A 
ENDBRANCH   9  20
TORSDOF 4
ENDMDL
MODEL 5
REMARK VINA RESULT:      -5.5      2.947      6.377
REMARK  4 active torsions:
REMARK  status: ('A' for Active; 'I' for Inactive)
REMARK    1  A    between atoms: C_5  and  C_6 
REMARK    2  A    between atoms: C_6  and  C_7 
REMARK    3  A    between atoms: C_7  and  N_8 
REMARK       I    between atoms: N_8  and  C_9 
REMARK       I    between atoms: C_9  and  N_11 
REMARK    4  A    between atoms: C_16  and  C_17 
ROOT
HETATM    1  N   UNL     1     -42.401 -52.490  13.381  1.00  0.00    -0.343 N 
HETATM    2  C   UNL     1     -41.353 -51.951  12.668  1.00  0.00     0.318 C 
HETATM    3  O   UNL     1     -40.531 -52.690  12.135  1.00  0.00    -0.247 OA
HETATM    4  N   UNL     1     -41.321 -50.568  12.618  1.00  0.00    -0.325 N 
HETATM    5  C   UNL     1     -42.479 -49.746  13.004  1.00  0.00     0.154 C 
HETATM    6  C   UNL     1     -42.670 -48.557  12.067  1.00  0.00     0.187 C 
HETATM    7  O   UNL     1     -41.486 -47.758  12.025  1.00  0.00    -0.387 OA
HETATM    8  C   UNL     1     -40.399 -48.535  11.501  1.00  0.00     0.193 C 
HETATM    9  C   UNL     1     -40.073 -49.766  12.390  1.00  0.00     0.116 C 
HETATM   10  H   UNL     1     -42.766 -51.928  14.134  1.00  0.00     0.164 HD
ENDROOT
BRANCH   1  11
HETATM   11  C   UNL     1     -42.502 -53.934  13.561  1.00  0.00     0.131 C 
BRANCH  11  12
HETATM   12  C   UNL     1     -43.869 -54.365  14.096  1.00  0.00     0.084 C 
BRANCH  12  13
HETATM   13  C   UNL     1     -44.922 -53.340  13.817  1.00  0.00     0.052 A 
HETATM   14  S   UNL     1     -45.447 -52.275  15.059  1.00  0.00    -0.087 SA
HETATM   15  C   UNL     1     -46.487 -51.502  13.941  1.00  0.00     0.076 A 
HETATM   16  C   UNL     1     -46.378 -52.100  12.701  1.00  0.00     0.012 A 
HETATM   17  C   UNL     1     -47.099 -51.710  11.463  1.00  0.00     0.068 C 
HETATM   18  N   UNL     1     -45.489 -53.161  12.642  1.00  0.00    -0.357 N 
ATOM     19  HN  UNL     1     -45.302 -53.722  11.810  1.00  0.00     0.166 HD
ENDBRANCH  12  13
ENDBRANCH  11  12
ENDBRANCH   1  11
BRANCH   9  20
HETATM   20  C   UNL     1     -38.842 -50.524  11.923  1.00  0.00     0.011 A 
HETATM   21  C   UNL     1     -37.600 -50.619  12.785  1.00  0.00     0.007 A 
HETATM   22  C   UNL     1     -37.552 -49.855  11.495  1.00  0.00     0.007 A 
ENDBRANCH   9  20
TORSDOF 4
ENDMDL
MODEL 6
REMARK VINA RESULT:      -5.5      3.715      6.781
REMARK  4 active torsions:
REMARK  status: ('A' for Active; 'I' for Inactive)
REMARK    1  A    between atoms: C_5  and  C_6 
REMARK    2  A    between atoms: C_6  and  C_7 
REMARK    3  A    between atoms: C_7  and  N_8 
REMARK       I    between atoms: N_8  and  C_9 
REMARK       I    between atoms: C_9  and  N_11 
REMARK    4  A    between atoms: C_16  and  C_17 
ROOT
HETATM    1  N   UNL     1     -43.215 -53.864  12.727  1.00  0.00    -0.343 N 
HETATM    2  C   UNL     1     -42.529 -52.686  12.927  1.00  0.00     0.318 C 
HETATM    3  O   UNL     1     -43.145 -51.630  13.039  1.00  0.00    -0.247 OA
HETATM    4  N   UNL     1     -41.151 -52.806  12.982  1.00  0.00    -0.325 N 
HETATM    5  C   UNL     1     -40.487 -54.109  13.149  1.00  0.00     0.154 C 
HETATM    6  C   UNL     1     -39.294 -54.023  14.097  1.00  0.00     0.187 C 
HETATM    7  O   UNL     1     -38.360 -53.044  13.637  1.00  0.00    -0.387 OA
HETATM    8  C   UNL     1     -38.983 -51.751  13.626  1.00  0.00     0.193 C 
HETATM    9  C   UNL     1     -40.199 -51.691  12.663  1.00  0.00     0.116 C 
HETATM   10  H   UNL     1     -42.729 -54.583  12.216  1.00  0.00     0.164 HD
ENDROOT
BRANCH   1  11
HETATM   11  C   UNL     1     -44.667 -53.854  12.584  1.00  0.00     0.131 C 
BRANCH  11  12
HETATM   12  C   UNL     1     -45.370 -54.657  13.680  1.00  0.00     0.084 C 
BRANCH  12  13
HETATM   13  C   UNL     1     -45.661 -53.817  14.883  1.00  0.00     0.052 A 
HETATM   14  S   UNL     1     -44.597 -53.837  16.233  1.00  0.00    -0.087 SA
HETATM   15  C   UNL     1     -45.575 -52.665  17.006  1.00  0.00     0.076 A 
HETATM   16  C   UNL     1     -46.647 -52.336  16.200  1.00  0.00     0.012 A 
HETATM   17  C   UNL     1     -47.711 -51.345  16.502  1.00  0.00     0.068 C 
HETATM   18  N   UNL     1     -46.696 -53.010  14.991  1.00  0.00    -0.357 N 
ATOM     19  HN  UNL     1     -47.427 -52.898  14.288  1.00  0.00     0.166 HD
ENDBRANCH  12  13
ENDBRANCH  11  12
ENDBRANCH   1  11
BRANCH   9  20
HETATM   20  C   UNL     1     -40.787 -50.296  12.539  1.00  0.00     0.011 A 
HETATM   21  C   UNL     1     -40.789 -49.555  11.218  1.00  0.00     0.007 A 
HETATM   22  C   UNL     1     -39.956 -49.043  12.356  1.00  0.00     0.007 A 
ENDBRANCH   9  20
TORSDOF 4
ENDMDL
MODEL 7
REMARK VINA RESULT:      -5.4      1.848      2.373
REMARK  4 active torsions:
REMARK  status: ('A' for Active; 'I' for Inactive)
REMARK    1  A    between atoms: C_5  and  C_6 
REMARK    2  A    between atoms: C_6  and  C_7 
REMARK    3  A    between atoms: C_7  and  N_8 
REMARK       I    between atoms: N_8  and  C_9 
REMARK       I    between atoms: C_9  and  N_11 
REMARK    4  A    between atoms: C_16  and  C_17 
ROOT
HETATM    1  N   UNL     1     -39.111 -50.178  12.460  1.00  0.00    -0.343 N 
HETATM    2  C   UNL     1     -40.191 -51.008  12.258  1.00  0.00     0.318 C 
HETATM    3  O   UNL     1     -40.965 -50.792  11.330  1.00  0.00    -0.247 OA
HETATM    4  N   UNL     1     -40.310 -52.053  13.159  1.00  0.00    -0.325 N 
HETATM    5  C   UNL     1     -39.206 -52.445  14.050  1.00  0.00     0.154 C 
HETATM    6  C   UNL     1     -39.091 -53.962  14.179  1.00  0.00     0.187 C 
HETATM    7  O   UNL     1     -40.324 -54.519  14.640  1.00  0.00    -0.387 OA
HETATM    8  C   UNL     1     -41.360 -54.256  13.682  1.00  0.00     0.193 C 
HETATM    9  C   UNL     1     -41.607 -52.737  13.483  1.00  0.00     0.116 C 
HETATM   10  H   UNL     1     -38.782 -50.094  13.408  1.00  0.00     0.164 HD
ENDROOT
BRANCH   1  11
HETATM   11  C   UNL     1     -38.919 -49.004  11.615  1.00  0.00     0.131 C 
BRANCH  11  12
HETATM   12  C   UNL     1     -39.491 -47.731  12.241  1.00  0.00     0.084 C 
BRANCH  12  13
HETATM   13  C   UNL     1     -40.717 -47.262  11.522  1.00  0.00     0.052 A 
HETATM   14  S   UNL     1     -41.516 -45.824  12.018  1.00  0.00    -0.087 SA
HETATM   15  C   UNL     1     -42.632 -46.015  10.734  1.00  0.00     0.076 A 
HETATM   16  C   UNL     1     -42.334 -47.156  10.015  1.00  0.00     0.012 A 
HETATM   17  C   UNL     1     -43.052 -47.660   8.816  1.00  0.00     0.068 C 
HETATM   18  N   UNL     1     -41.244 -47.872  10.481  1.00  0.00    -0.357 N 
ATOM     19  HN  UNL     1     -40.900 -48.743  10.077  1.00  0.00     0.166 HD
ENDBRANCH  12  13
ENDBRANCH  11  12
ENDBRANCH   1  11
BRANCH   9  20
HETATM   20  C   UNL     1     -42.787 -52.443  12.574  1.00  0.00     0.011 A 
HETATM   21  C   UNL     1     -44.101 -51.930  13.127  1.00  0.00     0.007 A 
HETATM   22  C   UNL     1     -44.036 -53.297  12.511  1.00  0.00     0.007 A 
ENDBRANCH   9  20
TORSDOF 4
ENDMDL
MODEL 8
REMARK VINA RESULT:      -5.4      2.693      6.637
REMARK  4 active torsions:
REMARK  status: ('A' for Active; 'I' for Inactive)
REMARK    1  A    between atoms: C_5  and  C_6 
REMARK    2  A    between atoms: C_6  and  C_7 
REMARK    3  A    between atoms: C_7  and  N_8 
REMARK       I    between atoms: N_8  and  C_9 
REMARK       I    between atoms: C_9  and  N_11 
REMARK    4  A    between atoms: C_16  and  C_17 
ROOT
HETATM    1  N   UNL     1     -42.661 -49.750  11.817  1.00  0.00    -0.343 N 
HETATM    2  C   UNL     1     -41.885 -48.766  11.244  1.00  0.00     0.318 C 
HETATM    3  O   UNL     1     -40.664 -48.891  11.212  1.00  0.00    -0.247 OA
HETATM    4  N   UNL     1     -42.582 -47.683  10.738  1.00  0.00    -0.325 N 
HETATM    5  C   UNL     1     -44.038 -47.722  10.526  1.00  0.00     0.154 C 
HETATM    6  C   UNL     1     -44.442 -47.033   9.224  1.00  0.00     0.187 C 
HETATM    7  O   UNL     1     -43.972 -45.683   9.207  1.00  0.00    -0.387 OA
HETATM    8  C   UNL     1     -42.538 -45.671   9.262  1.00  0.00     0.193 C 
HETATM    9  C   UNL     1     -41.993 -46.313  10.565  1.00  0.00     0.116 C 
HETATM   10  H   UNL     1     -43.534 -49.452  12.221  1.00  0.00     0.164 HD
ENDROOT
BRANCH   1  11
HETATM   11  C   UNL     1     -42.034 -50.908  12.444  1.00  0.00     0.131 C 
BRANCH  11  12
HETATM   12  C   UNL     1     -42.670 -51.262  13.790  1.00  0.00     0.084 C 
BRANCH  12  13
HETATM   13  C   UNL     1     -44.155 -51.402  13.683  1.00  0.00     0.052 A 
HETATM   14  S   UNL     1     -45.148 -51.200  15.072  1.00  0.00    -0.087 SA
HETATM   15  C   UNL     1     -46.535 -51.440  14.099  1.00  0.00     0.076 A 
HETATM   16  C   UNL     1     -46.163 -51.663  12.789  1.00  0.00     0.012 A 
HETATM   17  C   UNL     1     -47.071 -51.895  11.637  1.00  0.00     0.068 C 
HETATM   18  N   UNL     1     -44.797 -51.653  12.561  1.00  0.00    -0.357 N 
ATOM     19  HN  UNL     1     -44.353 -51.817  11.657  1.00  0.00     0.166 HD
ENDBRANCH  12  13
ENDBRANCH  11  12
ENDBRANCH   1  11
BRANCH   9  20
HETATM   20  C   UNL     1     -40.485 -46.189  10.700  1.00  0.00     0.011 A 
HETATM   21  C   UNL     1     -39.855 -45.449  11.862  1.00  0.00     0.007 A 
HETATM   22  C   UNL     1     -39.721 -44.902  10.472  1.00  0.00     0.007 A 
ENDBRANCH   9  20
TORSDOF 4
ENDMDL
MODEL 9
REMARK VINA RESULT:      -5.3      2.463      6.242
REMARK  4 active torsions:
REMARK  status: ('A' for Active; 'I' for Inactive)
REMARK    1  A    between atoms: C_5  and  C_6 
REMARK    2  A    between atoms: C_6  and  C_7 
REMARK    3  A    between atoms: C_7  and  N_8 
REMARK       I    between atoms: N_8  and  C_9 
REMARK       I    between atoms: C_9  and  N_11 
REMARK    4  A    between atoms: C_16  and  C_17 
ROOT
HETATM    1  N   UNL     1     -41.154 -49.725  12.076  1.00  0.00    -0.343 N 
HETATM    2  C   UNL     1     -41.969 -48.709  11.630  1.00  0.00     0.318 C 
HETATM    3  O   UNL     1     -43.178 -48.895  11.522  1.00  0.00    -0.247 OA
HETATM    4  N   UNL     1     -41.323 -47.522  11.329  1.00  0.00    -0.325 N 
HETATM    5  C   UNL     1     -39.942 -47.254  11.762  1.00  0.00     0.154 C 
HETATM    6  C   UNL     1     -39.763 -45.812  12.232  1.00  0.00     0.187 C 
HETATM    7  O   UNL     1     -40.147 -44.899  11.201  1.00  0.00    -0.387 OA
HETATM    8  C   UNL     1     -41.540 -45.072  10.899  1.00  0.00     0.193 C 
HETATM    9  C   UNL     1     -41.855 -46.498  10.369  1.00  0.00     0.116 C 
HETATM   10  H   UNL     1     -40.203 -49.714  11.746  1.00  0.00     0.164 HD
ENDROOT
BRANCH   1  11
HETATM   11  C   UNL     1     -41.712 -51.043  12.359  1.00  0.00     0.131 C 
BRANCH  11  12
HETATM   12  C   UNL     1     -42.267 -51.153  13.781  1.00  0.00     0.084 C 
BRANCH  12  13
HETATM   13  C   UNL     1     -43.756 -51.289  13.786  1.00  0.00     0.052 A 
HETATM   14  S   UNL     1     -44.640 -51.094  15.248  1.00  0.00    -0.087 SA
HETATM   15  C   UNL     1     -46.098 -51.326  14.382  1.00  0.00     0.076 A 
HETATM   16  C   UNL     1     -45.827 -51.541  13.046  1.00  0.00     0.012 A 
HETATM   17  C   UNL     1     -46.821 -51.764  11.965  1.00  0.00     0.068 C 
HETATM   18  N   UNL     1     -44.482 -51.532  12.715  1.00  0.00    -0.357 N 
ATOM     19  HN  UNL     1     -44.109 -51.691  11.778  1.00  0.00     0.166 HD
ENDBRANCH  12  13
ENDBRANCH  11  12
ENDBRANCH   1  11
BRANCH   9  20
HETATM   20  C   UNL     1     -43.297 -46.656   9.920  1.00  0.00     0.011 A 
HETATM   21  C   UNL     1     -43.641 -47.094   8.511  1.00  0.00     0.007 A 
HETATM   22  C   UNL     1     -43.993 -45.708   8.966  1.00  0.00     0.007 A 
ENDBRANCH   9  20
TORSDOF 4
ENDMDL
