MODEL 1
REMARK VINA RESULT:      -5.8      0.000      0.000
REMARK  7 active torsions:
REMARK  status: ('A' for Active; 'I' for Inactive)
REMARK    1  A    between atoms: C_2  and  N_3 
REMARK    2  A    between atoms: C_2  and  C_13 
REMARK    3  A    between atoms: N_3  and  C_4 
REMARK    4  A    between atoms: C_4  and  C_5 
REMARK    5  A    between atoms: C_5  and  C_6 
REMARK    6  A    between atoms: C_6  and  N_7 
REMARK    7  A    between atoms: C_13  and  N_15 
ROOT
HETATM    1  C   UNL     1     -39.168 -49.968  11.977  1.00  0.00     0.045 C 
HETATM    2  C   UNL     1     -40.537 -49.990  11.277  1.00  0.00     0.240 C 
ENDROOT
BRANCH   2   3
HETATM    3  N   UNL     1     -41.180 -51.328  11.381  1.00  0.00     0.089 N 
HETATM    4  H   UNL     1     -40.457 -52.024  11.573  1.00  0.00     0.316 HD
BRANCH   3   5
HETATM    5  C   UNL     1     -42.202 -51.411  12.427  1.00  0.00     0.272 C 
BRANCH   5   6
HETATM    6  C   UNL     1     -42.397 -52.860  12.893  1.00  0.00     0.050 C 
BRANCH   6   7
HETATM    7  C   UNL     1     -43.796 -53.331  12.498  1.00  0.00     0.127 C 
BRANCH   7   8
HETATM    8  N   UNL     1     -44.864 -52.892  13.378  1.00  0.00    -0.352 N 
HETATM    9  C   UNL     1     -44.592 -52.344  14.685  1.00  0.00     0.126 C 
HETATM   10  C   UNL     1     -45.902 -51.723  15.132  1.00  0.00     0.029 C 
HETATM   11  C   UNL     1     -46.675 -51.463  13.852  1.00  0.00     0.104 C 
HETATM   12  C   UNL     1     -46.027 -52.358  12.831  1.00  0.00     0.219 C 
HETATM   13  O   UNL     1     -46.425 -52.507  11.685  1.00  0.00    -0.273 OA
ENDBRANCH   7   8
ENDBRANCH   6   7
ENDBRANCH   5   6
ENDBRANCH   3   5
ENDBRANCH   2   3
BRANCH   2  14
HETATM   14  C   UNL     1     -41.503 -48.893  11.834  1.00  0.00     0.136 C 
HETATM   15  C   UNL     1     -40.801 -47.804  12.658  1.00  0.00     0.036 C 
BRANCH  14  16
HETATM   16  N   UNL     1     -42.357 -48.328  10.788  1.00  0.00    -0.297 N 
HETATM   17  C   UNL     1     -43.621 -47.814  10.918  1.00  0.00     0.118 A 
HETATM   18  C   UNL     1     -44.016 -47.409   9.661  1.00  0.00    -0.028 A 
HETATM   19  C   UNL     1     -45.296 -46.780   9.272  1.00  0.00     0.051 C 
HETATM   20  C   UNL     1     -42.917 -47.739   8.837  1.00  0.00     0.115 A 
HETATM   21  N   UNL     1     -41.908 -48.286   9.517  1.00  0.00    -0.309 N 
ATOM     22  HN  UNL     1     -41.006 -48.599   9.158  1.00  0.00     0.186 HD
ENDBRANCH  14  16
ENDBRANCH   2  14
TORSDOF 7
ENDMDL
MODEL 2
REMARK VINA RESULT:      -5.7      2.405      3.214
REMARK  7 active torsions:
REMARK  status: ('A' for Active; 'I' for Inactive)
REMARK    1  A    between atoms: C_2  and  N_3 
REMARK    2  A    between atoms: C_2  and  C_13 
REMARK    3  A    between atoms: N_3  and  C_4 
REMARK    4  A    between atoms: C_4  and  C_5 
REMARK    5  A    between atoms: C_5  and  C_6 
REMARK    6  A    between atoms: C_6  and  N_7 
REMARK    7  A    between atoms: C_13  and  N_15 
ROOT
HETATM    1  C   UNL     1     -43.078 -48.772  12.679  1.00  0.00     0.045 C 
HETATM    2  C   UNL     1     -41.873 -48.704  11.725  1.00  0.00     0.240 C 
ENDROOT
BRANCH   2   3
HETATM    3  N   UNL     1     -41.495 -50.056  11.228  1.00  0.00     0.089 N 
HETATM    4  H   UNL     1     -40.827 -49.948  10.463  1.00  0.00     0.316 HD
BRANCH   3   5
HETATM    5  C   UNL     1     -40.899 -50.914  12.255  1.00  0.00     0.272 C 
BRANCH   5   6
HETATM    6  C   UNL     1     -41.226 -52.391  11.996  1.00  0.00     0.050 C 
BRANCH   6   7
HETATM    7  C   UNL     1     -42.722 -52.621  12.214  1.00  0.00     0.127 C 
BRANCH   7   8
HETATM    8  N   UNL     1     -43.053 -53.780  13.023  1.00  0.00    -0.352 N 
HETATM    9  C   UNL     1     -42.265 -54.154  14.172  1.00  0.00     0.126 C 
HETATM   10  C   UNL     1     -43.103 -55.182  14.907  1.00  0.00     0.029 C 
HETATM   11  C   UNL     1     -44.529 -54.929  14.454  1.00  0.00     0.104 C 
HETATM   12  C   UNL     1     -44.386 -54.151  13.173  1.00  0.00     0.219 C 
HETATM   13  O   UNL     1     -45.315 -53.833  12.446  1.00  0.00    -0.273 OA
ENDBRANCH   7   8
ENDBRANCH   6   7
ENDBRANCH   5   6
ENDBRANCH   3   5
ENDBRANCH   2   3
BRANCH   2  14
HETATM   14  C   UNL     1     -42.131 -47.748  10.514  1.00  0.00     0.136 C 
HETATM   15  C   UNL     1     -43.619 -47.519  10.207  1.00  0.00     0.036 C 
BRANCH  14  16
HETATM   16  N   UNL     1     -41.394 -46.490  10.639  1.00  0.00    -0.297 N 
HETATM   17  C   UNL     1     -41.891 -45.250  10.948  1.00  0.00     0.118 A 
HETATM   18  C   UNL     1     -40.821 -44.381  10.944  1.00  0.00    -0.028 A 
HETATM   19  C   UNL     1     -40.829 -42.930  11.226  1.00  0.00     0.051 C 
HETATM   20  C   UNL     1     -39.721 -45.200  10.605  1.00  0.00     0.115 A 
HETATM   21  N   UNL     1     -40.062 -46.478  10.430  1.00  0.00    -0.309 N 
ATOM     22  HN  UNL     1     -39.456 -47.263  10.194  1.00  0.00     0.186 HD
ENDBRANCH  14  16
ENDBRANCH   2  14
TORSDOF 7
ENDMDL
MODEL 3
REMARK VINA RESULT:      -5.7      1.771      2.453
REMARK  7 active torsions:
REMARK  status: ('A' for Active; 'I' for Inactive)
REMARK    1  A    between atoms: C_2  and  N_3 
REMARK    2  A    between atoms: C_2  and  C_13 
REMARK    3  A    between atoms: N_3  and  C_4 
REMARK    4  A    between atoms: C_4  and  C_5 
REMARK    5  A    between atoms: C_5  and  C_6 
REMARK    6  A    between atoms: C_6  and  N_7 
REMARK    7  A    between atoms: C_13  and  N_15 
ROOT
HETATM    1  C   UNL     1     -39.767 -51.712  13.028  1.00  0.00     0.045 C 
HETATM    2  C   UNL     1     -40.923 -51.552  12.026  1.00  0.00     0.240 C 
ENDROOT
BRANCH   2   3
HETATM    3  N   UNL     1     -41.655 -52.833  11.831  1.00  0.00     0.089 N 
HETATM    4  H   UNL     1     -41.423 -53.204  10.907  1.00  0.00     0.316 HD
BRANCH   3   5
HETATM    5  C   UNL     1     -41.341 -53.850  12.838  1.00  0.00     0.272 C 
BRANCH   5   6
HETATM    6  C   UNL     1     -42.559 -54.145  13.722  1.00  0.00     0.050 C 
BRANCH   6   7
HETATM    7  C   UNL     1     -43.834 -53.782  12.959  1.00  0.00     0.127 C 
BRANCH   7   8
HETATM    8  N   UNL     1     -44.818 -53.041  13.727  1.00  0.00    -0.352 N 
HETATM    9  C   UNL     1     -45.306 -51.754  13.295  1.00  0.00     0.126 C 
HETATM   10  C   UNL     1     -46.518 -51.479  14.164  1.00  0.00     0.029 C 
HETATM   11  C   UNL     1     -46.978 -52.843  14.646  1.00  0.00     0.104 C 
HETATM   12  C   UNL     1     -45.780 -53.734  14.457  1.00  0.00     0.219 C 
HETATM   13  O   UNL     1     -45.718 -54.900  14.816  1.00  0.00    -0.273 OA
ENDBRANCH   7   8
ENDBRANCH   6   7
ENDBRANCH   5   6
ENDBRANCH   3   5
ENDBRANCH   2   3
BRANCH   2  14
HETATM   14  C   UNL     1     -41.925 -50.430  12.454  1.00  0.00     0.136 C 
HETATM   15  C   UNL     1     -42.020 -50.224  13.974  1.00  0.00     0.036 C 
BRANCH  14  16
HETATM   16  N   UNL     1     -41.682 -49.174  11.743  1.00  0.00    -0.297 N 
HETATM   17  C   UNL     1     -40.626 -48.312  11.892  1.00  0.00     0.118 A 
HETATM   18  C   UNL     1     -40.837 -47.270  11.014  1.00  0.00    -0.028 A 
HETATM   19  C   UNL     1     -39.979 -46.089  10.786  1.00  0.00     0.051 C 
HETATM   20  C   UNL     1     -42.061 -47.596  10.389  1.00  0.00     0.115 A 
HETATM   21  N   UNL     1     -42.570 -48.752  10.820  1.00  0.00    -0.309 N 
ATOM     22  HN  UNL     1     -43.431 -49.210  10.521  1.00  0.00     0.186 HD
ENDBRANCH  14  16
ENDBRANCH   2  14
TORSDOF 7
ENDMDL
MODEL 4
REMARK VINA RESULT:      -5.7      2.401      2.784
REMARK  7 active torsions:
REMARK  status: ('A' for Active; 'I' for Inactive)
REMARK    1  A    between atoms: C_2  and  N_3 
REMARK    2  A    between atoms: C_2  and  C_13 
REMARK    3  A    between atoms: N_3  and  C_4 
REMARK    4  A    between atoms: C_4  and  C_5 
REMARK    5  A    between atoms: C_5  and  C_6 
REMARK    6  A    between atoms: C_6  and  N_7 
REMARK    7  A    between atoms: C_13  and  N_15 
ROOT
HETATM    1  C   UNL     1     -39.341 -48.601  11.836  1.00  0.00     0.045 C 
HETATM    2  C   UNL     1     -40.593 -49.015  11.043  1.00  0.00     0.240 C 
ENDROOT
BRANCH   2   3
HETATM    3  N   UNL     1     -40.757 -50.494  11.018  1.00  0.00     0.089 N 
HETATM    4  H   UNL     1     -39.850 -50.920  10.820  1.00  0.00     0.316 HD
BRANCH   3   5
HETATM    5  C   UNL     1     -41.274 -51.051  12.270  1.00  0.00     0.272 C 
BRANCH   5   6
HETATM    6  C   UNL     1     -40.314 -52.100  12.845  1.00  0.00     0.050 C 
BRANCH   6   7
HETATM    7  C   UNL     1     -40.924 -53.491  12.669  1.00  0.00     0.127 C 
BRANCH   7   8
HETATM    8  N   UNL     1     -42.033 -53.791  13.556  1.00  0.00    -0.352 N 
HETATM    9  C   UNL     1     -43.368 -54.010  13.054  1.00  0.00     0.126 C 
HETATM   10  C   UNL     1     -44.136 -54.601  14.221  1.00  0.00     0.029 C 
HETATM   11  C   UNL     1     -43.078 -55.195  15.133  1.00  0.00     0.104 C 
HETATM   12  C   UNL     1     -41.800 -54.511  14.724  1.00  0.00     0.219 C 
HETATM   13  O   UNL     1     -40.726 -54.651  15.288  1.00  0.00    -0.273 OA
ENDBRANCH   7   8
ENDBRANCH   6   7
ENDBRANCH   5   6
ENDBRANCH   3   5
ENDBRANCH   2   3
BRANCH   2  14
HETATM   14  C   UNL     1     -41.893 -48.347  11.600  1.00  0.00     0.136 C 
HETATM   15  C   UNL     1     -41.631 -47.184  12.569  1.00  0.00     0.036 C 
BRANCH  14  16
HETATM   16  N   UNL     1     -42.822 -47.975  10.532  1.00  0.00    -0.297 N 
HETATM   17  C   UNL     1     -44.135 -47.599  10.650  1.00  0.00     0.118 A 
HETATM   18  C   UNL     1     -44.594 -47.352   9.374  1.00  0.00    -0.028 A 
HETATM   19  C   UNL     1     -45.943 -46.908   8.966  1.00  0.00     0.051 C 
HETATM   20  C   UNL     1     -43.477 -47.623   8.554  1.00  0.00     0.115 A 
HETATM   21  N   UNL     1     -42.400 -47.990   9.251  1.00  0.00    -0.309 N 
ATOM     22  HN  UNL     1     -41.473 -48.228   8.897  1.00  0.00     0.186 HD
ENDBRANCH  14  16
ENDBRANCH   2  14
TORSDOF 7
ENDMDL
MODEL 5
REMARK VINA RESULT:      -5.6      3.563      6.430
REMARK  7 active torsions:
REMARK  status: ('A' for Active; 'I' for Inactive)
REMARK    1  A    between atoms: C_2  and  N_3 
REMARK    2  A    between atoms: C_2  and  C_13 
REMARK    3  A    between atoms: N_3  and  C_4 
REMARK    4  A    between atoms: C_4  and  C_5 
REMARK    5  A    between atoms: C_5  and  C_6 
REMARK    6  A    between atoms: C_6  and  N_7 
REMARK    7  A    between atoms: C_13  and  N_15 
ROOT
HETATM    1  C   UNL     1     -38.273 -48.067  13.876  1.00  0.00     0.045 C 
HETATM    2  C   UNL     1     -39.581 -48.637  13.300  1.00  0.00     0.240 C 
ENDROOT
BRANCH   2   3
HETATM    3  N   UNL     1     -40.529 -47.552  12.926  1.00  0.00     0.089 N 
HETATM    4  H   UNL     1     -40.992 -47.217  13.773  1.00  0.00     0.316 HD
BRANCH   3   5
HETATM    5  C   UNL     1     -39.890 -46.416  12.258  1.00  0.00     0.272 C 
BRANCH   5   6
HETATM    6  C   UNL     1     -40.300 -46.343  10.782  1.00  0.00     0.050 C 
BRANCH   6   7
HETATM    7  C   UNL     1     -41.605 -45.557  10.660  1.00  0.00     0.127 C 
BRANCH   7   8
HETATM    8  N   UNL     1     -42.559 -46.094   9.707  1.00  0.00    -0.352 N 
HETATM    9  C   UNL     1     -42.844 -47.506   9.633  1.00  0.00     0.126 C 
HETATM   10  C   UNL     1     -44.089 -47.612   8.772  1.00  0.00     0.029 C 
HETATM   11  C   UNL     1     -44.754 -46.251   8.867  1.00  0.00     0.104 C 
HETATM   12  C   UNL     1     -43.661 -45.329   9.335  1.00  0.00     0.219 C 
HETATM   13  O   UNL     1     -43.775 -44.117   9.447  1.00  0.00    -0.273 OA
ENDBRANCH   7   8
ENDBRANCH   6   7
ENDBRANCH   5   6
ENDBRANCH   3   5
ENDBRANCH   2   3
BRANCH   2  14
HETATM   14  C   UNL     1     -39.328 -49.567  12.069  1.00  0.00     0.136 C 
HETATM   15  C   UNL     1     -37.846 -49.703  11.684  1.00  0.00     0.036 C 
BRANCH  14  16
HETATM   16  N   UNL     1     -39.979 -50.869  12.218  1.00  0.00    -0.297 N 
HETATM   17  C   UNL     1     -39.732 -51.832  13.163  1.00  0.00     0.118 A 
HETATM   18  C   UNL     1     -40.587 -52.879  12.896  1.00  0.00    -0.028 A 
HETATM   19  C   UNL     1     -40.718 -54.153  13.634  1.00  0.00     0.051 C 
HETATM   20  C   UNL     1     -41.302 -52.451  11.755  1.00  0.00     0.115 A 
HETATM   21  N   UNL     1     -40.944 -51.232  11.349  1.00  0.00    -0.309 N 
ATOM     22  HN  UNL     1     -41.315 -50.698  10.563  1.00  0.00     0.186 HD
ENDBRANCH  14  16
ENDBRANCH   2  14
TORSDOF 7
ENDMDL
MODEL 6
REMARK VINA RESULT:      -5.5      3.045      4.418
REMARK  7 active torsions:
REMARK  status: ('A' for Active; 'I' for Inactive)
REMARK    1  A    between atoms: C_2  and  N_3 
REMARK    2  A    between atoms: C_2  and  C_13 
REMARK    3  A    between atoms: N_3  and  C_4 
REMARK    4  A    between atoms: C_4  and  C_5 
REMARK    5  A    between atoms: C_5  and  C_6 
REMARK    6  A    between atoms: C_6  and  N_7 
REMARK    7  A    between atoms: C_13  and  N_15 
ROOT
HETATM    1  C   UNL     1     -42.870 -51.664  15.641  1.00  0.00     0.045 C 
HETATM    2  C   UNL     1     -41.707 -52.333  14.888  1.00  0.00     0.240 C 
ENDROOT
BRANCH   2   3
HETATM    3  N   UNL     1     -41.849 -53.815  14.872  1.00  0.00     0.089 N 
HETATM    4  H   UNL     1     -42.086 -54.130  15.815  1.00  0.00     0.316 HD
BRANCH   3   5
HETATM    5  C   UNL     1     -42.874 -54.298  13.944  1.00  0.00     0.272 C 
BRANCH   5   6
HETATM    6  C   UNL     1     -44.005 -55.011  14.695  1.00  0.00     0.050 C 
BRANCH   6   7
HETATM    7  C   UNL     1     -45.291 -54.919  13.873  1.00  0.00     0.127 C 
BRANCH   7   8
HETATM    8  N   UNL     1     -46.090 -53.732  14.115  1.00  0.00    -0.352 N 
HETATM    9  C   UNL     1     -46.285 -53.207  15.445  1.00  0.00     0.126 C 
HETATM   10  C   UNL     1     -46.879 -51.826  15.240  1.00  0.00     0.029 C 
HETATM   11  C   UNL     1     -46.476 -51.425  13.832  1.00  0.00     0.104 C 
HETATM   12  C   UNL     1     -46.127 -52.724  13.156  1.00  0.00     0.219 C 
HETATM   13  O   UNL     1     -45.839 -52.835  11.974  1.00  0.00    -0.273 OA
ENDBRANCH   7   8
ENDBRANCH   6   7
ENDBRANCH   5   6
ENDBRANCH   3   5
ENDBRANCH   2   3
BRANCH   2  14
HETATM   14  C   UNL     1     -41.565 -51.799  13.425  1.00  0.00     0.136 C 
HETATM   15  C   UNL     1     -42.589 -50.714  13.055  1.00  0.00     0.036 C 
BRANCH  14  16
HETATM   16  N   UNL     1     -40.194 -51.388  13.119  1.00  0.00    -0.297 N 
HETATM   17  C   UNL     1     -39.749 -50.681  12.032  1.00  0.00     0.118 A 
HETATM   18  C   UNL     1     -38.386 -50.542  12.180  1.00  0.00    -0.028 A 
HETATM   19  C   UNL     1     -37.442 -49.849  11.278  1.00  0.00     0.051 C 
HETATM   20  C   UNL     1     -38.105 -51.218  13.388  1.00  0.00     0.115 A 
HETATM   21  N   UNL     1     -39.198 -51.722  13.964  1.00  0.00    -0.309 N 
ATOM     22  HN  UNL     1     -39.264 -52.240  14.841  1.00  0.00     0.186 HD
ENDBRANCH  14  16
ENDBRANCH   2  14
TORSDOF 7
ENDMDL
MODEL 7
REMARK VINA RESULT:      -5.5      2.384      3.064
REMARK  7 active torsions:
REMARK  status: ('A' for Active; 'I' for Inactive)
REMARK    1  A    between atoms: C_2  and  N_3 
REMARK    2  A    between atoms: C_2  and  C_13 
REMARK    3  A    between atoms: N_3  and  C_4 
REMARK    4  A    between atoms: C_4  and  C_5 
REMARK    5  A    between atoms: C_5  and  C_6 
REMARK    6  A    between atoms: C_6  and  N_7 
REMARK    7  A    between atoms: C_13  and  N_15 
ROOT
HETATM    1  C   UNL     1     -43.122 -48.500  12.531  1.00  0.00     0.045 C 
HETATM    2  C   UNL     1     -41.852 -48.617  11.670  1.00  0.00     0.240 C 
ENDROOT
BRANCH   2   3
HETATM    3  N   UNL     1     -41.581 -50.031  11.290  1.00  0.00     0.089 N 
HETATM    4  H   UNL     1     -40.701 -50.066  10.772  1.00  0.00     0.316 HD
BRANCH   3   5
HETATM    5  C   UNL     1     -41.490 -50.940  12.434  1.00  0.00     0.272 C 
BRANCH   5   6
HETATM    6  C   UNL     1     -42.029 -52.331  12.076  1.00  0.00     0.050 C 
BRANCH   6   7
HETATM    7  C   UNL     1     -42.976 -52.804  13.178  1.00  0.00     0.127 C 
BRANCH   7   8
HETATM    8  N   UNL     1     -44.259 -52.125  13.218  1.00  0.00    -0.352 N 
HETATM    9  C   UNL     1     -45.418 -52.652  12.541  1.00  0.00     0.126 C 
HETATM   10  C   UNL     1     -46.589 -51.855  13.084  1.00  0.00     0.029 C 
HETATM   11  C   UNL     1     -46.115 -51.315  14.421  1.00  0.00     0.104 C 
HETATM   12  C   UNL     1     -44.614 -51.399  14.352  1.00  0.00     0.219 C 
HETATM   13  O   UNL     1     -43.854 -50.970  15.207  1.00  0.00    -0.273 OA
ENDBRANCH   7   8
ENDBRANCH   6   7
ENDBRANCH   5   6
ENDBRANCH   3   5
ENDBRANCH   2   3
BRANCH   2  14
HETATM   14  C   UNL     1     -41.926 -47.728  10.385  1.00  0.00     0.136 C 
HETATM   15  C   UNL     1     -43.344 -47.570   9.816  1.00  0.00     0.036 C 
BRANCH  14  16
HETATM   16  N   UNL     1     -41.260 -46.438  10.570  1.00  0.00    -0.297 N 
HETATM   17  C   UNL     1     -41.827 -45.239  10.919  1.00  0.00     0.118 A 
HETATM   18  C   UNL     1     -40.805 -44.315  10.964  1.00  0.00    -0.028 A 
HETATM   19  C   UNL     1     -40.896 -42.879  11.302  1.00  0.00     0.051 C 
HETATM   20  C   UNL     1     -39.658 -45.059  10.610  1.00  0.00     0.115 A 
HETATM   21  N   UNL     1     -39.928 -46.346  10.381  1.00  0.00    -0.309 N 
ATOM     22  HN  UNL     1     -39.277 -47.088  10.123  1.00  0.00     0.186 HD
ENDBRANCH  14  16
ENDBRANCH   2  14
TORSDOF 7
ENDMDL
MODEL 8
REMARK VINA RESULT:      -5.5      2.225      4.186
REMARK  7 active torsions:
REMARK  status: ('A' for Active; 'I' for Inactive)
REMARK    1  A    between atoms: C_2  and  N_3 
REMARK    2  A    between atoms: C_2  and  C_13 
REMARK    3  A    between atoms: N_3  and  C_4 
REMARK    4  A    between atoms: C_4  and  C_5 
REMARK    5  A    between atoms: C_5  and  C_6 
REMARK    6  A    between atoms: C_6  and  N_7 
REMARK    7  A    between atoms: C_13  and  N_15 
ROOT
HETATM    1  C   UNL     1     -43.109 -47.271  11.656  1.00  0.00     0.045 C 
HETATM    2  C   UNL     1     -42.049 -48.326  12.019  1.00  0.00     0.240 C 
ENDROOT
BRANCH   2   3
HETATM    3  N   UNL     1     -42.549 -49.706  11.774  1.00  0.00     0.089 N 
HETATM    4  H   UNL     1     -41.871 -50.200  11.191  1.00  0.00     0.316 HD
BRANCH   3   5
HETATM    5  C   UNL     1     -42.768 -50.479  12.998  1.00  0.00     0.272 C 
BRANCH   5   6
HETATM    6  C   UNL     1     -41.730 -51.600  13.136  1.00  0.00     0.050 C 
BRANCH   6   7
HETATM    7  C   UNL     1     -42.188 -52.813  12.325  1.00  0.00     0.127 C 
BRANCH   7   8
HETATM    8  N   UNL     1     -42.732 -53.905  13.110  1.00  0.00    -0.352 N 
HETATM    9  C   UNL     1     -42.121 -54.330  14.347  1.00  0.00     0.126 C 
HETATM   10  C   UNL     1     -43.144 -55.240  15.000  1.00  0.00     0.029 C 
HETATM   11  C   UNL     1     -44.475 -54.846  14.385  1.00  0.00     0.104 C 
HETATM   12  C   UNL     1     -44.107 -54.125  13.117  1.00  0.00     0.219 C 
HETATM   13  O   UNL     1     -44.909 -53.729  12.285  1.00  0.00    -0.273 OA
ENDBRANCH   7   8
ENDBRANCH   6   7
ENDBRANCH   5   6
ENDBRANCH   3   5
ENDBRANCH   2   3
BRANCH   2  14
HETATM   14  C   UNL     1     -40.707 -48.104  11.248  1.00  0.00     0.136 C 
HETATM   15  C   UNL     1     -40.324 -46.626  11.074  1.00  0.00     0.036 C 
BRANCH  14  16
HETATM   16  N   UNL     1     -39.611 -48.893  11.812  1.00  0.00    -0.297 N 
HETATM   17  C   UNL     1     -39.136 -48.878  13.098  1.00  0.00     0.118 A 
HETATM   18  C   UNL     1     -38.098 -49.783  13.150  1.00  0.00    -0.028 A 
HETATM   19  C   UNL     1     -37.264 -50.141  14.316  1.00  0.00     0.051 C 
HETATM   20  C   UNL     1     -38.018 -50.282  11.831  1.00  0.00     0.115 A 
HETATM   21  N   UNL     1     -38.938 -49.754  11.022  1.00  0.00    -0.309 N 
ATOM     22  HN  UNL     1     -39.096 -49.954  10.034  1.00  0.00     0.186 HD
ENDBRANCH  14  16
ENDBRANCH   2  14
TORSDOF 7
ENDMDL
MODEL 9
REMARK VINA RESULT:      -5.5      2.631      3.422
REMARK  7 active torsions:
REMARK  status: ('A' for Active; 'I' for Inactive)
REMARK    1  A    between atoms: C_2  and  N_3 
REMARK    2  A    between atoms: C_2  and  C_13 
REMARK    3  A    between atoms: N_3  and  C_4 
REMARK    4  A    between atoms: C_4  and  C_5 
REMARK    5  A    between atoms: C_5  and  C_6 
REMARK    6  A    between atoms: C_6  and  N_7 
REMARK    7  A    between atoms: C_13  and  N_15 
ROOT
HETATM    1  C   UNL     1     -39.588 -48.867  11.704  1.00  0.00     0.045 C 
HETATM    2  C   UNL     1     -40.941 -48.953  10.976  1.00  0.00     0.240 C 
ENDROOT
BRANCH   2   3
HETATM    3  N   UNL     1     -41.798 -50.029  11.546  1.00  0.00     0.089 N 
HETATM    4  H   UNL     1     -42.444 -50.349  10.822  1.00  0.00     0.316 HD
BRANCH   3   5
HETATM    5  C   UNL     1     -41.042 -51.181  12.044  1.00  0.00     0.272 C 
BRANCH   5   6
HETATM    6  C   UNL     1     -41.899 -52.035  12.987  1.00  0.00     0.050 C 
BRANCH   6   7
HETATM    7  C   UNL     1     -41.717 -53.512  12.635  1.00  0.00     0.127 C 
BRANCH   7   8
HETATM    8  N   UNL     1     -41.010 -54.297  13.630  1.00  0.00    -0.352 N 
HETATM    9  C   UNL     1     -39.598 -54.126  13.870  1.00  0.00     0.126 C 
HETATM   10  C   UNL     1     -39.325 -54.867  15.165  1.00  0.00     0.029 C 
HETATM   11  C   UNL     1     -40.667 -54.943  15.869  1.00  0.00     0.104 C 
HETATM   12  C   UNL     1     -41.679 -54.706  14.781  1.00  0.00     0.219 C 
HETATM   13  O   UNL     1     -42.890 -54.780  14.929  1.00  0.00    -0.273 OA
ENDBRANCH   7   8
ENDBRANCH   6   7
ENDBRANCH   5   6
ENDBRANCH   3   5
ENDBRANCH   2   3
BRANCH   2  14
HETATM   14  C   UNL     1     -41.712 -47.593  10.999  1.00  0.00     0.136 C 
HETATM   15  C   UNL     1     -40.812 -46.362  10.811  1.00  0.00     0.036 C 
BRANCH  14  16
HETATM   16  N   UNL     1     -42.850 -47.589  10.079  1.00  0.00    -0.297 N 
HETATM   17  C   UNL     1     -44.169 -47.361  10.371  1.00  0.00     0.118 A 
HETATM   18  C   UNL     1     -44.863 -47.467   9.185  1.00  0.00    -0.028 A 
HETATM   19  C   UNL     1     -46.315 -47.297   8.965  1.00  0.00     0.051 C 
HETATM   20  C   UNL     1     -43.865 -47.777   8.235  1.00  0.00     0.115 A 
HETATM   21  N   UNL     1     -42.645 -47.842   8.770  1.00  0.00    -0.309 N 
ATOM     22  HN  UNL     1     -41.761 -48.037   8.298  1.00  0.00     0.186 HD
ENDBRANCH  14  16
ENDBRANCH   2  14
TORSDOF 7
ENDMDL
