MODEL 1
REMARK VINA RESULT:      -5.7      0.000      0.000
REMARK  4 active torsions:
REMARK  status: ('A' for Active; 'I' for Inactive)
REMARK       I    between atoms: C_2  and  N_3 
REMARK       I    between atoms: C_2  and  N_11 
REMARK    1  A    between atoms: N_3  and  C_4 
REMARK    2  A    between atoms: C_4  and  C_5 
REMARK    3  A    between atoms: C_5  and  N_6 
REMARK    4  A    between atoms: N_11  and  C_12 
ROOT
HETATM    1  O   UNL     1     -40.367 -52.720  12.084  1.00  0.00    -0.247 OA
HETATM    2  C   UNL     1     -41.532 -52.341  12.094  1.00  0.00     0.320 C 
HETATM    3  N   UNL     1     -42.504 -53.276  12.291  1.00  0.00    -0.341 N 
HETATM    4  N   UNL     1     -41.978 -51.057  11.933  1.00  0.00    -0.309 N 
HETATM    5  H   UNL     1     -42.120 -54.206  12.411  1.00  0.00     0.164 HD
HETATM    6  H   UNL     1     -42.973 -50.916  11.991  1.00  0.00     0.170 HD
ENDROOT
BRANCH   3   7
HETATM    7  C   UNL     1     -43.945 -53.120  12.339  1.00  0.00     0.154 C 
BRANCH   7   8
HETATM    8  C   UNL     1     -44.582 -53.838  13.547  1.00  0.00     0.292 C 
BRANCH   8   9
HETATM    9  N   UNL     1     -46.036 -53.602  13.660  1.00  0.00     0.096 N 
HETATM   10  C   UNL     1     -46.452 -52.346  12.988  1.00  0.00     0.300 C 
HETATM   11  C   UNL     1     -46.649 -51.350  14.072  1.00  0.00     0.001 C 
HETATM   12  C   UNL     1     -46.626 -51.953  15.261  1.00  0.00     0.001 C 
HETATM   13  C   UNL     1     -46.413 -53.418  15.088  1.00  0.00     0.300 C 
ENDBRANCH   8   9
ENDBRANCH   7   8
ENDBRANCH   3   7
BRANCH   4  14
HETATM   14  C   UNL     1     -41.209 -49.896  11.729  1.00  0.00     0.038 A 
HETATM   15  C   UNL     1     -39.867 -49.783  12.069  1.00  0.00     0.046 A 
HETATM   16  C   UNL     1     -39.223 -48.582  11.814  1.00  0.00     0.090 A 
HETATM   17  N   UNL     1     -39.820 -47.509  11.253  1.00  0.00    -0.375 N 
HETATM   18  C   UNL     1     -41.123 -47.644  10.932  1.00  0.00     0.090 A 
ATOM     19  HN  UNL     1     -39.313 -46.641  11.080  1.00  0.00     0.164 HD
HETATM   20  C   UNL     1     -41.851 -48.804  11.146  1.00  0.00     0.046 A 
ENDBRANCH   4  14
TORSDOF 4
ENDMDL
MODEL 2
REMARK VINA RESULT:      -5.5      2.138      6.832
REMARK  4 active torsions:
REMARK  status: ('A' for Active; 'I' for Inactive)
REMARK       I    between atoms: C_2  and  N_3 
REMARK       I    between atoms: C_2  and  N_11 
REMARK    1  A    between atoms: N_3  and  C_4 
REMARK    2  A    between atoms: C_4  and  C_5 
REMARK    3  A    between atoms: C_5  and  N_6 
REMARK    4  A    between atoms: N_11  and  C_12 
ROOT
HETATM    1  O   UNL     1     -44.392 -53.912  12.215  1.00  0.00    -0.247 OA
HETATM    2  C   UNL     1     -43.685 -52.959  12.518  1.00  0.00     0.320 C 
HETATM    3  N   UNL     1     -42.582 -52.716  11.755  1.00  0.00    -0.341 N 
HETATM    4  N   UNL     1     -43.883 -52.088  13.555  1.00  0.00    -0.309 N 
HETATM    5  H   UNL     1     -42.485 -53.384  11.000  1.00  0.00     0.164 HD
HETATM    6  H   UNL     1     -43.214 -51.343  13.651  1.00  0.00     0.170 HD
ENDROOT
BRANCH   3   7
HETATM    7  C   UNL     1     -41.573 -51.682  11.886  1.00  0.00     0.154 C 
BRANCH   7   8
HETATM    8  C   UNL     1     -40.383 -52.117  12.766  1.00  0.00     0.292 C 
BRANCH   8   9
HETATM    9  N   UNL     1     -39.597 -50.978  13.281  1.00  0.00     0.096 N 
HETATM   10  C   UNL     1     -39.462 -49.893  12.277  1.00  0.00     0.300 C 
HETATM   11  C   UNL     1     -38.091 -50.022  11.720  1.00  0.00     0.001 C 
HETATM   12  C   UNL     1     -37.377 -50.880  12.448  1.00  0.00     0.001 C 
HETATM   13  C   UNL     1     -38.202 -51.411  13.570  1.00  0.00     0.300 C 
ENDBRANCH   8   9
ENDBRANCH   7   8
ENDBRANCH   3   7
BRANCH   4  14
HETATM   14  C   UNL     1     -44.936 -52.086  14.490  1.00  0.00     0.038 A 
HETATM   15  C   UNL     1     -46.127 -51.392  14.318  1.00  0.00     0.046 A 
HETATM   16  C   UNL     1     -47.086 -51.475  15.317  1.00  0.00     0.090 A 
HETATM   17  N   UNL     1     -46.934 -52.189  16.453  1.00  0.00    -0.375 N 
HETATM   18  C   UNL     1     -45.768 -52.852  16.596  1.00  0.00     0.090 A 
ATOM     19  HN  UNL     1     -47.663 -52.225  17.166  1.00  0.00     0.164 HD
HETATM   20  C   UNL     1     -44.753 -52.834  15.653  1.00  0.00     0.046 A 
ENDBRANCH   4  14
TORSDOF 4
ENDMDL
MODEL 3
REMARK VINA RESULT:      -5.5      5.204      7.059
REMARK  4 active torsions:
REMARK  status: ('A' for Active; 'I' for Inactive)
REMARK       I    between atoms: C_2  and  N_3 
REMARK       I    between atoms: C_2  and  N_11 
REMARK    1  A    between atoms: N_3  and  C_4 
REMARK    2  A    between atoms: C_4  and  C_5 
REMARK    3  A    between atoms: C_5  and  N_6 
REMARK    4  A    between atoms: N_11  and  C_12 
ROOT
HETATM    1  O   UNL     1     -42.074 -44.980  10.177  1.00  0.00    -0.247 OA
HETATM    2  C   UNL     1     -41.539 -46.064  10.377  1.00  0.00     0.320 C 
HETATM    3  N   UNL     1     -40.349 -46.073  11.041  1.00  0.00    -0.341 N 
HETATM    4  N   UNL     1     -42.013 -47.292  10.006  1.00  0.00    -0.309 N 
HETATM    5  H   UNL     1     -40.048 -45.140  11.297  1.00  0.00     0.164 HD
HETATM    6  H   UNL     1     -41.456 -48.088  10.269  1.00  0.00     0.170 HD
ENDROOT
BRANCH   3   7
HETATM    7  C   UNL     1     -39.497 -47.190  11.402  1.00  0.00     0.154 C 
BRANCH   7   8
HETATM    8  C   UNL     1     -39.802 -47.742  12.810  1.00  0.00     0.292 C 
BRANCH   8   9
HETATM    9  N   UNL     1     -39.775 -49.218  12.872  1.00  0.00     0.096 N 
HETATM   10  C   UNL     1     -38.994 -49.713  14.033  1.00  0.00     0.300 C 
HETATM   11  C   UNL     1     -37.685 -50.149  13.486  1.00  0.00     0.001 C 
HETATM   12  C   UNL     1     -37.729 -50.179  12.154  1.00  0.00     0.001 C 
HETATM   13  C   UNL     1     -39.078 -49.766  11.676  1.00  0.00     0.300 C 
ENDBRANCH   8   9
ENDBRANCH   7   8
ENDBRANCH   3   7
BRANCH   4  14
HETATM   14  C   UNL     1     -43.211 -47.586   9.327  1.00  0.00     0.038 A 
HETATM   15  C   UNL     1     -43.275 -47.953   7.989  1.00  0.00     0.046 A 
HETATM   16  C   UNL     1     -44.521 -48.218   7.439  1.00  0.00     0.090 A 
HETATM   17  N   UNL     1     -45.681 -48.140   8.125  1.00  0.00    -0.375 N 
HETATM   18  C   UNL     1     -45.591 -47.781   9.421  1.00  0.00     0.090 A 
ATOM     19  HN  UNL     1     -46.580 -48.342   7.685  1.00  0.00     0.164 HD
HETATM   20  C   UNL     1     -44.394 -47.500  10.060  1.00  0.00     0.046 A 
ENDBRANCH   4  14
TORSDOF 4
ENDMDL
MODEL 4
REMARK VINA RESULT:      -5.4      2.124      3.053
REMARK  4 active torsions:
REMARK  status: ('A' for Active; 'I' for Inactive)
REMARK       I    between atoms: C_2  and  N_3 
REMARK       I    between atoms: C_2  and  N_11 
REMARK    1  A    between atoms: N_3  and  C_4 
REMARK    2  A    between atoms: C_4  and  C_5 
REMARK    3  A    between atoms: C_5  and  N_6 
REMARK    4  A    between atoms: N_11  and  C_12 
ROOT
HETATM    1  O   UNL     1     -39.603 -49.591  11.230  1.00  0.00    -0.247 OA
HETATM    2  C   UNL     1     -40.670 -50.167  11.407  1.00  0.00     0.320 C 
HETATM    3  N   UNL     1     -40.640 -51.514  11.609  1.00  0.00    -0.341 N 
HETATM    4  N   UNL     1     -41.914 -49.597  11.431  1.00  0.00    -0.309 N 
HETATM    5  H   UNL     1     -39.697 -51.883  11.588  1.00  0.00     0.164 HD
HETATM    6  H   UNL     1     -42.688 -50.214  11.611  1.00  0.00     0.170 HD
ENDROOT
BRANCH   3   7
HETATM    7  C   UNL     1     -41.733 -52.442  11.830  1.00  0.00     0.154 C 
BRANCH   7   8
HETATM    8  C   UNL     1     -41.938 -52.777  13.322  1.00  0.00     0.292 C 
BRANCH   8   9
HETATM    9  N   UNL     1     -43.342 -52.636  13.760  1.00  0.00     0.096 N 
HETATM   10  C   UNL     1     -43.649 -53.491  14.933  1.00  0.00     0.300 C 
HETATM   11  C   UNL     1     -44.393 -54.661  14.401  1.00  0.00     0.001 C 
HETATM   12  C   UNL     1     -44.738 -54.448  13.131  1.00  0.00     0.001 C 
HETATM   13  C   UNL     1     -44.260 -53.108  12.688  1.00  0.00     0.300 C 
ENDBRANCH   8   9
ENDBRANCH   7   8
ENDBRANCH   3   7
BRANCH   4  14
HETATM   14  C   UNL     1     -42.244 -48.238  11.267  1.00  0.00     0.038 A 
HETATM   15  C   UNL     1     -42.191 -47.298  12.288  1.00  0.00     0.046 A 
HETATM   16  C   UNL     1     -42.541 -45.988  11.994  1.00  0.00     0.090 A 
HETATM   17  N   UNL     1     -42.935 -45.568  10.773  1.00  0.00    -0.375 N 
HETATM   18  C   UNL     1     -42.979 -46.501   9.800  1.00  0.00     0.090 A 
ATOM     19  HN  UNL     1     -43.185 -44.595  10.595  1.00  0.00     0.164 HD
HETATM   20  C   UNL     1     -42.646 -47.831   9.995  1.00  0.00     0.046 A 
ENDBRANCH   4  14
TORSDOF 4
ENDMDL
MODEL 5
REMARK VINA RESULT:      -5.4      3.770      6.158
REMARK  4 active torsions:
REMARK  status: ('A' for Active; 'I' for Inactive)
REMARK       I    between atoms: C_2  and  N_3 
REMARK       I    between atoms: C_2  and  N_11 
REMARK    1  A    between atoms: N_3  and  C_4 
REMARK    2  A    between atoms: C_4  and  C_5 
REMARK    3  A    between atoms: C_5  and  N_6 
REMARK    4  A    between atoms: N_11  and  C_12 
ROOT
HETATM    1  O   UNL     1     -43.067 -47.529  13.241  1.00  0.00    -0.247 OA
HETATM    2  C   UNL     1     -42.899 -48.495  12.506  1.00  0.00     0.320 C 
HETATM    3  N   UNL     1     -42.347 -49.617  13.047  1.00  0.00    -0.341 N 
HETATM    4  N   UNL     1     -43.213 -48.578  11.177  1.00  0.00    -0.309 N 
HETATM    5  H   UNL     1     -42.140 -49.505  14.032  1.00  0.00     0.164 HD
HETATM    6  H   UNL     1     -43.027 -49.457  10.725  1.00  0.00     0.170 HD
ENDROOT
BRANCH   3   7
HETATM    7  C   UNL     1     -42.025 -50.886  12.422  1.00  0.00     0.154 C 
BRANCH   7   8
HETATM    8  C   UNL     1     -40.599 -50.917  11.835  1.00  0.00     0.292 C 
BRANCH   8   9
HETATM    9  N   UNL     1     -39.626 -50.144  12.634  1.00  0.00     0.096 N 
HETATM   10  C   UNL     1     -38.876 -49.166  11.807  1.00  0.00     0.300 C 
HETATM   11  C   UNL     1     -37.540 -49.772  11.573  1.00  0.00     0.001 C 
HETATM   12  C   UNL     1     -37.375 -50.839  12.354  1.00  0.00     0.001 C 
HETATM   13  C   UNL     1     -38.589 -51.053  13.192  1.00  0.00     0.300 C 
ENDBRANCH   8   9
ENDBRANCH   7   8
ENDBRANCH   3   7
BRANCH   4  14
HETATM   14  C   UNL     1     -43.800 -47.588  10.366  1.00  0.00     0.038 A 
HETATM   15  C   UNL     1     -43.152 -46.427   9.964  1.00  0.00     0.046 A 
HETATM   16  C   UNL     1     -43.845 -45.531   9.163  1.00  0.00     0.090 A 
HETATM   17  N   UNL     1     -45.116 -45.716   8.747  1.00  0.00    -0.375 N 
HETATM   18  C   UNL     1     -45.722 -46.851   9.151  1.00  0.00     0.090 A 
ATOM     19  HN  UNL     1     -45.593 -45.034   8.157  1.00  0.00     0.164 HD
HETATM   20  C   UNL     1     -45.113 -47.806   9.949  1.00  0.00     0.046 A 
ENDBRANCH   4  14
TORSDOF 4
ENDMDL
MODEL 6
REMARK VINA RESULT:      -5.3      2.857      6.815
REMARK  4 active torsions:
REMARK  status: ('A' for Active; 'I' for Inactive)
REMARK       I    between atoms: C_2  and  N_3 
REMARK       I    between atoms: C_2  and  N_11 
REMARK    1  A    between atoms: N_3  and  C_4 
REMARK    2  A    between atoms: C_4  and  C_5 
REMARK    3  A    between atoms: C_5  and  N_6 
REMARK    4  A    between atoms: N_11  and  C_12 
ROOT
HETATM    1  O   UNL     1     -43.216 -49.936  14.935  1.00  0.00    -0.247 OA
HETATM    2  C   UNL     1     -43.279 -49.891  13.712  1.00  0.00     0.320 C 
HETATM    3  N   UNL     1     -42.538 -48.944  13.071  1.00  0.00    -0.341 N 
HETATM    4  N   UNL     1     -44.021 -50.704  12.899  1.00  0.00    -0.309 N 
HETATM    5  H   UNL     1     -42.004 -48.375  13.717  1.00  0.00     0.164 HD
HETATM    6  H   UNL     1     -43.941 -50.544  11.909  1.00  0.00     0.170 HD
ENDROOT
BRANCH   3   7
HETATM    7  C   UNL     1     -42.428 -48.655  11.654  1.00  0.00     0.154 C 
BRANCH   7   8
HETATM    8  C   UNL     1     -43.415 -47.564  11.190  1.00  0.00     0.292 C 
BRANCH   8   9
HETATM    9  N   UNL     1     -43.607 -47.541   9.726  1.00  0.00     0.096 N 
HETATM   10  C   UNL     1     -43.139 -46.270   9.120  1.00  0.00     0.300 C 
HETATM   11  C   UNL     1     -44.362 -45.471   8.853  1.00  0.00     0.001 C 
HETATM   12  C   UNL     1     -45.449 -46.226   9.012  1.00  0.00     0.001 C 
HETATM   13  C   UNL     1     -45.058 -47.611   9.401  1.00  0.00     0.300 C 
ENDBRANCH   8   9
ENDBRANCH   7   8
ENDBRANCH   3   7
BRANCH   4  14
HETATM   14  C   UNL     1     -44.862 -51.768  13.278  1.00  0.00     0.038 A 
HETATM   15  C   UNL     1     -46.073 -51.603  13.939  1.00  0.00     0.046 A 
HETATM   16  C   UNL     1     -46.809 -52.735  14.255  1.00  0.00     0.090 A 
HETATM   17  N   UNL     1     -46.420 -53.995  13.961  1.00  0.00    -0.375 N 
HETATM   18  C   UNL     1     -45.241 -54.127  13.321  1.00  0.00     0.090 A 
ATOM     19  HN  UNL     1     -46.989 -54.804  14.211  1.00  0.00     0.164 HD
HETATM   20  C   UNL     1     -44.437 -53.058  12.961  1.00  0.00     0.046 A 
ENDBRANCH   4  14
TORSDOF 4
ENDMDL
MODEL 7
REMARK VINA RESULT:      -5.3      1.652      2.025
REMARK  4 active torsions:
REMARK  status: ('A' for Active; 'I' for Inactive)
REMARK       I    between atoms: C_2  and  N_3 
REMARK       I    between atoms: C_2  and  N_11 
REMARK    1  A    between atoms: N_3  and  C_4 
REMARK    2  A    between atoms: C_4  and  C_5 
REMARK    3  A    between atoms: C_5  and  N_6 
REMARK    4  A    between atoms: N_11  and  C_12 
ROOT
HETATM    1  O   UNL     1     -39.778 -53.889  13.137  1.00  0.00    -0.247 OA
HETATM    2  C   UNL     1     -40.819 -53.262  12.980  1.00  0.00     0.320 C 
HETATM    3  N   UNL     1     -41.979 -53.970  12.872  1.00  0.00    -0.341 N 
HETATM    4  N   UNL     1     -40.953 -51.902  12.904  1.00  0.00    -0.309 N 
HETATM    5  H   UNL     1     -41.824 -54.969  12.940  1.00  0.00     0.164 HD
HETATM    6  H   UNL     1     -41.888 -51.548  12.794  1.00  0.00     0.170 HD
ENDROOT
BRANCH   3   7
HETATM    7  C   UNL     1     -43.336 -53.501  12.671  1.00  0.00     0.154 C 
BRANCH   7   8
HETATM    8  C   UNL     1     -44.280 -53.895  13.826  1.00  0.00     0.292 C 
BRANCH   8   9
HETATM    9  N   UNL     1     -45.707 -53.696  13.502  1.00  0.00     0.096 N 
HETATM   10  C   UNL     1     -45.914 -52.569  12.558  1.00  0.00     0.300 C 
HETATM   11  C   UNL     1     -46.394 -51.431  13.382  1.00  0.00     0.001 C 
HETATM   12  C   UNL     1     -46.703 -51.849  14.609  1.00  0.00     0.001 C 
HETATM   13  C   UNL     1     -46.460 -53.315  14.728  1.00  0.00     0.300 C 
ENDBRANCH   8   9
ENDBRANCH   7   8
ENDBRANCH   3   7
BRANCH   4  14
HETATM   14  C   UNL     1     -39.940 -50.929  12.996  1.00  0.00     0.038 A 
HETATM   15  C   UNL     1     -39.397 -50.266  11.903  1.00  0.00     0.046 A 
HETATM   16  C   UNL     1     -38.403 -49.326  12.131  1.00  0.00     0.090 A 
HETATM   17  N   UNL     1     -37.925 -49.014  13.355  1.00  0.00    -0.375 N 
HETATM   18  C   UNL     1     -38.468 -49.673  14.399  1.00  0.00     0.090 A 
ATOM     19  HN  UNL     1     -37.192 -48.317  13.483  1.00  0.00     0.164 HD
HETATM   20  C   UNL     1     -39.466 -50.625  14.272  1.00  0.00     0.046 A 
ENDBRANCH   4  14
TORSDOF 4
ENDMDL
MODEL 8
REMARK VINA RESULT:      -5.2      5.278      7.742
REMARK  4 active torsions:
REMARK  status: ('A' for Active; 'I' for Inactive)
REMARK       I    between atoms: C_2  and  N_3 
REMARK       I    between atoms: C_2  and  N_11 
REMARK    1  A    between atoms: N_3  and  C_4 
REMARK    2  A    between atoms: C_4  and  C_5 
REMARK    3  A    between atoms: C_5  and  N_6 
REMARK    4  A    between atoms: N_11  and  C_12 
ROOT
HETATM    1  O   UNL     1     -39.422 -44.492   9.469  1.00  0.00    -0.247 OA
HETATM    2  C   UNL     1     -39.903 -45.073  10.435  1.00  0.00     0.320 C 
HETATM    3  N   UNL     1     -39.942 -46.434  10.403  1.00  0.00    -0.341 N 
HETATM    4  N   UNL     1     -40.409 -44.498  11.569  1.00  0.00    -0.309 N 
HETATM    5  H   UNL     1     -39.550 -46.808   9.548  1.00  0.00     0.164 HD
HETATM    6  H   UNL     1     -40.747 -45.125  12.279  1.00  0.00     0.170 HD
ENDROOT
BRANCH   3   7
HETATM    7  C   UNL     1     -40.458 -47.370  11.385  1.00  0.00     0.154 C 
BRANCH   7   8
HETATM    8  C   UNL     1     -39.343 -48.172  12.086  1.00  0.00     0.292 C 
BRANCH   8   9
HETATM    9  N   UNL     1     -39.199 -49.546  11.562  1.00  0.00     0.096 N 
HETATM   10  C   UNL     1     -39.708 -50.564  12.514  1.00  0.00     0.300 C 
HETATM   11  C   UNL     1     -38.507 -51.154  13.159  1.00  0.00     0.001 C 
HETATM   12  C   UNL     1     -37.404 -50.765  12.521  1.00  0.00     0.001 C 
HETATM   13  C   UNL     1     -37.758 -49.874  11.380  1.00  0.00     0.300 C 
ENDBRANCH   8   9
ENDBRANCH   7   8
ENDBRANCH   3   7
BRANCH   4  14
HETATM   14  C   UNL     1     -40.485 -43.127  11.881  1.00  0.00     0.038 A 
HETATM   15  C   UNL     1     -39.660 -42.492  12.800  1.00  0.00     0.046 A 
HETATM   16  C   UNL     1     -39.838 -41.133  13.015  1.00  0.00     0.090 A 
HETATM   17  N   UNL     1     -40.768 -40.384  12.385  1.00  0.00    -0.375 N 
HETATM   18  C   UNL     1     -41.557 -41.025  11.498  1.00  0.00     0.090 A 
ATOM     19  HN  UNL     1     -40.869 -39.386  12.570  1.00  0.00     0.164 HD
HETATM   20  C   UNL     1     -41.454 -42.377  11.214  1.00  0.00     0.046 A 
ENDBRANCH   4  14
TORSDOF 4
ENDMDL
MODEL 9
REMARK VINA RESULT:      -5.2      1.751      2.300
REMARK  4 active torsions:
REMARK  status: ('A' for Active; 'I' for Inactive)
REMARK       I    between atoms: C_2  and  N_3 
REMARK       I    between atoms: C_2  and  N_11 
REMARK    1  A    between atoms: N_3  and  C_4 
REMARK    2  A    between atoms: C_4  and  C_5 
REMARK    3  A    between atoms: C_5  and  N_6 
REMARK    4  A    between atoms: N_11  and  C_12 
ROOT
HETATM    1  O   UNL     1     -40.281 -49.917  12.499  1.00  0.00    -0.247 OA
HETATM    2  C   UNL     1     -41.375 -50.404  12.238  1.00  0.00     0.320 C 
HETATM    3  N   UNL     1     -41.545 -51.739  12.452  1.00  0.00    -0.341 N 
HETATM    4  N   UNL     1     -42.470 -49.744  11.750  1.00  0.00    -0.309 N 
HETATM    5  H   UNL     1     -40.708 -52.177  12.818  1.00  0.00     0.164 HD
HETATM    6  H   UNL     1     -43.301 -50.294  11.610  1.00  0.00     0.170 HD
ENDROOT
BRANCH   3   7
HETATM    7  C   UNL     1     -42.709 -52.573  12.224  1.00  0.00     0.154 C 
BRANCH   7   8
HETATM    8  C   UNL     1     -43.694 -52.559  13.411  1.00  0.00     0.292 C 
BRANCH   8   9
HETATM    9  N   UNL     1     -45.102 -52.728  12.998  1.00  0.00     0.096 N 
HETATM   10  C   UNL     1     -45.841 -51.441  12.994  1.00  0.00     0.300 C 
HETATM   11  C   UNL     1     -46.662 -51.438  14.231  1.00  0.00     0.001 C 
HETATM   12  C   UNL     1     -46.653 -52.647  14.792  1.00  0.00     0.001 C 
HETATM   13  C   UNL     1     -45.823 -53.582  13.981  1.00  0.00     0.300 C 
ENDBRANCH   8   9
ENDBRANCH   7   8
ENDBRANCH   3   7
BRANCH   4  14
HETATM   14  C   UNL     1     -42.589 -48.373  11.450  1.00  0.00     0.038 A 
HETATM   15  C   UNL     1     -42.573 -47.856  10.161  1.00  0.00     0.046 A 
HETATM   16  C   UNL     1     -42.701 -46.484  10.002  1.00  0.00     0.090 A 
HETATM   17  N   UNL     1     -42.838 -45.615  11.025  1.00  0.00    -0.375 N 
HETATM   18  C   UNL     1     -42.849 -46.142  12.266  1.00  0.00     0.090 A 
ATOM     19  HN  UNL     1     -42.929 -44.611  10.868  1.00  0.00     0.164 HD
HETATM   20  C   UNL     1     -42.731 -47.498  12.526  1.00  0.00     0.046 A 
ENDBRANCH   4  14
TORSDOF 4
ENDMDL
