MODEL 1
REMARK VINA RESULT:      -6.4      0.000      0.000
REMARK  4 active torsions:
REMARK  status: ('A' for Active; 'I' for Inactive)
REMARK    1  A    between atoms: O_2  and  C_3 
REMARK    2  A    between atoms: C_3  and  C_4 
REMARK    3  A    between atoms: C_4  and  N_5 
REMARK    4  A    between atoms: C_6  and  N_18 
ROOT
HETATM    1  N   UNL     1     -41.606 -50.924  12.951  1.00  0.00    -0.172 N 
HETATM    2  C   UNL     1     -42.996 -50.744  12.907  1.00  0.00     0.685 C 
HETATM    3  N   UNL     1     -43.273 -49.556  12.387  1.00  0.00    -0.174 N 
ATOM      4  HN  UNL     1     -44.193 -49.127  12.293  1.00  0.00     0.186 HD
HETATM    5  C   UNL     1     -42.085 -49.026  12.005  1.00  0.00     0.160 C 
HETATM    6  N   UNL     1     -41.891 -47.792  11.411  1.00  0.00    -0.287 N 
HETATM    7  C   UNL     1     -42.980 -46.903  11.083  1.00  0.00     0.163 C 
HETATM    8  C   UNL     1     -40.595 -47.383  11.124  1.00  0.00     0.330 C 
HETATM    9  O   UNL     1     -40.319 -46.308  10.586  1.00  0.00    -0.246 OA
HETATM   10  N   UNL     1     -39.575 -48.248  11.450  1.00  0.00    -0.273 N 
HETATM   11  C   UNL     1     -39.716 -49.554  11.857  1.00  0.00     0.280 C 
HETATM   12  O   UNL     1     -38.768 -50.331  11.799  1.00  0.00    -0.265 OA
HETATM   13  C   UNL     1     -41.046 -49.877  12.254  1.00  0.00     0.164 C 
HETATM   14  H   UNL     1     -38.655 -47.965  11.156  1.00  0.00     0.173 HD
ENDROOT
BRANCH   2  15
HETATM   15  N   UNL     1     -43.933 -51.620  13.376  1.00  0.00    -0.217 N 
HETATM   16  C   UNL     1     -44.440 -52.779  12.653  1.00  0.00     0.141 C 
HETATM   17  C   UNL     1     -45.965 -52.755  12.567  1.00  0.00     0.021 C 
HETATM   18  C   UNL     1     -46.604 -52.590  13.937  1.00  0.00     0.007 C 
HETATM   19  C   UNL     1     -46.058 -51.335  14.628  1.00  0.00     0.000 C 
HETATM   20  C   UNL     1     -46.686 -51.194  16.014  1.00  0.00     0.011 C 
HETATM   21  C   UNL     1     -44.522 -51.384  14.705  1.00  0.00     0.145 C 
ENDBRANCH   2  15
BRANCH   1  22
HETATM   22  C   UNL     1     -40.906 -51.929  13.736  1.00  0.00     0.174 C 
BRANCH  22  23
HETATM   23  C   UNL     1     -40.546 -53.266  13.087  1.00  0.00     0.187 C 
BRANCH  23  24
HETATM   24  O   UNL     1     -39.211 -53.638  13.416  1.00  0.00    -0.394 OA
HETATM   25  C   UNL     1     -39.178 -54.656  14.408  1.00  0.00     0.201 C 
ENDBRANCH  23  24
ENDBRANCH  22  23
ENDBRANCH   1  22
TORSDOF 4
ENDMDL
MODEL 2
REMARK VINA RESULT:      -6.2      2.628      5.544
REMARK  4 active torsions:
REMARK  status: ('A' for Active; 'I' for Inactive)
REMARK    1  A    between atoms: O_2  and  C_3 
REMARK    2  A    between atoms: C_3  and  C_4 
REMARK    3  A    between atoms: C_4  and  N_5 
REMARK    4  A    between atoms: C_6  and  N_18 
ROOT
HETATM    1  N   UNL     1     -41.980 -53.337  13.735  1.00  0.00    -0.172 N 
HETATM    2  C   UNL     1     -42.998 -53.849  14.552  1.00  0.00     0.685 C 
HETATM    3  N   UNL     1     -42.489 -54.747  15.384  1.00  0.00    -0.174 N 
ATOM      4  HN  UNL     1     -43.001 -55.329  16.046  1.00  0.00     0.186 HD
HETATM    5  C   UNL     1     -41.150 -54.735  15.178  1.00  0.00     0.160 C 
HETATM    6  N   UNL     1     -40.212 -55.517  15.828  1.00  0.00    -0.287 N 
HETATM    7  C   UNL     1     -40.564 -56.451  16.872  1.00  0.00     0.163 C 
HETATM    8  C   UNL     1     -38.878 -55.410  15.459  1.00  0.00     0.330 C 
HETATM    9  O   UNL     1     -37.968 -56.054  15.986  1.00  0.00    -0.246 OA
HETATM   10  N   UNL     1     -38.571 -54.515  14.460  1.00  0.00    -0.273 N 
HETATM   11  C   UNL     1     -39.420 -53.579  13.917  1.00  0.00     0.280 C 
HETATM   12  O   UNL     1     -38.976 -52.624  13.289  1.00  0.00    -0.265 OA
HETATM   13  C   UNL     1     -40.790 -53.816  14.233  1.00  0.00     0.164 C 
HETATM   14  H   UNL     1     -37.589 -54.395  14.270  1.00  0.00     0.173 HD
ENDROOT
BRANCH   2  15
HETATM   15  N   UNL     1     -44.323 -53.527  14.478  1.00  0.00    -0.217 N 
HETATM   16  C   UNL     1     -45.184 -53.754  13.324  1.00  0.00     0.141 C 
HETATM   17  C   UNL     1     -45.878 -52.466  12.888  1.00  0.00     0.021 C 
HETATM   18  C   UNL     1     -46.608 -51.800  14.045  1.00  0.00     0.007 C 
HETATM   19  C   UNL     1     -45.642 -51.554  15.209  1.00  0.00     0.000 C 
HETATM   20  C   UNL     1     -46.391 -50.911  16.375  1.00  0.00     0.011 C 
HETATM   21  C   UNL     1     -44.958 -52.866  15.631  1.00  0.00     0.145 C 
ENDBRANCH   2  15
BRANCH   1  22
HETATM   22  C   UNL     1     -42.179 -52.594  12.500  1.00  0.00     0.174 C 
BRANCH  22  23
HETATM   23  C   UNL     1     -42.299 -51.071  12.557  1.00  0.00     0.187 C 
BRANCH  23  24
HETATM   24  O   UNL     1     -41.115 -50.455  12.059  1.00  0.00    -0.394 OA
HETATM   25  C   UNL     1     -41.390 -49.200  11.451  1.00  0.00     0.201 C 
ENDBRANCH  23  24
ENDBRANCH  22  23
ENDBRANCH   1  22
TORSDOF 4
ENDMDL
MODEL 3
REMARK VINA RESULT:      -6.0      2.097      5.714
REMARK  4 active torsions:
REMARK  status: ('A' for Active; 'I' for Inactive)
REMARK    1  A    between atoms: O_2  and  C_3 
REMARK    2  A    between atoms: C_3  and  C_4 
REMARK    3  A    between atoms: C_4  and  N_5 
REMARK    4  A    between atoms: C_6  and  N_18 
ROOT
HETATM    1  N   UNL     1     -41.545 -50.884  12.412  1.00  0.00    -0.172 N 
HETATM    2  C   UNL     1     -42.360 -49.757  12.594  1.00  0.00     0.685 C 
HETATM    3  N   UNL     1     -43.617 -50.141  12.764  1.00  0.00    -0.174 N 
ATOM      4  HN  UNL     1     -44.435 -49.539  12.853  1.00  0.00     0.186 HD
HETATM    5  C   UNL     1     -43.596 -51.495  12.797  1.00  0.00     0.160 C 
HETATM    6  N   UNL     1     -44.688 -52.330  12.956  1.00  0.00    -0.287 N 
HETATM    7  C   UNL     1     -46.029 -51.831  13.149  1.00  0.00     0.163 C 
HETATM    8  C   UNL     1     -44.493 -53.704  12.920  1.00  0.00     0.330 C 
HETATM    9  O   UNL     1     -45.398 -54.528  13.064  1.00  0.00    -0.246 OA
HETATM   10  N   UNL     1     -43.205 -54.152  12.731  1.00  0.00    -0.273 N 
HETATM   11  C   UNL     1     -42.065 -53.385  12.762  1.00  0.00     0.280 C 
HETATM   12  O   UNL     1     -40.965 -53.907  12.918  1.00  0.00    -0.265 OA
HETATM   13  C   UNL     1     -42.327 -51.987  12.673  1.00  0.00     0.164 C 
HETATM   14  H   UNL     1     -43.079 -55.149  12.793  1.00  0.00     0.173 HD
ENDROOT
BRANCH   2  15
HETATM   15  N   UNL     1     -41.948 -48.455  12.549  1.00  0.00    -0.217 N 
HETATM   16  C   UNL     1     -42.233 -47.517  11.470  1.00  0.00     0.141 C 
HETATM   17  C   UNL     1     -40.950 -46.891  10.928  1.00  0.00     0.021 C 
HETATM   18  C   UNL     1     -40.110 -46.276  12.037  1.00  0.00     0.007 C 
HETATM   19  C   UNL     1     -39.814 -47.320  13.118  1.00  0.00     0.000 C 
HETATM   20  C   UNL     1     -38.994 -46.685  14.240  1.00  0.00     0.011 C 
HETATM   21  C   UNL     1     -41.121 -47.934  13.651  1.00  0.00     0.145 C 
ENDBRANCH   2  15
BRANCH   1  22
HETATM   22  C   UNL     1     -40.193 -50.874  11.877  1.00  0.00     0.174 C 
BRANCH  22  23
HETATM   23  C   UNL     1     -39.009 -50.983  12.839  1.00  0.00     0.187 C 
BRANCH  23  24
HETATM   24  O   UNL     1     -37.797 -51.188  12.119  1.00  0.00    -0.394 OA
HETATM   25  C   UNL     1     -37.443 -50.047  11.348  1.00  0.00     0.201 C 
ENDBRANCH  23  24
ENDBRANCH  22  23
ENDBRANCH   1  22
TORSDOF 4
ENDMDL
MODEL 4
REMARK VINA RESULT:      -6.0      1.944      3.067
REMARK  4 active torsions:
REMARK  status: ('A' for Active; 'I' for Inactive)
REMARK    1  A    between atoms: O_2  and  C_3 
REMARK    2  A    between atoms: C_3  and  C_4 
REMARK    3  A    between atoms: C_4  and  N_5 
REMARK    4  A    between atoms: C_6  and  N_18 
ROOT
HETATM    1  N   UNL     1     -41.452 -48.470  12.401  1.00  0.00    -0.172 N 
HETATM    2  C   UNL     1     -42.531 -49.363  12.473  1.00  0.00     0.685 C 
HETATM    3  N   UNL     1     -43.491 -48.964  11.651  1.00  0.00    -0.174 N 
ATOM      4  HN  UNL     1     -44.417 -49.378  11.541  1.00  0.00     0.186 HD
HETATM    5  C   UNL     1     -42.996 -47.893  10.984  1.00  0.00     0.160 C 
HETATM    6  N   UNL     1     -43.654 -47.148  10.022  1.00  0.00    -0.287 N 
HETATM    7  C   UNL     1     -44.990 -47.462   9.571  1.00  0.00     0.163 C 
HETATM    8  C   UNL     1     -43.013 -46.048   9.470  1.00  0.00     0.330 C 
HETATM    9  O   UNL     1     -43.509 -45.330   8.599  1.00  0.00    -0.246 OA
HETATM   10  N   UNL     1     -41.741 -45.770   9.920  1.00  0.00    -0.273 N 
HETATM   11  C   UNL     1     -40.968 -46.576  10.721  1.00  0.00     0.280 C 
HETATM   12  O   UNL     1     -39.755 -46.407  10.791  1.00  0.00    -0.265 OA
HETATM   13  C   UNL     1     -41.711 -47.614  11.355  1.00  0.00     0.164 C 
HETATM   14  H   UNL     1     -41.267 -45.019   9.444  1.00  0.00     0.173 HD
ENDROOT
BRANCH   2  15
HETATM   15  N   UNL     1     -42.620 -50.449  13.296  1.00  0.00    -0.217 N 
HETATM   16  C   UNL     1     -41.978 -51.737  13.067  1.00  0.00     0.141 C 
HETATM   17  C   UNL     1     -42.991 -52.878  13.113  1.00  0.00     0.021 C 
HETATM   18  C   UNL     1     -43.815 -52.850  14.392  1.00  0.00     0.007 C 
HETATM   19  C   UNL     1     -44.493 -51.485  14.554  1.00  0.00     0.000 C 
HETATM   20  C   UNL     1     -45.295 -51.458  15.855  1.00  0.00     0.011 C 
HETATM   21  C   UNL     1     -43.452 -50.353  14.508  1.00  0.00     0.145 C 
ENDBRANCH   2  15
BRANCH   1  22
HETATM   22  C   UNL     1     -40.368 -48.373  13.367  1.00  0.00     0.174 C 
BRANCH  22  23
HETATM   23  C   UNL     1     -39.118 -49.233  13.175  1.00  0.00     0.187 C 
BRANCH  23  24
HETATM   24  O   UNL     1     -38.852 -49.426  11.788  1.00  0.00    -0.394 OA
HETATM   25  C   UNL     1     -37.623 -50.110  11.580  1.00  0.00     0.201 C 
ENDBRANCH  23  24
ENDBRANCH  22  23
ENDBRANCH   1  22
TORSDOF 4
ENDMDL
MODEL 5
REMARK VINA RESULT:      -6.0      3.267      5.105
REMARK  4 active torsions:
REMARK  status: ('A' for Active; 'I' for Inactive)
REMARK    1  A    between atoms: O_2  and  C_3 
REMARK    2  A    between atoms: C_3  and  C_4 
REMARK    3  A    between atoms: C_4  and  N_5 
REMARK    4  A    between atoms: C_6  and  N_18 
ROOT
HETATM    1  N   UNL     1     -41.388 -47.831  12.310  1.00  0.00    -0.172 N 
HETATM    2  C   UNL     1     -41.370 -48.986  11.513  1.00  0.00     0.685 C 
HETATM    3  N   UNL     1     -42.044 -48.761  10.393  1.00  0.00    -0.174 N 
ATOM      4  HN  UNL     1     -42.253 -49.436   9.658  1.00  0.00     0.186 HD
HETATM    5  C   UNL     1     -42.398 -47.454  10.422  1.00  0.00     0.160 C 
HETATM    6  N   UNL     1     -43.118 -46.777   9.454  1.00  0.00    -0.287 N 
HETATM    7  C   UNL     1     -43.565 -47.405   8.233  1.00  0.00     0.163 C 
HETATM    8  C   UNL     1     -43.436 -45.442   9.665  1.00  0.00     0.330 C 
HETATM    9  O   UNL     1     -44.062 -44.751   8.859  1.00  0.00    -0.246 OA
HETATM   10  N   UNL     1     -43.000 -44.870  10.839  1.00  0.00    -0.273 N 
HETATM   11  C   UNL     1     -42.123 -45.428  11.739  1.00  0.00     0.280 C 
HETATM   12  O   UNL     1     -41.544 -44.726  12.563  1.00  0.00    -0.265 OA
HETATM   13  C   UNL     1     -41.934 -46.827  11.544  1.00  0.00     0.164 C 
HETATM   14  H   UNL     1     -43.170 -43.881  10.929  1.00  0.00     0.173 HD
ENDROOT
BRANCH   2  15
HETATM   15  N   UNL     1     -40.802 -50.181  11.847  1.00  0.00    -0.217 N 
HETATM   16  C   UNL     1     -41.513 -51.328  12.401  1.00  0.00     0.141 C 
HETATM   17  C   UNL     1     -40.870 -51.802  13.702  1.00  0.00     0.021 C 
HETATM   18  C   UNL     1     -39.380 -52.058  13.536  1.00  0.00     0.007 C 
HETATM   19  C   UNL     1     -38.687 -50.805  12.989  1.00  0.00     0.000 C 
HETATM   20  C   UNL     1     -37.196 -51.081  12.799  1.00  0.00     0.011 C 
HETATM   21  C   UNL     1     -39.349 -50.349  11.677  1.00  0.00     0.145 C 
ENDBRANCH   2  15
BRANCH   1  22
HETATM   22  C   UNL     1     -41.056 -47.774  13.725  1.00  0.00     0.174 C 
BRANCH  22  23
HETATM   23  C   UNL     1     -39.674 -47.271  14.146  1.00  0.00     0.187 C 
BRANCH  23  24
HETATM   24  O   UNL     1     -39.077 -48.170  15.076  1.00  0.00    -0.394 OA
HETATM   25  C   UNL     1     -40.052 -48.815  15.885  1.00  0.00     0.201 C 
ENDBRANCH  23  24
ENDBRANCH  22  23
ENDBRANCH   1  22
TORSDOF 4
ENDMDL
MODEL 6
REMARK VINA RESULT:      -5.9      2.505      3.893
REMARK  4 active torsions:
REMARK  status: ('A' for Active; 'I' for Inactive)
REMARK    1  A    between atoms: O_2  and  C_3 
REMARK    2  A    between atoms: C_3  and  C_4 
REMARK    3  A    between atoms: C_4  and  N_5 
REMARK    4  A    between atoms: C_6  and  N_18 
ROOT
HETATM    1  N   UNL     1     -42.069 -52.363  14.447  1.00  0.00    -0.172 N 
HETATM    2  C   UNL     1     -42.672 -51.109  14.277  1.00  0.00     0.685 C 
HETATM    3  N   UNL     1     -41.738 -50.196  14.047  1.00  0.00    -0.174 N 
ATOM      4  HN  UNL     1     -41.875 -49.190  13.951  1.00  0.00     0.186 HD
HETATM    5  C   UNL     1     -40.566 -50.869  13.965  1.00  0.00     0.160 C 
HETATM    6  N   UNL     1     -39.317 -50.318  13.735  1.00  0.00    -0.287 N 
HETATM    7  C   UNL     1     -39.117 -48.906  13.512  1.00  0.00     0.163 C 
HETATM    8  C   UNL     1     -38.207 -51.152  13.727  1.00  0.00     0.330 C 
HETATM    9  O   UNL     1     -37.057 -50.760  13.520  1.00  0.00    -0.246 OA
HETATM   10  N   UNL     1     -38.427 -52.494  13.946  1.00  0.00    -0.273 N 
HETATM   11  C   UNL     1     -39.649 -53.122  13.985  1.00  0.00     0.280 C 
HETATM   12  O   UNL     1     -39.730 -54.339  13.850  1.00  0.00    -0.265 OA
HETATM   13  C   UNL     1     -40.741 -52.216  14.116  1.00  0.00     0.164 C 
HETATM   14  H   UNL     1     -37.618 -53.087  13.852  1.00  0.00     0.173 HD
ENDROOT
BRANCH   2  15
HETATM   15  N   UNL     1     -44.006 -50.839  14.385  1.00  0.00    -0.217 N 
HETATM   16  C   UNL     1     -44.718 -50.589  15.633  1.00  0.00     0.141 C 
HETATM   17  C   UNL     1     -45.919 -51.520  15.783  1.00  0.00     0.021 C 
HETATM   18  C   UNL     1     -46.829 -51.469  14.565  1.00  0.00     0.007 C 
HETATM   19  C   UNL     1     -46.030 -51.778  13.294  1.00  0.00     0.000 C 
HETATM   20  C   UNL     1     -46.947 -51.696  12.075  1.00  0.00     0.011 C 
HETATM   21  C   UNL     1     -44.829 -50.825  13.164  1.00  0.00     0.145 C 
ENDBRANCH   2  15
BRANCH   1  22
HETATM   22  C   UNL     1     -42.703 -53.535  15.031  1.00  0.00     0.174 C 
BRANCH  22  23
HETATM   23  C   UNL     1     -43.500 -54.479  14.130  1.00  0.00     0.187 C 
BRANCH  23  24
HETATM   24  O   UNL     1     -44.673 -54.937  14.797  1.00  0.00    -0.394 OA
HETATM   25  C   UNL     1     -45.685 -55.322  13.876  1.00  0.00     0.201 C 
ENDBRANCH  23  24
ENDBRANCH  22  23
ENDBRANCH   1  22
TORSDOF 4
ENDMDL
MODEL 7
REMARK VINA RESULT:      -5.8      2.187      5.565
REMARK  4 active torsions:
REMARK  status: ('A' for Active; 'I' for Inactive)
REMARK    1  A    between atoms: O_2  and  C_3 
REMARK    2  A    between atoms: C_3  and  C_4 
REMARK    3  A    between atoms: C_4  and  N_5 
REMARK    4  A    between atoms: C_6  and  N_18 
ROOT
HETATM    1  N   UNL     1     -41.796 -51.132  12.615  1.00  0.00    -0.172 N 
HETATM    2  C   UNL     1     -42.673 -50.042  12.711  1.00  0.00     0.685 C 
HETATM    3  N   UNL     1     -43.917 -50.484  12.829  1.00  0.00    -0.174 N 
ATOM      4  HN  UNL     1     -44.768 -49.922  12.852  1.00  0.00     0.186 HD
HETATM    5  C   UNL     1     -43.831 -51.833  12.914  1.00  0.00     0.160 C 
HETATM    6  N   UNL     1     -44.888 -52.716  13.048  1.00  0.00    -0.287 N 
HETATM    7  C   UNL     1     -46.261 -52.281  13.151  1.00  0.00     0.163 C 
HETATM    8  C   UNL     1     -44.624 -54.079  13.073  1.00  0.00     0.330 C 
HETATM    9  O   UNL     1     -45.494 -54.943  13.200  1.00  0.00    -0.246 OA
HETATM   10  N   UNL     1     -43.307 -54.467  12.970  1.00  0.00    -0.273 N 
HETATM   11  C   UNL     1     -42.209 -53.641  13.031  1.00  0.00     0.280 C 
HETATM   12  O   UNL     1     -41.095 -54.101  13.264  1.00  0.00    -0.265 OA
HETATM   13  C   UNL     1     -42.535 -52.263  12.876  1.00  0.00     0.164 C 
HETATM   14  H   UNL     1     -43.135 -55.453  13.076  1.00  0.00     0.173 HD
ENDROOT
BRANCH   2  15
HETATM   15  N   UNL     1     -42.325 -48.723  12.639  1.00  0.00    -0.217 N 
HETATM   16  C   UNL     1     -42.096 -47.847  13.781  1.00  0.00     0.141 C 
HETATM   17  C   UNL     1     -42.955 -46.588  13.694  1.00  0.00     0.021 C 
HETATM   18  C   UNL     1     -42.780 -45.876  12.362  1.00  0.00     0.007 C 
HETATM   19  C   UNL     1     -43.071 -46.838  11.205  1.00  0.00     0.000 C 
HETATM   20  C   UNL     1     -42.865 -46.121   9.872  1.00  0.00     0.011 C 
HETATM   21  C   UNL     1     -42.192 -48.096  11.313  1.00  0.00     0.145 C 
ENDBRANCH   2  15
BRANCH   1  22
HETATM   22  C   UNL     1     -40.418 -51.071  12.151  1.00  0.00     0.174 C 
BRANCH  22  23
HETATM   23  C   UNL     1     -39.301 -50.820  13.164  1.00  0.00     0.187 C 
BRANCH  23  24
HETATM   24  O   UNL     1     -38.244 -51.759  12.986  1.00  0.00    -0.394 OA
HETATM   25  C   UNL     1     -37.068 -51.139  12.481  1.00  0.00     0.201 C 
ENDBRANCH  23  24
ENDBRANCH  22  23
ENDBRANCH   1  22
TORSDOF 4
ENDMDL
MODEL 8
REMARK VINA RESULT:      -5.7      2.212      3.449
REMARK  4 active torsions:
REMARK  status: ('A' for Active; 'I' for Inactive)
REMARK    1  A    between atoms: O_2  and  C_3 
REMARK    2  A    between atoms: C_3  and  C_4 
REMARK    3  A    between atoms: C_4  and  N_5 
REMARK    4  A    between atoms: C_6  and  N_18 
ROOT
HETATM    1  N   UNL     1     -40.781 -49.457  13.183  1.00  0.00    -0.172 N 
HETATM    2  C   UNL     1     -41.578 -50.366  12.472  1.00  0.00     0.685 C 
HETATM    3  N   UNL     1     -42.125 -49.756  11.430  1.00  0.00    -0.174 N 
ATOM      4  HN  UNL     1     -42.801 -50.148  10.774  1.00  0.00     0.186 HD
HETATM    5  C   UNL     1     -41.605 -48.505  11.411  1.00  0.00     0.160 C 
HETATM    6  N   UNL     1     -41.893 -47.510  10.493  1.00  0.00    -0.287 N 
HETATM    7  C   UNL     1     -42.794 -47.710   9.382  1.00  0.00     0.163 C 
HETATM    8  C   UNL     1     -41.303 -46.263  10.648  1.00  0.00     0.330 C 
HETATM    9  O   UNL     1     -41.486 -45.318   9.879  1.00  0.00    -0.246 OA
HETATM   10  N   UNL     1     -40.451 -46.099  11.718  1.00  0.00    -0.273 N 
HETATM   11  C   UNL     1     -39.979 -47.093  12.541  1.00  0.00     0.280 C 
HETATM   12  O   UNL     1     -38.985 -46.908  13.237  1.00  0.00    -0.265 OA
HETATM   13  C   UNL     1     -40.706 -48.313  12.422  1.00  0.00     0.164 C 
HETATM   14  H   UNL     1     -39.972 -45.214  11.759  1.00  0.00     0.173 HD
ENDROOT
BRANCH   2  15
HETATM   15  N   UNL     1     -41.812 -51.667  12.817  1.00  0.00    -0.217 N 
HETATM   16  C   UNL     1     -43.056 -52.181  13.377  1.00  0.00     0.141 C 
HETATM   17  C   UNL     1     -42.808 -52.931  14.683  1.00  0.00     0.021 C 
HETATM   18  C   UNL     1     -41.746 -54.007  14.523  1.00  0.00     0.007 C 
HETATM   19  C   UNL     1     -40.454 -53.398  13.968  1.00  0.00     0.000 C 
HETATM   20  C   UNL     1     -39.403 -54.492  13.784  1.00  0.00     0.011 C 
HETATM   21  C   UNL     1     -40.729 -52.651  12.651  1.00  0.00     0.145 C 
ENDBRANCH   2  15
BRANCH   1  22
HETATM   22  C   UNL     1     -40.290 -49.643  14.539  1.00  0.00     0.174 C 
BRANCH  22  23
HETATM   23  C   UNL     1     -38.905 -50.255  14.753  1.00  0.00     0.187 C 
BRANCH  23  24
HETATM   24  O   UNL     1     -38.026 -49.887  13.694  1.00  0.00    -0.394 OA
HETATM   25  C   UNL     1     -37.459 -51.027  13.061  1.00  0.00     0.201 C 
ENDBRANCH  23  24
ENDBRANCH  22  23
ENDBRANCH   1  22
TORSDOF 4
ENDMDL
MODEL 9
REMARK VINA RESULT:      -5.7      2.667      4.338
REMARK  4 active torsions:
REMARK  status: ('A' for Active; 'I' for Inactive)
REMARK    1  A    between atoms: O_2  and  C_3 
REMARK    2  A    between atoms: C_3  and  C_4 
REMARK    3  A    between atoms: C_4  and  N_5 
REMARK    4  A    between atoms: C_6  and  N_18 
ROOT
HETATM    1  N   UNL     1     -41.368 -48.620  12.408  1.00  0.00    -0.172 N 
HETATM    2  C   UNL     1     -42.461 -49.495  12.487  1.00  0.00     0.685 C 
HETATM    3  N   UNL     1     -43.438 -49.056  11.706  1.00  0.00    -0.174 N 
ATOM      4  HN  UNL     1     -44.373 -49.451  11.613  1.00  0.00     0.186 HD
HETATM    5  C   UNL     1     -42.943 -47.976  11.055  1.00  0.00     0.160 C 
HETATM    6  N   UNL     1     -43.616 -47.193  10.134  1.00  0.00    -0.287 N 
HETATM    7  C   UNL     1     -44.970 -47.470   9.715  1.00  0.00     0.163 C 
HETATM    8  C   UNL     1     -42.971 -46.089   9.594  1.00  0.00     0.330 C 
HETATM    9  O   UNL     1     -43.480 -45.338   8.758  1.00  0.00    -0.246 OA
HETATM   10  N   UNL     1     -41.682 -45.846  10.012  1.00  0.00    -0.273 N 
HETATM   11  C   UNL     1     -40.900 -46.687  10.768  1.00  0.00     0.280 C 
HETATM   12  O   UNL     1     -39.682 -46.542  10.805  1.00  0.00    -0.265 OA
HETATM   13  C   UNL     1     -41.642 -47.730  11.394  1.00  0.00     0.164 C 
HETATM   14  H   UNL     1     -41.208 -45.090   9.544  1.00  0.00     0.173 HD
ENDROOT
BRANCH   2  15
HETATM   15  N   UNL     1     -42.546 -50.602  13.283  1.00  0.00    -0.217 N 
HETATM   16  C   UNL     1     -42.863 -50.596  14.706  1.00  0.00     0.141 C 
HETATM   17  C   UNL     1     -41.797 -51.331  15.514  1.00  0.00     0.021 C 
HETATM   18  C   UNL     1     -41.544 -52.730  14.974  1.00  0.00     0.007 C 
HETATM   19  C   UNL     1     -41.178 -52.665  13.487  1.00  0.00     0.000 C 
HETATM   20  C   UNL     1     -40.954 -54.077  12.947  1.00  0.00     0.011 C 
HETATM   21  C   UNL     1     -42.268 -51.923  12.693  1.00  0.00     0.145 C 
ENDBRANCH   2  15
BRANCH   1  22
HETATM   22  C   UNL     1     -40.255 -48.569  13.343  1.00  0.00     0.174 C 
BRANCH  22  23
HETATM   23  C   UNL     1     -40.176 -47.417  14.347  1.00  0.00     0.187 C 
BRANCH  23  24
HETATM   24  O   UNL     1     -38.992 -46.652  14.137  1.00  0.00    -0.394 OA
HETATM   25  C   UNL     1     -39.268 -45.257  14.099  1.00  0.00     0.201 C 
ENDBRANCH  23  24
ENDBRANCH  22  23
ENDBRANCH   1  22
TORSDOF 4
ENDMDL
