MODEL 1
REMARK VINA RESULT:      -6.8      0.000      0.000
REMARK  2 active torsions:
REMARK  status: ('A' for Active; 'I' for Inactive)
REMARK    1  A    between atoms: C_5  and  N_6 
REMARK       I    between atoms: N_6  and  C_7 
REMARK       I    between atoms: C_7  and  N_9 
REMARK    2  A    between atoms: N_9  and  C_10 
ROOT
HETATM    1  N   UNL     1     -40.963 -49.062  10.617  1.00  0.00    -0.295 N 
HETATM    2  C   UNL     1     -41.198 -50.060  11.533  1.00  0.00     0.322 C 
HETATM    3  O   UNL     1     -40.307 -50.847  11.836  1.00  0.00    -0.247 OA
HETATM    4  N   UNL     1     -42.476 -50.125  12.002  1.00  0.00    -0.337 N 
HETATM    5  H   UNL     1     -40.059 -49.124  10.176  1.00  0.00     0.172 HD
HETATM    6  H   UNL     1     -43.004 -49.274  11.824  1.00  0.00     0.164 HD
ENDROOT
BRANCH   1   7
HETATM    7  C   UNL     1     -41.846 -48.045  10.221  1.00  0.00     0.108 A 
HETATM    8  C   UNL     1     -41.888 -46.869  10.962  1.00  0.00     0.052 A 
HETATM    9  C   UNL     1     -42.699 -45.821  10.514  1.00  0.00     0.047 A 
HETATM   10  C   UNL     1     -43.463 -45.997   9.372  1.00  0.00     0.131 A 
HETATM   11  F   UNL     1     -44.235 -45.007   8.909  1.00  0.00    -0.205 F 
HETATM   12  C   UNL     1     -43.403 -47.206   8.715  1.00  0.00     0.132 A 
HETATM   13  N   UNL     1     -42.609 -48.227   9.114  1.00  0.00    -0.349 N 
ATOM     14  HN  UNL     1     -42.585 -49.106   8.597  1.00  0.00     0.167 HD
ENDBRANCH   1   7
BRANCH   4  15
HETATM   15  C   UNL     1     -42.966 -50.926  13.065  1.00  0.00     0.096 A 
HETATM   16  C   UNL     1     -44.476 -50.832  13.255  1.00  0.00     0.019 A 
HETATM   17  C   UNL     1     -43.834 -52.148  12.954  1.00  0.00     0.019 A 
HETATM   18  C   UNL     1     -45.196 -51.044  14.571  1.00  0.00    -0.008 C 
HETATM   19  C   UNL     1     -44.209 -53.003  14.172  1.00  0.00    -0.008 C 
HETATM   20  C   UNL     1     -45.708 -53.353  14.065  1.00  0.00     0.005 C 
HETATM   21  C   UNL     1     -44.265 -51.992  15.335  1.00  0.00     0.010 C 
HETATM   22  C   UNL     1     -46.394 -51.983  14.294  1.00  0.00     0.005 C 
ENDBRANCH   4  15
TORSDOF 2
ENDMDL
MODEL 2
REMARK VINA RESULT:      -6.8      2.256      2.764
REMARK  2 active torsions:
REMARK  status: ('A' for Active; 'I' for Inactive)
REMARK    1  A    between atoms: C_5  and  N_6 
REMARK       I    between atoms: N_6  and  C_7 
REMARK       I    between atoms: C_7  and  N_9 
REMARK    2  A    between atoms: N_9  and  C_10 
ROOT
HETATM    1  N   UNL     1     -41.233 -47.614  10.400  1.00  0.00    -0.295 N 
HETATM    2  C   UNL     1     -40.555 -48.588  11.094  1.00  0.00     0.322 C 
HETATM    3  O   UNL     1     -39.460 -48.348  11.592  1.00  0.00    -0.247 OA
HETATM    4  N   UNL     1     -41.161 -49.809  11.119  1.00  0.00    -0.337 N 
HETATM    5  H   UNL     1     -40.702 -46.768  10.269  1.00  0.00     0.172 HD
HETATM    6  H   UNL     1     -42.144 -49.765  10.861  1.00  0.00     0.164 HD
ENDROOT
BRANCH   1   7
HETATM    7  C   UNL     1     -42.517 -47.706   9.840  1.00  0.00     0.108 A 
HETATM    8  C   UNL     1     -43.622 -47.531  10.666  1.00  0.00     0.052 A 
HETATM    9  C   UNL     1     -44.897 -47.532  10.090  1.00  0.00     0.047 A 
HETATM   10  C   UNL     1     -45.025 -47.742   8.727  1.00  0.00     0.131 A 
HETATM   11  F   UNL     1     -46.230 -47.730   8.145  1.00  0.00    -0.205 F 
HETATM   12  C   UNL     1     -43.887 -47.952   7.980  1.00  0.00     0.132 A 
HETATM   13  N   UNL     1     -42.641 -47.934   8.508  1.00  0.00    -0.349 N 
ATOM     14  HN  UNL     1     -41.820 -48.086   7.922  1.00  0.00     0.167 HD
ENDBRANCH   1   7
BRANCH   4  15
HETATM   15  C   UNL     1     -40.790 -50.941  11.888  1.00  0.00     0.096 A 
HETATM   16  C   UNL     1     -41.809 -51.314  12.959  1.00  0.00     0.019 A 
HETATM   17  C   UNL     1     -41.449 -52.293  11.888  1.00  0.00     0.019 A 
HETATM   18  C   UNL     1     -41.479 -52.020  14.257  1.00  0.00    -0.008 C 
HETATM   19  C   UNL     1     -40.888 -53.481  12.680  1.00  0.00    -0.008 C 
HETATM   20  C   UNL     1     -42.067 -54.193  13.372  1.00  0.00     0.005 C 
HETATM   21  C   UNL     1     -40.224 -52.829  13.910  1.00  0.00     0.010 C 
HETATM   22  C   UNL     1     -42.511 -53.158  14.438  1.00  0.00     0.005 C 
ENDBRANCH   4  15
TORSDOF 2
ENDMDL
MODEL 3
REMARK VINA RESULT:      -6.7      1.393      1.739
REMARK  2 active torsions:
REMARK  status: ('A' for Active; 'I' for Inactive)
REMARK    1  A    between atoms: C_5  and  N_6 
REMARK       I    between atoms: N_6  and  C_7 
REMARK       I    between atoms: C_7  and  N_9 
REMARK    2  A    between atoms: N_9  and  C_10 
ROOT
HETATM    1  N   UNL     1     -40.627 -50.597  11.109  1.00  0.00    -0.295 N 
HETATM    2  C   UNL     1     -41.316 -51.523  11.856  1.00  0.00     0.322 C 
HETATM    3  O   UNL     1     -40.951 -52.695  11.883  1.00  0.00    -0.247 OA
HETATM    4  N   UNL     1     -42.428 -51.048  12.485  1.00  0.00    -0.337 N 
HETATM    5  H   UNL     1     -39.899 -50.999  10.539  1.00  0.00     0.172 HD
HETATM    6  H   UNL     1     -42.445 -50.032  12.539  1.00  0.00     0.164 HD
ENDROOT
BRANCH   1   7
HETATM    7  C   UNL     1     -40.868 -49.216  11.033  1.00  0.00     0.108 A 
HETATM    8  C   UNL     1     -40.060 -48.354  11.764  1.00  0.00     0.052 A 
HETATM    9  C   UNL     1     -40.241 -46.975  11.615  1.00  0.00     0.047 A 
HETATM   10  C   UNL     1     -41.241 -46.510  10.777  1.00  0.00     0.131 A 
HETATM   11  F   UNL     1     -41.428 -45.197  10.600  1.00  0.00    -0.205 F 
HETATM   12  C   UNL     1     -42.032 -47.426  10.119  1.00  0.00     0.132 A 
HETATM   13  N   UNL     1     -41.863 -48.764  10.227  1.00  0.00    -0.349 N 
ATOM     14  HN  UNL     1     -42.464 -49.412   9.719  1.00  0.00     0.167 HD
ENDBRANCH   1   7
BRANCH   4  15
HETATM   15  C   UNL     1     -43.228 -51.716  13.447  1.00  0.00     0.096 A 
HETATM   16  C   UNL     1     -44.554 -51.018  13.729  1.00  0.00     0.019 A 
HETATM   17  C   UNL     1     -44.536 -52.419  13.208  1.00  0.00     0.019 A 
HETATM   18  C   UNL     1     -45.312 -51.101  15.038  1.00  0.00    -0.008 C 
HETATM   19  C   UNL     1     -45.257 -53.207  14.309  1.00  0.00    -0.008 C 
HETATM   20  C   UNL     1     -46.759 -52.865  14.234  1.00  0.00     0.005 C 
HETATM   21  C   UNL     1     -44.888 -52.460  15.606  1.00  0.00     0.010 C 
HETATM   22  C   UNL     1     -46.794 -51.385  14.695  1.00  0.00     0.005 C 
ENDBRANCH   4  15
TORSDOF 2
ENDMDL
MODEL 4
REMARK VINA RESULT:      -6.4      4.023      5.132
REMARK  2 active torsions:
REMARK  status: ('A' for Active; 'I' for Inactive)
REMARK    1  A    between atoms: C_5  and  N_6 
REMARK       I    between atoms: N_6  and  C_7 
REMARK       I    between atoms: C_7  and  N_9 
REMARK    2  A    between atoms: N_9  and  C_10 
ROOT
HETATM    1  N   UNL     1     -42.918 -45.958   9.011  1.00  0.00    -0.295 N 
HETATM    2  C   UNL     1     -41.932 -46.118   9.956  1.00  0.00     0.322 C 
HETATM    3  O   UNL     1     -41.157 -45.201  10.207  1.00  0.00    -0.247 OA
HETATM    4  N   UNL     1     -41.863 -47.359  10.516  1.00  0.00    -0.337 N 
HETATM    5  H   UNL     1     -42.857 -45.087   8.508  1.00  0.00     0.172 HD
HETATM    6  H   UNL     1     -42.707 -47.907  10.363  1.00  0.00     0.164 HD
ENDROOT
BRANCH   1   7
HETATM    7  C   UNL     1     -43.922 -46.877   8.665  1.00  0.00     0.108 A 
HETATM    8  C   UNL     1     -45.115 -46.864   9.378  1.00  0.00     0.052 A 
HETATM    9  C   UNL     1     -46.148 -47.716   8.972  1.00  0.00     0.047 A 
HETATM   10  C   UNL     1     -45.941 -48.570   7.902  1.00  0.00     0.131 A 
HETATM   11  F   UNL     1     -46.916 -49.383   7.479  1.00  0.00    -0.205 F 
HETATM   12  C   UNL     1     -44.716 -48.557   7.273  1.00  0.00     0.132 A 
HETATM   13  N   UNL     1     -43.709 -47.727   7.629  1.00  0.00    -0.349 N 
ATOM     14  HN  UNL     1     -42.817 -47.741   7.134  1.00  0.00     0.167 HD
ENDBRANCH   1   7
BRANCH   4  15
HETATM   15  C   UNL     1     -41.074 -47.765  11.622  1.00  0.00     0.096 A 
HETATM   16  C   UNL     1     -40.513 -49.177  11.489  1.00  0.00     0.019 A 
HETATM   17  C   UNL     1     -39.591 -48.010  11.637  1.00  0.00     0.019 A 
HETATM   18  C   UNL     1     -40.179 -50.087  12.652  1.00  0.00    -0.008 C 
HETATM   19  C   UNL     1     -38.825 -48.337  12.926  1.00  0.00    -0.008 C 
HETATM   20  C   UNL     1     -37.837 -49.480  12.617  1.00  0.00     0.005 C 
HETATM   21  C   UNL     1     -39.849 -49.107  13.784  1.00  0.00     0.010 C 
HETATM   22  C   UNL     1     -38.780 -50.688  12.378  1.00  0.00     0.005 C 
ENDBRANCH   4  15
TORSDOF 2
ENDMDL
MODEL 5
REMARK VINA RESULT:      -6.2      3.268      4.462
REMARK  2 active torsions:
REMARK  status: ('A' for Active; 'I' for Inactive)
REMARK    1  A    between atoms: C_5  and  N_6 
REMARK       I    between atoms: N_6  and  C_7 
REMARK       I    between atoms: C_7  and  N_9 
REMARK    2  A    between atoms: N_9  and  C_10 
ROOT
HETATM    1  N   UNL     1     -42.645 -52.720  11.741  1.00  0.00    -0.295 N 
HETATM    2  C   UNL     1     -43.716 -53.066  12.531  1.00  0.00     0.322 C 
HETATM    3  O   UNL     1     -44.472 -53.971  12.190  1.00  0.00    -0.247 OA
HETATM    4  N   UNL     1     -43.885 -52.300  13.645  1.00  0.00    -0.337 N 
HETATM    5  H   UNL     1     -42.626 -53.198  10.854  1.00  0.00     0.172 HD
HETATM    6  H   UNL     1     -43.054 -51.763  13.883  1.00  0.00     0.164 HD
ENDROOT
BRANCH   1   7
HETATM    7  C   UNL     1     -41.654 -51.766  12.023  1.00  0.00     0.108 A 
HETATM    8  C   UNL     1     -40.483 -52.183  12.645  1.00  0.00     0.052 A 
HETATM    9  C   UNL     1     -39.458 -51.251  12.841  1.00  0.00     0.047 A 
HETATM   10  C   UNL     1     -39.652 -49.938  12.446  1.00  0.00     0.131 A 
HETATM   11  F   UNL     1     -38.685 -49.027  12.604  1.00  0.00    -0.205 F 
HETATM   12  C   UNL     1     -40.858 -49.590  11.877  1.00  0.00     0.132 A 
HETATM   13  N   UNL     1     -41.855 -50.476  11.654  1.00  0.00    -0.349 N 
ATOM     14  HN  UNL     1     -42.732 -50.183  11.223  1.00  0.00     0.167 HD
ENDBRANCH   1   7
BRANCH   4  15
HETATM   15  C   UNL     1     -44.784 -52.524  14.719  1.00  0.00     0.096 A 
HETATM   16  C   UNL     1     -44.974 -51.309  15.621  1.00  0.00     0.019 A 
HETATM   17  C   UNL     1     -46.143 -51.909  14.908  1.00  0.00     0.019 A 
HETATM   18  C   UNL     1     -45.342 -51.371  17.089  1.00  0.00    -0.008 C 
HETATM   19  C   UNL     1     -47.077 -52.316  16.055  1.00  0.00    -0.008 C 
HETATM   20  C   UNL     1     -47.695 -51.031  16.645  1.00  0.00     0.005 C 
HETATM   21  C   UNL     1     -46.117 -52.689  17.203  1.00  0.00     0.010 C 
HETATM   22  C   UNL     1     -46.479 -50.350  17.323  1.00  0.00     0.005 C 
ENDBRANCH   4  15
TORSDOF 2
ENDMDL
MODEL 6
REMARK VINA RESULT:      -5.9      3.851      6.652
REMARK  2 active torsions:
REMARK  status: ('A' for Active; 'I' for Inactive)
REMARK    1  A    between atoms: C_5  and  N_6 
REMARK       I    between atoms: N_6  and  C_7 
REMARK       I    between atoms: C_7  and  N_9 
REMARK    2  A    between atoms: N_9  and  C_10 
ROOT
HETATM    1  N   UNL     1     -42.649 -54.035  13.533  1.00  0.00    -0.295 N 
HETATM    2  C   UNL     1     -41.360 -53.633  13.275  1.00  0.00     0.322 C 
HETATM    3  O   UNL     1     -40.473 -54.464  13.101  1.00  0.00    -0.247 OA
HETATM    4  N   UNL     1     -41.159 -52.286  13.293  1.00  0.00    -0.337 N 
HETATM    5  H   UNL     1     -42.744 -55.030  13.661  1.00  0.00     0.172 HD
HETATM    6  H   UNL     1     -42.026 -51.758  13.224  1.00  0.00     0.164 HD
ENDROOT
BRANCH   1   7
HETATM    7  C   UNL     1     -43.781 -53.218  13.680  1.00  0.00     0.108 A 
HETATM    8  C   UNL     1     -44.648 -53.075  12.603  1.00  0.00     0.052 A 
HETATM    9  C   UNL     1     -45.823 -52.336  12.779  1.00  0.00     0.047 A 
HETATM   10  C   UNL     1     -46.070 -51.740  14.004  1.00  0.00     0.131 A 
HETATM   11  F   UNL     1     -47.193 -51.042  14.210  1.00  0.00    -0.205 F 
HETATM   12  C   UNL     1     -45.142 -51.889  15.012  1.00  0.00     0.132 A 
HETATM   13  N   UNL     1     -44.011 -52.617  14.875  1.00  0.00    -0.349 N 
ATOM     14  HN  UNL     1     -43.350 -52.711  15.647  1.00  0.00     0.167 HD
ENDBRANCH   1   7
BRANCH   4  15
HETATM   15  C   UNL     1     -39.993 -51.581  12.900  1.00  0.00     0.096 A 
HETATM   16  C   UNL     1     -40.145 -50.065  12.959  1.00  0.00     0.019 A 
HETATM   17  C   UNL     1     -39.097 -50.749  13.775  1.00  0.00     0.019 A 
HETATM   18  C   UNL     1     -39.383 -49.085  12.092  1.00  0.00    -0.008 C 
HETATM   19  C   UNL     1     -37.794 -50.125  13.260  1.00  0.00    -0.008 C 
HETATM   20  C   UNL     1     -37.713 -48.680  13.795  1.00  0.00     0.005 C 
HETATM   21  C   UNL     1     -38.082 -49.832  11.774  1.00  0.00     0.010 C 
HETATM   22  C   UNL     1     -38.850 -47.967  13.018  1.00  0.00     0.005 C 
ENDBRANCH   4  15
TORSDOF 2
ENDMDL
MODEL 7
REMARK VINA RESULT:      -5.7      4.853      6.413
REMARK  2 active torsions:
REMARK  status: ('A' for Active; 'I' for Inactive)
REMARK    1  A    between atoms: C_5  and  N_6 
REMARK       I    between atoms: N_6  and  C_7 
REMARK       I    between atoms: C_7  and  N_9 
REMARK    2  A    between atoms: N_9  and  C_10 
ROOT
HETATM    1  N   UNL     1     -44.795 -54.675  13.461  1.00  0.00    -0.295 N 
HETATM    2  C   UNL     1     -45.751 -54.411  14.413  1.00  0.00     0.322 C 
HETATM    3  O   UNL     1     -46.728 -55.144  14.532  1.00  0.00    -0.247 OA
HETATM    4  N   UNL     1     -45.549 -53.274  15.137  1.00  0.00    -0.337 N 
HETATM    5  H   UNL     1     -45.039 -55.433  12.844  1.00  0.00     0.172 HD
HETATM    6  H   UNL     1     -44.595 -52.927  15.065  1.00  0.00     0.164 HD
ENDROOT
BRANCH   1   7
HETATM    7  C   UNL     1     -43.592 -53.983  13.249  1.00  0.00     0.108 A 
HETATM    8  C   UNL     1     -42.479 -54.327  14.009  1.00  0.00     0.052 A 
HETATM    9  C   UNL     1     -41.258 -53.702  13.733  1.00  0.00     0.047 A 
HETATM   10  C   UNL     1     -41.200 -52.737  12.742  1.00  0.00     0.131 A 
HETATM   11  F   UNL     1     -40.044 -52.134  12.443  1.00  0.00    -0.205 F 
HETATM   12  C   UNL     1     -42.355 -52.417  12.062  1.00  0.00     0.132 A 
HETATM   13  N   UNL     1     -43.543 -53.022  12.292  1.00  0.00    -0.349 N 
ATOM     14  HN  UNL     1     -44.375 -52.764  11.763  1.00  0.00     0.167 HD
ENDBRANCH   1   7
BRANCH   4  15
HETATM   15  C   UNL     1     -46.262 -52.842  16.284  1.00  0.00     0.096 A 
HETATM   16  C   UNL     1     -45.812 -51.482  16.807  1.00  0.00     0.019 A 
HETATM   17  C   UNL     1     -47.227 -51.692  16.372  1.00  0.00     0.019 A 
HETATM   18  C   UNL     1     -45.913 -51.035  18.251  1.00  0.00    -0.008 C 
HETATM   19  C   UNL     1     -48.029 -51.388  17.644  1.00  0.00    -0.008 C 
HETATM   20  C   UNL     1     -47.995 -49.863  17.876  1.00  0.00     0.005 C 
HETATM   21  C   UNL     1     -47.100 -51.842  18.788  1.00  0.00     0.010 C 
HETATM   22  C   UNL     1     -46.513 -49.610  18.251  1.00  0.00     0.005 C 
ENDBRANCH   4  15
TORSDOF 2
ENDMDL
MODEL 8
REMARK VINA RESULT:      -5.6      5.690      7.535
REMARK  2 active torsions:
REMARK  status: ('A' for Active; 'I' for Inactive)
REMARK    1  A    between atoms: C_5  and  N_6 
REMARK       I    between atoms: N_6  and  C_7 
REMARK       I    between atoms: C_7  and  N_9 
REMARK    2  A    between atoms: N_9  and  C_10 
ROOT
HETATM    1  N   UNL     1     -46.396 -53.626  14.331  1.00  0.00    -0.295 N 
HETATM    2  C   UNL     1     -45.200 -53.790  13.674  1.00  0.00     0.322 C 
HETATM    3  O   UNL     1     -45.161 -54.355  12.585  1.00  0.00    -0.247 OA
HETATM    4  N   UNL     1     -44.103 -53.340  14.347  1.00  0.00    -0.337 N 
HETATM    5  H   UNL     1     -47.169 -54.095  13.886  1.00  0.00     0.172 HD
HETATM    6  H   UNL     1     -44.341 -52.708  15.108  1.00  0.00     0.164 HD
ENDROOT
BRANCH   1   7
HETATM    7  C   UNL     1     -46.617 -52.942  15.537  1.00  0.00     0.108 A 
HETATM    8  C   UNL     1     -47.286 -51.724  15.503  1.00  0.00     0.052 A 
HETATM    9  C   UNL     1     -47.588 -51.089  16.712  1.00  0.00     0.047 A 
HETATM   10  C   UNL     1     -47.181 -51.669  17.902  1.00  0.00     0.131 A 
HETATM   11  F   UNL     1     -47.469 -51.095  19.075  1.00  0.00    -0.205 F 
HETATM   12  C   UNL     1     -46.482 -52.856  17.854  1.00  0.00     0.132 A 
HETATM   13  N   UNL     1     -46.198 -53.502  16.700  1.00  0.00    -0.349 N 
ATOM     14  HN  UNL     1     -45.685 -54.384  16.705  1.00  0.00     0.167 HD
ENDBRANCH   1   7
BRANCH   4  15
HETATM   15  C   UNL     1     -42.778 -53.219  13.856  1.00  0.00     0.096 A 
HETATM   16  C   UNL     1     -41.716 -53.254  14.950  1.00  0.00     0.019 A 
HETATM   17  C   UNL     1     -41.710 -54.277  13.860  1.00  0.00     0.019 A 
HETATM   18  C   UNL     1     -40.361 -52.583  14.860  1.00  0.00    -0.008 C 
HETATM   19  C   UNL     1     -40.343 -54.068  13.196  1.00  0.00    -0.008 C 
HETATM   20  C   UNL     1     -39.260 -54.616  14.148  1.00  0.00     0.005 C 
HETATM   21  C   UNL     1     -40.080 -52.556  13.353  1.00  0.00     0.010 C 
HETATM   22  C   UNL     1     -39.305 -53.613  15.328  1.00  0.00     0.005 C 
ENDBRANCH   4  15
TORSDOF 2
ENDMDL
MODEL 9
REMARK VINA RESULT:      -5.6      3.560      6.720
REMARK  2 active torsions:
REMARK  status: ('A' for Active; 'I' for Inactive)
REMARK    1  A    between atoms: C_5  and  N_6 
REMARK       I    between atoms: N_6  and  C_7 
REMARK       I    between atoms: C_7  and  N_9 
REMARK    2  A    between atoms: N_9  and  C_10 
ROOT
HETATM    1  N   UNL     1     -41.192 -53.669  13.231  1.00  0.00    -0.295 N 
HETATM    2  C   UNL     1     -40.756 -52.474  12.709  1.00  0.00     0.322 C 
HETATM    3  O   UNL     1     -39.569 -52.307  12.447  1.00  0.00    -0.247 OA
HETATM    4  N   UNL     1     -41.716 -51.516  12.577  1.00  0.00    -0.337 N 
HETATM    5  H   UNL     1     -40.445 -54.307  13.457  1.00  0.00     0.172 HD
HETATM    6  H   UNL     1     -42.659 -51.895  12.623  1.00  0.00     0.164 HD
ENDROOT
BRANCH   1   7
HETATM    7  C   UNL     1     -42.516 -54.042  13.513  1.00  0.00     0.108 A 
HETATM    8  C   UNL     1     -42.852 -54.380  14.818  1.00  0.00     0.052 A 
HETATM    9  C   UNL     1     -44.190 -54.661  15.116  1.00  0.00     0.047 A 
HETATM   10  C   UNL     1     -45.130 -54.631  14.100  1.00  0.00     0.131 A 
HETATM   11  F   UNL     1     -46.420 -54.878  14.356  1.00  0.00    -0.205 F 
HETATM   12  C   UNL     1     -44.714 -54.331  12.821  1.00  0.00     0.132 A 
HETATM   13  N   UNL     1     -43.431 -54.033  12.511  1.00  0.00    -0.349 N 
ATOM     14  HN  UNL     1     -43.161 -53.808  11.553  1.00  0.00     0.167 HD
ENDBRANCH   1   7
BRANCH   4  15
HETATM   15  C   UNL     1     -41.602 -50.264  11.920  1.00  0.00     0.096 A 
HETATM   16  C   UNL     1     -42.598 -49.221  12.414  1.00  0.00     0.019 A 
HETATM   17  C   UNL     1     -41.129 -48.967  12.515  1.00  0.00     0.019 A 
HETATM   18  C   UNL     1     -43.134 -48.075  11.582  1.00  0.00    -0.008 C 
HETATM   19  C   UNL     1     -40.939 -47.698  11.674  1.00  0.00    -0.008 C 
HETATM   20  C   UNL     1     -41.518 -46.509  12.468  1.00  0.00     0.005 C 
HETATM   21  C   UNL     1     -42.010 -47.817  10.572  1.00  0.00     0.010 C 
HETATM   22  C   UNL     1     -43.041 -46.795  12.446  1.00  0.00     0.005 C 
ENDBRANCH   4  15
TORSDOF 2
ENDMDL
