MODEL 1
REMARK VINA RESULT:      -5.0      0.000      0.000
REMARK  5 active torsions:
REMARK  status: ('A' for Active; 'I' for Inactive)
REMARK       I    between atoms: N_2  and  C_4 
REMARK       I    between atoms: C_4  and  N_14 
REMARK    1  A    between atoms: N_5  and  C_6 
REMARK    2  A    between atoms: C_6  and  C_7 
REMARK    3  A    between atoms: C_7  and  N_8 
REMARK    4  A    between atoms: N_14  and  C_15 
REMARK    5  A    between atoms: C_15  and  C_16 
ROOT
HETATM    1  C   UNL     1     -41.084 -54.040  12.776  1.00  0.00     0.165 C 
HETATM    2  N   UNL     1     -42.459 -53.581  12.755  1.00  0.00    -0.231 N 
ATOM      3  HN  UNL     1     -43.224 -54.242  12.891  1.00  0.00     0.177 HD
HETATM    4  C   UNL     1     -42.709 -52.332  12.563  1.00  0.00     0.669 C 
HETATM    5  N   UNL     1     -41.773 -51.389  12.248  1.00  0.00    -0.225 N 
HETATM    6  N   UNL     1     -43.987 -51.876  12.578  1.00  0.00    -0.223 N 
HETATM    7  H   UNL     1     -41.092 -51.741  11.585  1.00  0.00     0.177 HD
HETATM    8  H   UNL     1     -44.182 -50.898  12.719  1.00  0.00     0.178 HD
ENDROOT
BRANCH   5   9
HETATM    9  C   UNL     1     -41.954 -49.947  12.195  1.00  0.00     0.159 C 
BRANCH   9  10
HETATM   10  C   UNL     1     -40.982 -49.330  11.191  1.00  0.00     0.168 C 
BRANCH  10  11
HETATM   11  N   UNL     1     -39.605 -49.450  11.627  1.00  0.00    -0.302 N 
HETATM   12  C   UNL     1     -39.077 -49.023  12.811  1.00  0.00     0.111 A 
HETATM   13  C   UNL     1     -37.743 -49.351  12.771  1.00  0.00     0.037 A 
HETATM   14  C   UNL     1     -37.564 -49.961  11.516  1.00  0.00     0.108 A 
HETATM   15  N   UNL     1     -38.696 -50.020  10.813  1.00  0.00    -0.310 N 
ATOM     16  HN  UNL     1     -38.840 -50.405   9.880  1.00  0.00     0.186 HD
ENDBRANCH  10  11
ENDBRANCH   9  10
ENDBRANCH   5   9
BRANCH   6  17
HETATM   17  C   UNL     1     -45.143 -52.732  12.650  1.00  0.00     0.164 C 
BRANCH  17  18
HETATM   18  C   UNL     1     -46.298 -51.836  12.956  1.00  0.00    -0.017 C 
HETATM   19  C   UNL     1     -46.677 -51.452  14.185  1.00  0.00     0.008 C 
ENDBRANCH  17  18
ENDBRANCH   6  17
TORSDOF 5
ENDMDL
MODEL 2
REMARK VINA RESULT:      -5.0      2.977      5.070
REMARK  5 active torsions:
REMARK  status: ('A' for Active; 'I' for Inactive)
REMARK       I    between atoms: N_2  and  C_4 
REMARK       I    between atoms: C_4  and  N_14 
REMARK    1  A    between atoms: N_5  and  C_6 
REMARK    2  A    between atoms: C_6  and  C_7 
REMARK    3  A    between atoms: C_7  and  N_8 
REMARK    4  A    between atoms: N_14  and  C_15 
REMARK    5  A    between atoms: C_15  and  C_16 
ROOT
HETATM    1  C   UNL     1     -37.881 -49.725  11.394  1.00  0.00     0.165 C 
HETATM    2  N   UNL     1     -38.974 -50.664  11.564  1.00  0.00    -0.231 N 
ATOM      3  HN  UNL     1     -38.782 -51.655  11.703  1.00  0.00     0.177 HD
HETATM    4  C   UNL     1     -40.188 -50.236  11.537  1.00  0.00     0.669 C 
HETATM    5  N   UNL     1     -40.558 -48.957  11.233  1.00  0.00    -0.225 N 
HETATM    6  N   UNL     1     -41.223 -51.092  11.732  1.00  0.00    -0.223 N 
HETATM    7  H   UNL     1     -40.010 -48.577  10.469  1.00  0.00     0.177 HD
HETATM    8  H   UNL     1     -42.131 -50.747  11.998  1.00  0.00     0.178 HD
ENDROOT
BRANCH   5   9
HETATM    9  C   UNL     1     -41.881 -48.366  11.357  1.00  0.00     0.159 C 
BRANCH   9  10
HETATM   10  C   UNL     1     -42.055 -47.243  10.338  1.00  0.00     0.168 C 
BRANCH  10  11
HETATM   11  N   UNL     1     -43.132 -47.518   9.408  1.00  0.00    -0.302 N 
HETATM   12  C   UNL     1     -44.471 -47.383   9.637  1.00  0.00     0.111 A 
HETATM   13  C   UNL     1     -45.095 -47.763   8.472  1.00  0.00     0.037 A 
HETATM   14  C   UNL     1     -44.046 -48.120   7.606  1.00  0.00     0.108 A 
HETATM   15  N   UNL     1     -42.847 -47.977   8.175  1.00  0.00    -0.310 N 
ATOM     16  HN  UNL     1     -41.930 -48.169   7.770  1.00  0.00     0.186 HD
ENDBRANCH  10  11
ENDBRANCH   9  10
ENDBRANCH   5   9
BRANCH   6  17
HETATM   17  C   UNL     1     -41.075 -52.521  11.826  1.00  0.00     0.164 C 
BRANCH  17  18
HETATM   18  C   UNL     1     -41.996 -52.957  12.918  1.00  0.00    -0.017 C 
HETATM   19  C   UNL     1     -41.972 -54.156  13.520  1.00  0.00     0.008 C 
ENDBRANCH  17  18
ENDBRANCH   6  17
TORSDOF 5
ENDMDL
MODEL 3
REMARK VINA RESULT:      -4.9      3.061      5.159
REMARK  5 active torsions:
REMARK  status: ('A' for Active; 'I' for Inactive)
REMARK       I    between atoms: N_2  and  C_4 
REMARK       I    between atoms: C_4  and  N_14 
REMARK    1  A    between atoms: N_5  and  C_6 
REMARK    2  A    between atoms: C_6  and  C_7 
REMARK    3  A    between atoms: C_7  and  N_8 
REMARK    4  A    between atoms: N_14  and  C_15 
REMARK    5  A    between atoms: C_15  and  C_16 
ROOT
HETATM    1  C   UNL     1     -40.192 -45.719  10.698  1.00  0.00     0.165 C 
HETATM    2  N   UNL     1     -41.359 -46.318  10.078  1.00  0.00    -0.231 N 
ATOM      3  HN  UNL     1     -41.943 -45.771   9.446  1.00  0.00     0.177 HD
HETATM    4  C   UNL     1     -41.652 -47.547  10.332  1.00  0.00     0.669 C 
HETATM    5  N   UNL     1     -41.014 -48.326  11.254  1.00  0.00    -0.225 N 
HETATM    6  N   UNL     1     -42.716 -48.137   9.732  1.00  0.00    -0.223 N 
HETATM    7  H   UNL     1     -40.799 -47.810  12.099  1.00  0.00     0.177 HD
HETATM    8  H   UNL     1     -42.789 -49.141   9.689  1.00  0.00     0.178 HD
ENDROOT
BRANCH   5   9
HETATM    9  C   UNL     1     -41.172 -49.756  11.463  1.00  0.00     0.159 C 
BRANCH   9  10
HETATM   10  C   UNL     1     -39.917 -50.337  12.111  1.00  0.00     0.168 C 
BRANCH  10  11
HETATM   11  N   UNL     1     -40.127 -51.693  12.578  1.00  0.00    -0.302 N 
HETATM   12  C   UNL     1     -39.610 -52.264  13.705  1.00  0.00     0.111 A 
HETATM   13  C   UNL     1     -40.081 -53.555  13.726  1.00  0.00     0.037 A 
HETATM   14  C   UNL     1     -40.864 -53.667  12.563  1.00  0.00     0.108 A 
HETATM   15  N   UNL     1     -40.891 -52.535  11.857  1.00  0.00    -0.310 N 
ATOM     16  HN  UNL     1     -41.375 -52.351  10.978  1.00  0.00     0.186 HD
ENDBRANCH  10  11
ENDBRANCH   9  10
ENDBRANCH   5   9
BRANCH   6  17
HETATM   17  C   UNL     1     -43.669 -47.433   8.913  1.00  0.00     0.164 C 
BRANCH  17  18
HETATM   18  C   UNL     1     -44.962 -47.479   9.658  1.00  0.00    -0.017 C 
HETATM   19  C   UNL     1     -46.167 -47.691   9.107  1.00  0.00     0.008 C 
ENDBRANCH  17  18
ENDBRANCH   6  17
TORSDOF 5
ENDMDL
MODEL 4
REMARK VINA RESULT:      -4.9      1.932      2.870
REMARK  5 active torsions:
REMARK  status: ('A' for Active; 'I' for Inactive)
REMARK       I    between atoms: N_2  and  C_4 
REMARK       I    between atoms: C_4  and  N_14 
REMARK    1  A    between atoms: N_5  and  C_6 
REMARK    2  A    between atoms: C_6  and  C_7 
REMARK    3  A    between atoms: C_7  and  N_8 
REMARK    4  A    between atoms: N_14  and  C_15 
REMARK    5  A    between atoms: C_15  and  C_16 
ROOT
HETATM    1  C   UNL     1     -40.740 -53.960  12.836  1.00  0.00     0.165 C 
HETATM    2  N   UNL     1     -42.151 -53.637  12.728  1.00  0.00    -0.231 N 
ATOM      3  HN  UNL     1     -42.854 -54.369  12.822  1.00  0.00     0.177 HD
HETATM    4  C   UNL     1     -42.508 -52.418  12.512  1.00  0.00     0.669 C 
HETATM    5  N   UNL     1     -41.650 -51.389  12.248  1.00  0.00    -0.225 N 
HETATM    6  N   UNL     1     -43.823 -52.089  12.446  1.00  0.00    -0.223 N 
HETATM    7  H   UNL     1     -40.899 -51.674  11.630  1.00  0.00     0.177 HD
HETATM    8  H   UNL     1     -44.119 -51.134  12.568  1.00  0.00     0.178 HD
ENDROOT
BRANCH   5   9
HETATM    9  C   UNL     1     -41.967 -49.972  12.173  1.00  0.00     0.159 C 
BRANCH   9  10
HETATM   10  C   UNL     1     -41.053 -49.280  11.164  1.00  0.00     0.168 C 
BRANCH  10  11
HETATM   11  N   UNL     1     -41.653 -48.073  10.630  1.00  0.00    -0.302 N 
HETATM   12  C   UNL     1     -41.191 -46.795  10.767  1.00  0.00     0.111 A 
HETATM   13  C   UNL     1     -42.087 -45.996  10.098  1.00  0.00     0.037 A 
HETATM   14  C   UNL     1     -43.058 -46.885   9.603  1.00  0.00     0.108 A 
HETATM   15  N   UNL     1     -42.800 -48.153   9.930  1.00  0.00    -0.310 N 
ATOM     16  HN  UNL     1     -43.342 -48.986   9.702  1.00  0.00     0.186 HD
ENDBRANCH  10  11
ENDBRANCH   9  10
ENDBRANCH   5   9
BRANCH   6  17
HETATM   17  C   UNL     1     -44.893 -53.053  12.453  1.00  0.00     0.164 C 
BRANCH  17  18
HETATM   18  C   UNL     1     -46.145 -52.273  12.681  1.00  0.00    -0.017 C 
HETATM   19  C   UNL     1     -46.390 -51.490  13.743  1.00  0.00     0.008 C 
ENDBRANCH  17  18
ENDBRANCH   6  17
TORSDOF 5
ENDMDL
MODEL 5
REMARK VINA RESULT:      -4.9      2.826      5.290
REMARK  5 active torsions:
REMARK  status: ('A' for Active; 'I' for Inactive)
REMARK       I    between atoms: N_2  and  C_4 
REMARK       I    between atoms: C_4  and  N_14 
REMARK    1  A    between atoms: N_5  and  C_6 
REMARK    2  A    between atoms: C_6  and  C_7 
REMARK    3  A    between atoms: C_7  and  N_8 
REMARK    4  A    between atoms: N_14  and  C_15 
REMARK    5  A    between atoms: C_15  and  C_16 
ROOT
HETATM    1  C   UNL     1     -41.603 -52.204  12.016  1.00  0.00     0.165 C 
HETATM    2  N   UNL     1     -40.372 -51.464  11.809  1.00  0.00    -0.231 N 
ATOM      3  HN  UNL     1     -39.473 -51.889  12.035  1.00  0.00     0.177 HD
HETATM    4  C   UNL     1     -40.423 -50.267  11.338  1.00  0.00     0.669 C 
HETATM    5  N   UNL     1     -41.573 -49.562  11.121  1.00  0.00    -0.225 N 
HETATM    6  N   UNL     1     -39.281 -49.573  11.100  1.00  0.00    -0.223 N 
HETATM    7  H   UNL     1     -42.245 -49.700  11.867  1.00  0.00     0.177 HD
HETATM    8  H   UNL     1     -39.283 -48.778  10.481  1.00  0.00     0.178 HD
ENDROOT
BRANCH   5   9
HETATM    9  C   UNL     1     -41.712 -48.289  10.432  1.00  0.00     0.159 C 
BRANCH   9  10
HETATM   10  C   UNL     1     -41.904 -47.160  11.442  1.00  0.00     0.168 C 
BRANCH  10  11
HETATM   11  N   UNL     1     -41.100 -45.999  11.115  1.00  0.00    -0.302 N 
HETATM   12  C   UNL     1     -41.279 -44.722  11.564  1.00  0.00     0.111 A 
HETATM   13  C   UNL     1     -40.282 -43.974  10.984  1.00  0.00     0.037 A 
HETATM   14  C   UNL     1     -39.563 -44.889  10.194  1.00  0.00     0.108 A 
HETATM   15  N   UNL     1     -40.062 -46.125  10.267  1.00  0.00    -0.310 N 
ATOM     16  HN  UNL     1     -39.733 -46.967   9.793  1.00  0.00     0.186 HD
ENDBRANCH  10  11
ENDBRANCH   9  10
ENDBRANCH   5   9
BRANCH   6  17
HETATM   17  C   UNL     1     -37.970 -50.029  11.484  1.00  0.00     0.164 C 
BRANCH  17  18
HETATM   18  C   UNL     1     -37.850 -49.748  12.945  1.00  0.00    -0.017 C 
HETATM   19  C   UNL     1     -37.874 -48.529  13.505  1.00  0.00     0.008 C 
ENDBRANCH  17  18
ENDBRANCH   6  17
TORSDOF 5
ENDMDL
MODEL 6
REMARK VINA RESULT:      -4.9      1.710      5.626
REMARK  5 active torsions:
REMARK  status: ('A' for Active; 'I' for Inactive)
REMARK       I    between atoms: N_2  and  C_4 
REMARK       I    between atoms: C_4  and  N_14 
REMARK    1  A    between atoms: N_5  and  C_6 
REMARK    2  A    between atoms: C_6  and  C_7 
REMARK    3  A    between atoms: C_7  and  N_8 
REMARK    4  A    between atoms: N_14  and  C_15 
REMARK    5  A    between atoms: C_15  and  C_16 
ROOT
HETATM    1  C   UNL     1     -37.768 -49.747  11.457  1.00  0.00     0.165 C 
HETATM    2  N   UNL     1     -39.085 -49.217  11.160  1.00  0.00    -0.231 N 
ATOM      3  HN  UNL     1     -39.193 -48.248  10.860  1.00  0.00     0.177 HD
HETATM    4  C   UNL     1     -40.118 -49.978  11.277  1.00  0.00     0.669 C 
HETATM    5  N   UNL     1     -40.099 -51.245  11.787  1.00  0.00    -0.225 N 
HETATM    6  N   UNL     1     -41.354 -49.512  10.966  1.00  0.00    -0.223 N 
HETATM    7  H   UNL     1     -39.486 -51.317  12.592  1.00  0.00     0.177 HD
HETATM    8  H   UNL     1     -42.109 -50.151  10.775  1.00  0.00     0.178 HD
ENDROOT
BRANCH   5   9
HETATM    9  C   UNL     1     -41.181 -52.215  11.782  1.00  0.00     0.159 C 
BRANCH   9  10
HETATM   10  C   UNL     1     -41.791 -52.333  13.178  1.00  0.00     0.168 C 
BRANCH  10  11
HETATM   11  N   UNL     1     -43.120 -52.908  13.141  1.00  0.00    -0.302 N 
HETATM   12  C   UNL     1     -43.516 -54.100  13.675  1.00  0.00     0.111 A 
HETATM   13  C   UNL     1     -44.855 -54.218  13.388  1.00  0.00     0.037 A 
HETATM   14  C   UNL     1     -45.169 -53.051  12.668  1.00  0.00     0.108 A 
HETATM   15  N   UNL     1     -44.113 -52.251  12.511  1.00  0.00    -0.310 N 
ATOM     16  HN  UNL     1     -44.067 -51.354  12.028  1.00  0.00     0.186 HD
ENDBRANCH  10  11
ENDBRANCH   9  10
ENDBRANCH   5   9
BRANCH   6  17
HETATM   17  C   UNL     1     -41.636 -48.138  10.642  1.00  0.00     0.164 C 
BRANCH  17  18
HETATM   18  C   UNL     1     -43.057 -47.908  11.036  1.00  0.00    -0.017 C 
HETATM   19  C   UNL     1     -44.029 -47.479  10.216  1.00  0.00     0.008 C 
ENDBRANCH  17  18
ENDBRANCH   6  17
TORSDOF 5
ENDMDL
MODEL 7
REMARK VINA RESULT:      -4.9      1.293      6.419
REMARK  5 active torsions:
REMARK  status: ('A' for Active; 'I' for Inactive)
REMARK       I    between atoms: N_2  and  C_4 
REMARK       I    between atoms: C_4  and  N_14 
REMARK    1  A    between atoms: N_5  and  C_6 
REMARK    2  A    between atoms: C_6  and  C_7 
REMARK    3  A    between atoms: C_7  and  N_8 
REMARK    4  A    between atoms: N_14  and  C_15 
REMARK    5  A    between atoms: C_15  and  C_16 
ROOT
HETATM    1  C   UNL     1     -41.664 -48.153  10.464  1.00  0.00     0.165 C 
HETATM    2  N   UNL     1     -40.473 -48.853  10.908  1.00  0.00    -0.231 N 
ATOM      3  HN  UNL     1     -39.556 -48.420  10.807  1.00  0.00     0.177 HD
HETATM    4  C   UNL     1     -40.583 -50.025  11.431  1.00  0.00     0.669 C 
HETATM    5  N   UNL     1     -41.743 -50.743  11.498  1.00  0.00    -0.225 N 
HETATM    6  N   UNL     1     -39.486 -50.679  11.888  1.00  0.00    -0.223 N 
HETATM    7  H   UNL     1     -42.288 -50.660  10.648  1.00  0.00     0.177 HD
HETATM    8  H   UNL     1     -39.577 -51.440  12.542  1.00  0.00     0.178 HD
ENDROOT
BRANCH   5   9
HETATM    9  C   UNL     1     -41.975 -51.980  12.226  1.00  0.00     0.159 C 
BRANCH   9  10
HETATM   10  C   UNL     1     -42.742 -51.698  13.516  1.00  0.00     0.168 C 
BRANCH  10  11
HETATM   11  N   UNL     1     -44.175 -51.809  13.328  1.00  0.00    -0.302 N 
HETATM   12  C   UNL     1     -45.150 -51.167  14.037  1.00  0.00     0.111 A 
HETATM   13  C   UNL     1     -46.345 -51.588  13.504  1.00  0.00     0.037 A 
HETATM   14  C   UNL     1     -45.984 -52.491  12.488  1.00  0.00     0.108 A 
HETATM   15  N   UNL     1     -44.661 -52.633  12.381  1.00  0.00    -0.310 N 
ATOM     16  HN  UNL     1     -44.141 -53.225  11.734  1.00  0.00     0.186 HD
ENDBRANCH  10  11
ENDBRANCH   9  10
ENDBRANCH   5   9
BRANCH   6  17
HETATM   17  C   UNL     1     -38.137 -50.215  11.696  1.00  0.00     0.164 C 
BRANCH  17  18
HETATM   18  C   UNL     1     -37.722 -49.613  12.998  1.00  0.00    -0.017 C 
HETATM   19  C   UNL     1     -37.492 -50.296  14.130  1.00  0.00     0.008 C 
ENDBRANCH  17  18
ENDBRANCH   6  17
TORSDOF 5
ENDMDL
MODEL 8
REMARK VINA RESULT:      -4.8      3.427      4.743
REMARK  5 active torsions:
REMARK  status: ('A' for Active; 'I' for Inactive)
REMARK       I    between atoms: N_2  and  C_4 
REMARK       I    between atoms: C_4  and  N_14 
REMARK    1  A    between atoms: N_5  and  C_6 
REMARK    2  A    between atoms: C_6  and  C_7 
REMARK    3  A    between atoms: C_7  and  N_8 
REMARK    4  A    between atoms: N_14  and  C_15 
REMARK    5  A    between atoms: C_15  and  C_16 
ROOT
HETATM    1  C   UNL     1     -42.325 -45.237  12.243  1.00  0.00     0.165 C 
HETATM    2  N   UNL     1     -43.039 -45.847  11.137  1.00  0.00    -0.231 N 
ATOM      3  HN  UNL     1     -43.771 -45.329  10.650  1.00  0.00     0.177 HD
HETATM    4  C   UNL     1     -42.744 -47.047  10.774  1.00  0.00     0.669 C 
HETATM    5  N   UNL     1     -41.875 -47.869  11.434  1.00  0.00    -0.225 N 
HETATM    6  N   UNL     1     -43.373 -47.620   9.718  1.00  0.00    -0.223 N 
HETATM    7  H   UNL     1     -41.976 -47.795  12.439  1.00  0.00     0.177 HD
HETATM    8  H   UNL     1     -42.969 -48.416   9.250  1.00  0.00     0.178 HD
ENDROOT
BRANCH   5   9
HETATM    9  C   UNL     1     -41.363 -49.154  10.986  1.00  0.00     0.159 C 
BRANCH   9  10
HETATM   10  C   UNL     1     -40.843 -49.958  12.176  1.00  0.00     0.168 C 
BRANCH  10  11
HETATM   11  N   UNL     1     -39.412 -50.172  12.102  1.00  0.00    -0.302 N 
HETATM   12  C   UNL     1     -38.618 -50.760  13.044  1.00  0.00     0.111 A 
HETATM   13  C   UNL     1     -37.342 -50.734  12.533  1.00  0.00     0.037 A 
HETATM   14  C   UNL     1     -37.470 -50.099  11.285  1.00  0.00     0.108 A 
HETATM   15  N   UNL     1     -38.731 -49.749  11.020  1.00  0.00    -0.310 N 
ATOM     16  HN  UNL     1     -39.093 -49.275  10.193  1.00  0.00     0.186 HD
ENDBRANCH  10  11
ENDBRANCH   9  10
ENDBRANCH   5   9
BRANCH   6  17
HETATM   17  C   UNL     1     -44.492 -47.028   9.032  1.00  0.00     0.164 C 
BRANCH  17  18
HETATM   18  C   UNL     1     -45.690 -47.818   9.443  1.00  0.00    -0.017 C 
HETATM   19  C   UNL     1     -46.451 -48.557   8.621  1.00  0.00     0.008 C 
ENDBRANCH  17  18
ENDBRANCH   6  17
TORSDOF 5
ENDMDL
MODEL 9
REMARK VINA RESULT:      -4.7      1.551      2.250
REMARK  5 active torsions:
REMARK  status: ('A' for Active; 'I' for Inactive)
REMARK       I    between atoms: N_2  and  C_4 
REMARK       I    between atoms: C_4  and  N_14 
REMARK    1  A    between atoms: N_5  and  C_6 
REMARK    2  A    between atoms: C_6  and  C_7 
REMARK    3  A    between atoms: C_7  and  N_8 
REMARK    4  A    between atoms: N_14  and  C_15 
REMARK    5  A    between atoms: C_15  and  C_16 
ROOT
HETATM    1  C   UNL     1     -42.688 -54.695  14.974  1.00  0.00     0.165 C 
HETATM    2  N   UNL     1     -43.666 -54.053  14.116  1.00  0.00    -0.231 N 
ATOM      3  HN  UNL     1     -44.663 -54.157  14.306  1.00  0.00     0.177 HD
HETATM    4  C   UNL     1     -43.267 -53.351  13.112  1.00  0.00     0.669 C 
HETATM    5  N   UNL     1     -41.970 -53.250  12.698  1.00  0.00    -0.225 N 
HETATM    6  N   UNL     1     -44.165 -52.711  12.321  1.00  0.00    -0.223 N 
HETATM    7  H   UNL     1     -41.488 -54.141  12.747  1.00  0.00     0.177 HD
HETATM    8  H   UNL     1     -43.876 -51.948  11.731  1.00  0.00     0.178 HD
ENDROOT
BRANCH   5   9
HETATM    9  C   UNL     1     -41.430 -52.345  11.696  1.00  0.00     0.159 C 
BRANCH   9  10
HETATM   10  C   UNL     1     -40.486 -51.338  12.350  1.00  0.00     0.168 C 
BRANCH  10  11
HETATM   11  N   UNL     1     -40.724 -49.988  11.879  1.00  0.00    -0.302 N 
HETATM   12  C   UNL     1     -39.863 -48.931  11.944  1.00  0.00     0.111 A 
HETATM   13  C   UNL     1     -40.527 -47.867  11.381  1.00  0.00     0.037 A 
HETATM   14  C   UNL     1     -41.784 -48.383  11.017  1.00  0.00     0.108 A 
HETATM   15  N   UNL     1     -41.910 -49.676  11.324  1.00  0.00    -0.310 N 
ATOM     16  HN  UNL     1     -42.715 -50.284  11.174  1.00  0.00     0.186 HD
ENDBRANCH  10  11
ENDBRANCH   9  10
ENDBRANCH   5   9
BRANCH   6  17
HETATM   17  C   UNL     1     -45.591 -52.878  12.428  1.00  0.00     0.164 C 
BRANCH  17  18
HETATM   18  C   UNL     1     -46.114 -51.591  12.976  1.00  0.00    -0.017 C 
HETATM   19  C   UNL     1     -46.590 -51.413  14.217  1.00  0.00     0.008 C 
ENDBRANCH  17  18
ENDBRANCH   6  17
TORSDOF 5
ENDMDL
