MODEL 1
REMARK VINA RESULT:      -5.8      0.000      0.000
REMARK  4 active torsions:
REMARK  status: ('A' for Active; 'I' for Inactive)
REMARK    1  A    between atoms: C_2  and  C_4 
REMARK    2  A    between atoms: C_7  and  C_8 
REMARK    3  A    between atoms: C_8  and  C_9 
REMARK    4  A    between atoms: C_9  and  N_10 
REMARK       I    between atoms: N_10  and  C_11 
REMARK       I    between atoms: C_11  and  N_13 
ROOT
HETATM    1  C   UNL     1     -41.679 -50.301  13.120  1.00  0.00     0.077 C 
ENDROOT
BRANCH   1   2
HETATM    2  C   UNL     1     -42.707 -51.377  12.963  1.00  0.00     0.018 A 
HETATM    3  N   UNL     1     -44.048 -51.073  13.140  1.00  0.00    -0.356 N 
HETATM    4  C   UNL     1     -44.787 -52.154  12.980  1.00  0.00     0.054 A 
ATOM      5  HN  UNL     1     -44.412 -50.147  13.362  1.00  0.00     0.166 HD
HETATM    6  S   UNL     1     -43.918 -53.580  12.565  1.00  0.00    -0.086 SA
HETATM    7  C   UNL     1     -42.456 -52.695  12.632  1.00  0.00     0.076 A 
BRANCH   4   8
HETATM    8  C   UNL     1     -46.286 -52.200  13.143  1.00  0.00     0.035 C 
HETATM    9  C   UNL     1     -46.712 -51.383  14.366  1.00  0.00     0.016 C 
HETATM   10  C   UNL     1     -46.980 -51.685  11.882  1.00  0.00     0.016 C 
ENDBRANCH   4   8
ENDBRANCH   1   2
BRANCH   1  11
HETATM   11  C   UNL     1     -41.173 -49.753  11.783  1.00  0.00     0.130 C 
BRANCH  11  12
HETATM   12  N   UNL     1     -42.212 -49.135  10.979  1.00  0.00    -0.347 N 
HETATM   13  C   UNL     1     -42.075 -47.881  10.439  1.00  0.00     0.296 C 
HETATM   14  O   UNL     1     -41.111 -47.150  10.628  1.00  0.00    -0.254 OA
HETATM   15  N   UNL     1     -43.129 -47.567   9.613  1.00  0.00    -0.235 NA
HETATM   16  C   UNL     1     -43.238 -46.332   8.827  1.00  0.00     0.101 C 
HETATM   17  C   UNL     1     -44.517 -47.418  10.079  1.00  0.00     0.101 C 
HETATM   18  C   UNL     1     -44.735 -46.671   8.756  1.00  0.00     0.030 C 
HETATM   19  H   UNL     1     -42.847 -49.738  10.477  1.00  0.00     0.163 HD
ENDBRANCH  11  12
ENDBRANCH   1  11
TORSDOF 4
ENDMDL
MODEL 2
REMARK VINA RESULT:      -5.6      3.908      6.626
REMARK  4 active torsions:
REMARK  status: ('A' for Active; 'I' for Inactive)
REMARK    1  A    between atoms: C_2  and  C_4 
REMARK    2  A    between atoms: C_7  and  C_8 
REMARK    3  A    between atoms: C_8  and  C_9 
REMARK    4  A    between atoms: C_9  and  N_10 
REMARK       I    between atoms: N_10  and  C_11 
REMARK       I    between atoms: C_11  and  N_13 
ROOT
HETATM    1  C   UNL     1     -40.323 -48.562  11.759  1.00  0.00     0.077 C 
ENDROOT
BRANCH   1   2
HETATM    2  C   UNL     1     -41.248 -47.558  11.146  1.00  0.00     0.018 A 
HETATM    3  N   UNL     1     -42.159 -47.965  10.183  1.00  0.00    -0.356 N 
HETATM    4  C   UNL     1     -42.863 -46.935   9.755  1.00  0.00     0.054 A 
ATOM      5  HN  UNL     1     -42.270 -48.924   9.854  1.00  0.00     0.166 HD
HETATM    6  S   UNL     1     -42.501 -45.435  10.515  1.00  0.00    -0.086 SA
HETATM    7  C   UNL     1     -41.305 -46.213  11.458  1.00  0.00     0.076 A 
BRANCH   4   8
HETATM    8  C   UNL     1     -43.916 -47.005   8.677  1.00  0.00     0.035 C 
HETATM    9  C   UNL     1     -43.471 -47.954   7.561  1.00  0.00     0.016 C 
HETATM   10  C   UNL     1     -45.256 -47.452   9.262  1.00  0.00     0.016 C 
ENDBRANCH   4   8
ENDBRANCH   1   2
BRANCH   1  11
HETATM   11  C   UNL     1     -40.278 -49.885  10.989  1.00  0.00     0.130 C 
BRANCH  11  12
HETATM   12  N   UNL     1     -39.833 -51.009  11.792  1.00  0.00    -0.347 N 
HETATM   13  C   UNL     1     -40.687 -52.000  12.207  1.00  0.00     0.296 C 
HETATM   14  O   UNL     1     -41.894 -52.003  11.998  1.00  0.00    -0.254 OA
HETATM   15  N   UNL     1     -40.012 -53.018  12.839  1.00  0.00    -0.235 NA
HETATM   16  C   UNL     1     -40.632 -54.256  13.328  1.00  0.00     0.101 C 
HETATM   17  C   UNL     1     -39.286 -52.854  14.108  1.00  0.00     0.101 C 
HETATM   18  C   UNL     1     -39.368 -54.385  14.193  1.00  0.00     0.030 C 
HETATM   19  H   UNL     1     -38.867 -51.295  11.717  1.00  0.00     0.163 HD
ENDBRANCH  11  12
ENDBRANCH   1  11
TORSDOF 4
ENDMDL
MODEL 3
REMARK VINA RESULT:      -5.4      3.419      4.351
REMARK  4 active torsions:
REMARK  status: ('A' for Active; 'I' for Inactive)
REMARK    1  A    between atoms: C_2  and  C_4 
REMARK    2  A    between atoms: C_7  and  C_8 
REMARK    3  A    between atoms: C_8  and  C_9 
REMARK    4  A    between atoms: C_9  and  N_10 
REMARK       I    between atoms: N_10  and  C_11 
REMARK       I    between atoms: C_11  and  N_13 
ROOT
HETATM    1  C   UNL     1     -41.692 -54.097  14.734  1.00  0.00     0.077 C 
ENDROOT
BRANCH   1   2
HETATM    2  C   UNL     1     -43.152 -53.942  14.447  1.00  0.00     0.018 A 
HETATM    3  N   UNL     1     -43.669 -52.681  14.192  1.00  0.00    -0.356 N 
HETATM    4  C   UNL     1     -44.970 -52.753  13.985  1.00  0.00     0.054 A 
ATOM      5  HN  UNL     1     -43.121 -51.821  14.167  1.00  0.00     0.166 HD
HETATM    6  S   UNL     1     -45.633 -54.339  14.042  1.00  0.00    -0.086 SA
HETATM    7  C   UNL     1     -44.080 -54.964  14.393  1.00  0.00     0.076 A 
BRANCH   4   8
HETATM    8  C   UNL     1     -45.863 -51.565  13.722  1.00  0.00     0.035 C 
HETATM    9  C   UNL     1     -46.626 -51.756  12.409  1.00  0.00     0.016 C 
HETATM   10  C   UNL     1     -46.834 -51.356  14.884  1.00  0.00     0.016 C 
ENDBRANCH   4   8
ENDBRANCH   1   2
BRANCH   1  11
HETATM   11  C   UNL     1     -40.825 -54.065  13.471  1.00  0.00     0.130 C 
BRANCH  11  12
HETATM   12  N   UNL     1     -40.088 -52.825  13.305  1.00  0.00    -0.347 N 
HETATM   13  C   UNL     1     -40.561 -51.786  12.544  1.00  0.00     0.296 C 
HETATM   14  O   UNL     1     -41.598 -51.822  11.894  1.00  0.00    -0.254 OA
HETATM   15  N   UNL     1     -39.753 -50.677  12.645  1.00  0.00    -0.235 NA
HETATM   16  C   UNL     1     -40.029 -49.380  12.014  1.00  0.00     0.101 C 
HETATM   17  C   UNL     1     -38.360 -50.634  12.174  1.00  0.00     0.101 C 
HETATM   18  C   UNL     1     -38.532 -49.110  12.233  1.00  0.00     0.030 C 
HETATM   19  H   UNL     1     -39.449 -52.550  14.037  1.00  0.00     0.163 HD
ENDBRANCH  11  12
ENDBRANCH   1  11
TORSDOF 4
ENDMDL
MODEL 4
REMARK VINA RESULT:      -5.2      1.543      1.864
REMARK  4 active torsions:
REMARK  status: ('A' for Active; 'I' for Inactive)
REMARK    1  A    between atoms: C_2  and  C_4 
REMARK    2  A    between atoms: C_7  and  C_8 
REMARK    3  A    between atoms: C_8  and  C_9 
REMARK    4  A    between atoms: C_9  and  N_10 
REMARK       I    between atoms: N_10  and  C_11 
REMARK       I    between atoms: C_11  and  N_13 
ROOT
HETATM    1  C   UNL     1     -41.517 -52.191  13.480  1.00  0.00     0.077 C 
ENDROOT
BRANCH   1   2
HETATM    2  C   UNL     1     -42.854 -52.858  13.558  1.00  0.00     0.018 A 
HETATM    3  N   UNL     1     -44.006 -52.097  13.427  1.00  0.00    -0.356 N 
HETATM    4  C   UNL     1     -45.075 -52.861  13.545  1.00  0.00     0.054 A 
ATOM      5  HN  UNL     1     -44.024 -51.091  13.262  1.00  0.00     0.166 HD
HETATM    6  S   UNL     1     -44.755 -54.536  13.774  1.00  0.00    -0.086 SA
HETATM    7  C   UNL     1     -43.077 -54.209  13.741  1.00  0.00     0.076 A 
BRANCH   4   8
HETATM    8  C   UNL     1     -46.497 -52.360  13.499  1.00  0.00     0.035 C 
HETATM    9  C   UNL     1     -46.756 -51.391  14.656  1.00  0.00     0.016 C 
HETATM   10  C   UNL     1     -46.785 -51.685  12.157  1.00  0.00     0.016 C 
ENDBRANCH   4   8
ENDBRANCH   1   2
BRANCH   1  11
HETATM   11  C   UNL     1     -41.086 -51.875  12.045  1.00  0.00     0.130 C 
BRANCH  11  12
HETATM   12  N   UNL     1     -41.675 -50.656  11.518  1.00  0.00    -0.347 N 
HETATM   13  C   UNL     1     -41.022 -49.450  11.555  1.00  0.00     0.296 C 
HETATM   14  O   UNL     1     -39.929 -49.272  12.079  1.00  0.00    -0.254 OA
HETATM   15  N   UNL     1     -41.721 -48.475  10.882  1.00  0.00    -0.235 NA
HETATM   16  C   UNL     1     -41.251 -47.099  10.675  1.00  0.00     0.101 C 
HETATM   17  C   UNL     1     -43.045 -47.984  11.296  1.00  0.00     0.101 C 
HETATM   18  C   UNL     1     -42.729 -46.784  10.393  1.00  0.00     0.030 C 
HETATM   19  H   UNL     1     -42.358 -50.739  10.780  1.00  0.00     0.163 HD
ENDBRANCH  11  12
ENDBRANCH   1  11
TORSDOF 4
ENDMDL
MODEL 5
REMARK VINA RESULT:      -5.0      1.919      2.301
REMARK  4 active torsions:
REMARK  status: ('A' for Active; 'I' for Inactive)
REMARK    1  A    between atoms: C_2  and  C_4 
REMARK    2  A    between atoms: C_7  and  C_8 
REMARK    3  A    between atoms: C_8  and  C_9 
REMARK    4  A    between atoms: C_9  and  N_10 
REMARK       I    between atoms: N_10  and  C_11 
REMARK       I    between atoms: C_11  and  N_13 
ROOT
HETATM    1  C   UNL     1     -41.841 -49.802  12.849  1.00  0.00     0.077 C 
ENDROOT
BRANCH   1   2
HETATM    2  C   UNL     1     -42.751 -50.990  12.839  1.00  0.00     0.018 A 
HETATM    3  N   UNL     1     -44.119 -50.805  12.972  1.00  0.00    -0.356 N 
HETATM    4  C   UNL     1     -44.741 -51.968  12.960  1.00  0.00     0.054 A 
ATOM      5  HN  UNL     1     -44.578 -49.899  13.066  1.00  0.00     0.166 HD
HETATM    6  S   UNL     1     -43.725 -53.339  12.742  1.00  0.00    -0.086 SA
HETATM    7  C   UNL     1     -42.362 -52.307  12.690  1.00  0.00     0.076 A 
BRANCH   4   8
HETATM    8  C   UNL     1     -46.230 -52.146  13.127  1.00  0.00     0.035 C 
HETATM    9  C   UNL     1     -46.720 -51.387  14.363  1.00  0.00     0.016 C 
HETATM   10  C   UNL     1     -46.971 -51.673  11.876  1.00  0.00     0.016 C 
ENDBRANCH   4   8
ENDBRANCH   1   2
BRANCH   1  11
HETATM   11  C   UNL     1     -41.472 -49.315  11.444  1.00  0.00     0.130 C 
BRANCH  11  12
HETATM   12  N   UNL     1     -40.971 -47.953  11.415  1.00  0.00    -0.347 N 
HETATM   13  C   UNL     1     -41.781 -46.878  11.149  1.00  0.00     0.296 C 
HETATM   14  O   UNL     1     -42.967 -46.963  10.856  1.00  0.00    -0.254 OA
HETATM   15  N   UNL     1     -41.109 -45.688  11.306  1.00  0.00    -0.235 NA
HETATM   16  C   UNL     1     -41.719 -44.358  11.171  1.00  0.00     0.101 C 
HETATM   17  C   UNL     1     -39.971 -45.274  10.472  1.00  0.00     0.101 C 
HETATM   18  C   UNL     1     -40.274 -43.865  10.999  1.00  0.00     0.030 C 
HETATM   19  H   UNL     1     -40.155 -47.735  11.968  1.00  0.00     0.163 HD
ENDBRANCH  11  12
ENDBRANCH   1  11
TORSDOF 4
ENDMDL
MODEL 6
REMARK VINA RESULT:      -4.9      3.830      4.982
REMARK  4 active torsions:
REMARK  status: ('A' for Active; 'I' for Inactive)
REMARK    1  A    between atoms: C_2  and  C_4 
REMARK    2  A    between atoms: C_7  and  C_8 
REMARK    3  A    between atoms: C_8  and  C_9 
REMARK    4  A    between atoms: C_9  and  N_10 
REMARK       I    between atoms: N_10  and  C_11 
REMARK       I    between atoms: C_11  and  N_13 
ROOT
HETATM    1  C   UNL     1     -41.238 -52.430  12.076  1.00  0.00     0.077 C 
ENDROOT
BRANCH   1   2
HETATM    2  C   UNL     1     -42.599 -52.708  12.632  1.00  0.00     0.018 A 
HETATM    3  N   UNL     1     -43.602 -51.760  12.494  1.00  0.00    -0.356 N 
HETATM    4  C   UNL     1     -44.713 -52.183  13.064  1.00  0.00     0.054 A 
ATOM      5  HN  UNL     1     -43.495 -50.863  12.020  1.00  0.00     0.166 HD
HETATM    6  S   UNL     1     -44.628 -53.757  13.754  1.00  0.00    -0.086 SA
HETATM    7  C   UNL     1     -42.988 -53.864  13.282  1.00  0.00     0.076 A 
BRANCH   4   8
HETATM    8  C   UNL     1     -45.993 -51.388  13.144  1.00  0.00     0.035 C 
HETATM    9  C   UNL     1     -46.922 -51.760  11.986  1.00  0.00     0.016 C 
HETATM   10  C   UNL     1     -46.686 -51.618  14.486  1.00  0.00     0.016 C 
ENDBRANCH   4   8
ENDBRANCH   1   2
BRANCH   1  11
HETATM   11  C   UNL     1     -40.135 -52.480  13.137  1.00  0.00     0.130 C 
BRANCH  11  12
HETATM   12  N   UNL     1     -39.413 -51.229  13.284  1.00  0.00    -0.347 N 
HETATM   13  C   UNL     1     -38.695 -50.923  14.412  1.00  0.00     0.296 C 
HETATM   14  O   UNL     1     -38.642 -51.631  15.410  1.00  0.00    -0.254 OA
HETATM   15  N   UNL     1     -37.996 -49.748  14.264  1.00  0.00    -0.235 NA
HETATM   16  C   UNL     1     -37.074 -49.190  15.262  1.00  0.00     0.101 C 
HETATM   17  C   UNL     1     -38.632 -48.433  14.086  1.00  0.00     0.101 C 
HETATM   18  C   UNL     1     -37.266 -47.869  14.500  1.00  0.00     0.030 C 
HETATM   19  H   UNL     1     -39.094 -50.763  12.446  1.00  0.00     0.163 HD
ENDBRANCH  11  12
ENDBRANCH   1  11
TORSDOF 4
ENDMDL
MODEL 7
REMARK VINA RESULT:      -4.8      3.826      6.286
REMARK  4 active torsions:
REMARK  status: ('A' for Active; 'I' for Inactive)
REMARK    1  A    between atoms: C_2  and  C_4 
REMARK    2  A    between atoms: C_7  and  C_8 
REMARK    3  A    between atoms: C_8  and  C_9 
REMARK    4  A    between atoms: C_9  and  N_10 
REMARK       I    between atoms: N_10  and  C_11 
REMARK       I    between atoms: C_11  and  N_13 
ROOT
HETATM    1  C   UNL     1     -40.307 -53.829  13.845  1.00  0.00     0.077 C 
ENDROOT
BRANCH   1   2
HETATM    2  C   UNL     1     -39.538 -52.556  14.009  1.00  0.00     0.018 A 
HETATM    3  N   UNL     1     -39.479 -51.652  12.960  1.00  0.00    -0.356 N 
HETATM    4  C   UNL     1     -38.742 -50.610  13.294  1.00  0.00     0.054 A 
ATOM      5  HN  UNL     1     -39.941 -51.774  12.059  1.00  0.00     0.166 HD
HETATM    6  S   UNL     1     -38.117 -50.640  14.896  1.00  0.00    -0.086 SA
HETATM    7  C   UNL     1     -38.861 -52.159  15.147  1.00  0.00     0.076 A 
BRANCH   4   8
HETATM    8  C   UNL     1     -38.427 -49.453  12.378  1.00  0.00     0.035 C 
HETATM    9  C   UNL     1     -37.443 -49.889  11.290  1.00  0.00     0.016 C 
HETATM   10  C   UNL     1     -39.708 -48.898  11.755  1.00  0.00     0.016 C 
ENDBRANCH   4   8
ENDBRANCH   1   2
BRANCH   1  11
HETATM   11  C   UNL     1     -41.184 -53.843  12.589  1.00  0.00     0.130 C 
BRANCH  11  12
HETATM   12  N   UNL     1     -42.597 -53.660  12.867  1.00  0.00    -0.347 N 
HETATM   13  C   UNL     1     -43.190 -52.422  12.876  1.00  0.00     0.296 C 
HETATM   14  O   UNL     1     -42.588 -51.368  12.715  1.00  0.00    -0.254 OA
HETATM   15  N   UNL     1     -44.553 -52.515  13.032  1.00  0.00    -0.235 NA
HETATM   16  C   UNL     1     -45.478 -51.375  13.004  1.00  0.00     0.101 C 
HETATM   17  C   UNL     1     -45.204 -53.042  14.242  1.00  0.00     0.101 C 
HETATM   18  C   UNL     1     -46.455 -52.327  13.712  1.00  0.00     0.030 C 
HETATM   19  H   UNL     1     -43.225 -54.422  12.658  1.00  0.00     0.163 HD
ENDBRANCH  11  12
ENDBRANCH   1  11
TORSDOF 4
ENDMDL
MODEL 8
REMARK VINA RESULT:      -4.8      4.675      6.912
REMARK  4 active torsions:
REMARK  status: ('A' for Active; 'I' for Inactive)
REMARK    1  A    between atoms: C_2  and  C_4 
REMARK    2  A    between atoms: C_7  and  C_8 
REMARK    3  A    between atoms: C_8  and  C_9 
REMARK    4  A    between atoms: C_9  and  N_10 
REMARK       I    between atoms: N_10  and  C_11 
REMARK       I    between atoms: C_11  and  N_13 
ROOT
HETATM    1  C   UNL     1     -40.878 -53.814  14.294  1.00  0.00     0.077 C 
ENDROOT
BRANCH   1   2
HETATM    2  C   UNL     1     -40.438 -52.654  13.457  1.00  0.00     0.018 A 
HETATM    3  N   UNL     1     -39.161 -52.138  13.621  1.00  0.00    -0.356 N 
HETATM    4  C   UNL     1     -38.974 -51.113  12.812  1.00  0.00     0.054 A 
ATOM      5  HN  UNL     1     -38.466 -52.499  14.274  1.00  0.00     0.166 HD
HETATM    6  S   UNL     1     -40.301 -50.743  11.781  1.00  0.00    -0.086 SA
HETATM    7  C   UNL     1     -41.192 -52.022  12.486  1.00  0.00     0.076 A 
BRANCH   4   8
HETATM    8  C   UNL     1     -37.715 -50.284  12.754  1.00  0.00     0.035 C 
HETATM    9  C   UNL     1     -37.506 -49.733  11.342  1.00  0.00     0.016 C 
HETATM   10  C   UNL     1     -37.776 -49.145  13.773  1.00  0.00     0.016 C 
ENDBRANCH   4   8
ENDBRANCH   1   2
BRANCH   1  11
HETATM   11  C   UNL     1     -42.260 -54.346  13.903  1.00  0.00     0.130 C 
BRANCH  11  12
HETATM   12  N   UNL     1     -43.357 -53.558  14.435  1.00  0.00    -0.347 N 
HETATM   13  C   UNL     1     -44.624 -53.614  13.910  1.00  0.00     0.296 C 
HETATM   14  O   UNL     1     -44.935 -54.273  12.926  1.00  0.00    -0.254 OA
HETATM   15  N   UNL     1     -45.515 -52.883  14.661  1.00  0.00    -0.235 NA
HETATM   16  C   UNL     1     -46.960 -52.807  14.406  1.00  0.00     0.101 C 
HETATM   17  C   UNL     1     -45.445 -51.422  14.821  1.00  0.00     0.101 C 
HETATM   18  C   UNL     1     -46.907 -51.540  15.274  1.00  0.00     0.030 C 
HETATM   19  H   UNL     1     -43.319 -53.284  15.406  1.00  0.00     0.163 HD
ENDBRANCH  11  12
ENDBRANCH   1  11
TORSDOF 4
ENDMDL
MODEL 9
REMARK VINA RESULT:      -4.7      3.683      7.136
REMARK  4 active torsions:
REMARK  status: ('A' for Active; 'I' for Inactive)
REMARK    1  A    between atoms: C_2  and  C_4 
REMARK    2  A    between atoms: C_7  and  C_8 
REMARK    3  A    between atoms: C_8  and  C_9 
REMARK    4  A    between atoms: C_9  and  N_10 
REMARK       I    between atoms: N_10  and  C_11 
REMARK       I    between atoms: C_11  and  N_13 
ROOT
HETATM    1  C   UNL     1     -40.312 -49.115  12.212  1.00  0.00     0.077 C 
ENDROOT
BRANCH   1   2
HETATM    2  C   UNL     1     -40.689 -47.749  11.734  1.00  0.00     0.018 A 
HETATM    3  N   UNL     1     -40.204 -46.633  12.400  1.00  0.00    -0.356 N 
HETATM    4  C   UNL     1     -40.663 -45.530  11.841  1.00  0.00     0.054 A 
ATOM      5  HN  UNL     1     -39.580 -46.661  13.207  1.00  0.00     0.166 HD
HETATM    6  S   UNL     1     -41.664 -45.771  10.462  1.00  0.00    -0.086 SA
HETATM    7  C   UNL     1     -41.490 -47.463  10.645  1.00  0.00     0.076 A 
BRANCH   4   8
HETATM    8  C   UNL     1     -40.375 -44.134  12.334  1.00  0.00     0.035 C 
HETATM    9  C   UNL     1     -38.951 -44.051  12.889  1.00  0.00     0.016 C 
HETATM   10  C   UNL     1     -40.576 -43.116  11.211  1.00  0.00     0.016 C 
ENDBRANCH   4   8
ENDBRANCH   1   2
BRANCH   1  11
HETATM   11  C   UNL     1     -40.807 -50.232  11.288  1.00  0.00     0.130 C 
BRANCH  11  12
HETATM   12  N   UNL     1     -41.805 -51.091  11.900  1.00  0.00    -0.347 N 
HETATM   13  C   UNL     1     -41.514 -52.359  12.338  1.00  0.00     0.296 C 
HETATM   14  O   UNL     1     -40.424 -52.902  12.205  1.00  0.00    -0.254 OA
HETATM   15  N   UNL     1     -42.581 -52.924  12.996  1.00  0.00    -0.235 NA
HETATM   16  C   UNL     1     -42.561 -54.239  13.649  1.00  0.00     0.101 C 
HETATM   17  C   UNL     1     -43.865 -53.240  12.351  1.00  0.00     0.101 C 
HETATM   18  C   UNL     1     -44.093 -54.152  13.565  1.00  0.00     0.030 C 
HETATM   19  H   UNL     1     -42.584 -50.655  12.371  1.00  0.00     0.163 HD
ENDBRANCH  11  12
ENDBRANCH   1  11
TORSDOF 4
ENDMDL
