MODEL 1
REMARK VINA RESULT:      -6.7      0.000      0.000
REMARK  6 active torsions:
REMARK  status: ('A' for Active; 'I' for Inactive)
REMARK    1  A    between atoms: N_2  and  C_4 
REMARK    2  A    between atoms: N_9  and  C_10 
REMARK    3  A    between atoms: C_10  and  C_11 
REMARK    4  A    between atoms: C_11  and  N_12 
REMARK    5  A    between atoms: N_12  and  C_13 
REMARK    6  A    between atoms: C_18  and  C_19 
ROOT
HETATM    1  C   UNL     1     -43.146 -49.020  12.799  1.00  0.00     0.290 C 
ENDROOT
BRANCH   1   2
HETATM    2  C   UNL     1     -42.499 -48.440  11.520  1.00  0.00     0.161 C 
BRANCH   2   3
HETATM    3  N   UNL     1     -43.303 -47.563  10.654  1.00  0.00    -0.321 N 
HETATM    4  C   UNL     1     -42.711 -46.349  10.278  1.00  0.00     0.247 A 
HETATM    5  C   UNL     1     -43.476 -45.513   9.307  1.00  0.00     0.077 A 
HETATM    6  O   UNL     1     -41.620 -45.951  10.676  1.00  0.00    -0.268 OA
HETATM    7  C   UNL     1     -44.649 -45.940   8.816  1.00  0.00     0.043 A 
HETATM    8  C   UNL     1     -45.191 -47.201   9.247  1.00  0.00     0.118 A 
HETATM    9  C   UNL     1     -44.533 -47.957  10.135  1.00  0.00     0.130 A 
BRANCH   8  10
HETATM   10  N   UNL     1     -46.443 -47.723   8.703  1.00  0.00    -0.114 N 
HETATM   11  O   UNL     1     -47.503 -47.257   9.138  1.00  0.00    -0.532 OA
HETATM   12  O   UNL     1     -46.355 -48.602   7.837  1.00  0.00    -0.532 OA
ENDBRANCH   8  10
ENDBRANCH   2   3
ENDBRANCH   1   2
BRANCH   1  13
HETATM   13  N   UNL     1     -43.777 -50.332  12.624  1.00  0.00     0.090 N 
HETATM   14  H   UNL     1     -43.236 -50.873  11.944  1.00  0.00     0.316 HD
BRANCH  13  15
HETATM   15  C   UNL     1     -43.951 -51.131  13.851  1.00  0.00     0.233 C 
HETATM   16  C   UNL     1     -42.564 -51.753  14.172  1.00  0.00     0.036 C 
HETATM   17  C   UNL     1     -42.159 -52.852  13.181  1.00  0.00     0.002 C 
HETATM   18  C   UNL     1     -43.220 -53.942  13.060  1.00  0.00     0.001 C 
HETATM   19  C   UNL     1     -44.618 -53.377  12.822  1.00  0.00     0.015 C 
HETATM   20  C   UNL     1     -44.971 -52.300  13.862  1.00  0.00     0.126 C 
BRANCH  20  21
HETATM   21  C   UNL     1     -46.443 -51.923  13.798  1.00  0.00     0.393 C 
HETATM   22  F   UNL     1     -46.769 -50.957  14.684  1.00  0.00    -0.171 F 
HETATM   23  F   UNL     1     -46.825 -51.507  12.571  1.00  0.00    -0.171 F 
HETATM   24  F   UNL     1     -47.209 -52.999  14.102  1.00  0.00    -0.171 F 
ENDBRANCH  20  21
ENDBRANCH  13  15
ENDBRANCH   1  13
TORSDOF 6
ENDMDL
MODEL 2
REMARK VINA RESULT:      -6.4      4.112      7.201
REMARK  6 active torsions:
REMARK  status: ('A' for Active; 'I' for Inactive)
REMARK    1  A    between atoms: N_2  and  C_4 
REMARK    2  A    between atoms: N_9  and  C_10 
REMARK    3  A    between atoms: C_10  and  C_11 
REMARK    4  A    between atoms: C_11  and  N_12 
REMARK    5  A    between atoms: N_12  and  C_13 
REMARK    6  A    between atoms: C_18  and  C_19 
ROOT
HETATM    1  C   UNL     1     -41.295 -50.137  12.187  1.00  0.00     0.290 C 
ENDROOT
BRANCH   1   2
HETATM    2  C   UNL     1     -41.150 -51.587  11.669  1.00  0.00     0.161 C 
BRANCH   2   3
HETATM    3  N   UNL     1     -41.723 -52.685  12.463  1.00  0.00    -0.321 N 
HETATM    4  C   UNL     1     -40.853 -53.327  13.356  1.00  0.00     0.247 A 
HETATM    5  C   UNL     1     -41.461 -54.360  14.244  1.00  0.00     0.077 A 
HETATM    6  O   UNL     1     -39.655 -53.083  13.459  1.00  0.00    -0.268 OA
HETATM    7  C   UNL     1     -42.776 -54.617  14.189  1.00  0.00     0.043 A 
HETATM    8  C   UNL     1     -43.607 -53.914  13.249  1.00  0.00     0.118 A 
HETATM    9  C   UNL     1     -43.079 -52.999  12.426  1.00  0.00     0.130 A 
BRANCH   8  10
HETATM   10  N   UNL     1     -45.050 -54.132  13.189  1.00  0.00    -0.114 N 
HETATM   11  O   UNL     1     -45.515 -55.108  13.790  1.00  0.00    -0.532 OA
HETATM   12  O   UNL     1     -45.714 -53.318  12.534  1.00  0.00    -0.532 OA
ENDBRANCH   8  10
ENDBRANCH   2   3
ENDBRANCH   1   2
BRANCH   1  13
HETATM   13  N   UNL     1     -42.181 -49.287  11.385  1.00  0.00     0.090 N 
HETATM   14  H   UNL     1     -42.858 -48.835  12.005  1.00  0.00     0.316 HD
BRANCH  13  15
HETATM   15  C   UNL     1     -41.515 -48.261  10.563  1.00  0.00     0.233 C 
HETATM   16  C   UNL     1     -40.363 -47.681  11.430  1.00  0.00     0.036 C 
HETATM   17  C   UNL     1     -40.868 -46.819  12.595  1.00  0.00     0.002 C 
HETATM   18  C   UNL     1     -41.800 -45.705  12.128  1.00  0.00     0.001 C 
HETATM   19  C   UNL     1     -42.906 -46.212  11.206  1.00  0.00     0.015 C 
HETATM   20  C   UNL     1     -42.332 -47.046  10.050  1.00  0.00     0.126 C 
BRANCH  20  21
HETATM   21  C   UNL     1     -43.385 -47.331   8.990  1.00  0.00     0.393 C 
HETATM   22  F   UNL     1     -42.959 -48.214   8.061  1.00  0.00    -0.171 F 
HETATM   23  F   UNL     1     -44.540 -47.801   9.511  1.00  0.00    -0.171 F 
HETATM   24  F   UNL     1     -43.693 -46.190   8.325  1.00  0.00    -0.171 F 
ENDBRANCH  20  21
ENDBRANCH  13  15
ENDBRANCH   1  13
TORSDOF 6
ENDMDL
MODEL 3
REMARK VINA RESULT:      -6.4      1.816      2.330
REMARK  6 active torsions:
REMARK  status: ('A' for Active; 'I' for Inactive)
REMARK    1  A    between atoms: N_2  and  C_4 
REMARK    2  A    between atoms: N_9  and  C_10 
REMARK    3  A    between atoms: C_10  and  C_11 
REMARK    4  A    between atoms: C_11  and  N_12 
REMARK    5  A    between atoms: N_12  and  C_13 
REMARK    6  A    between atoms: C_18  and  C_19 
ROOT
HETATM    1  C   UNL     1     -43.514 -49.684  12.954  1.00  0.00     0.290 C 
ENDROOT
BRANCH   1   2
HETATM    2  C   UNL     1     -42.242 -49.458  12.105  1.00  0.00     0.161 C 
BRANCH   2   3
HETATM    3  N   UNL     1     -42.002 -48.126  11.528  1.00  0.00    -0.321 N 
HETATM    4  C   UNL     1     -40.718 -47.592  11.710  1.00  0.00     0.247 A 
HETATM    5  C   UNL     1     -40.438 -46.296  11.026  1.00  0.00     0.077 A 
HETATM    6  O   UNL     1     -39.828 -48.123  12.367  1.00  0.00    -0.268 OA
HETATM    7  C   UNL     1     -41.373 -45.713  10.262  1.00  0.00     0.043 A 
HETATM    8  C   UNL     1     -42.667 -46.324  10.119  1.00  0.00     0.118 A 
HETATM    9  C   UNL     1     -42.949 -47.475  10.742  1.00  0.00     0.130 A 
BRANCH   8  10
HETATM   10  N   UNL     1     -43.698 -45.744   9.261  1.00  0.00    -0.114 N 
HETATM   11  O   UNL     1     -44.443 -46.517   8.647  1.00  0.00    -0.532 OA
HETATM   12  O   UNL     1     -43.754 -44.509   9.206  1.00  0.00    -0.532 OA
ENDBRANCH   8  10
ENDBRANCH   2   3
ENDBRANCH   1   2
BRANCH   1  13
HETATM   13  N   UNL     1     -44.045 -51.051  12.909  1.00  0.00     0.090 N 
HETATM   14  H   UNL     1     -43.489 -51.601  12.249  1.00  0.00     0.316 HD
BRANCH  13  15
HETATM   15  C   UNL     1     -44.106 -51.759  14.201  1.00  0.00     0.233 C 
HETATM   16  C   UNL     1     -42.980 -52.830  14.169  1.00  0.00     0.036 C 
HETATM   17  C   UNL     1     -43.282 -53.985  13.204  1.00  0.00     0.002 C 
HETATM   18  C   UNL     1     -44.633 -54.635  13.485  1.00  0.00     0.001 C 
HETATM   19  C   UNL     1     -45.763 -53.615  13.605  1.00  0.00     0.015 C 
HETATM   20  C   UNL     1     -45.407 -52.501  14.603  1.00  0.00     0.126 C 
BRANCH  20  21
HETATM   21  C   UNL     1     -46.615 -51.634  14.926  1.00  0.00     0.393 C 
HETATM   22  F   UNL     1     -46.344 -50.697  15.860  1.00  0.00    -0.171 F 
HETATM   23  F   UNL     1     -47.115 -51.006  13.840  1.00  0.00    -0.171 F 
HETATM   24  F   UNL     1     -47.613 -52.402  15.428  1.00  0.00    -0.171 F 
ENDBRANCH  20  21
ENDBRANCH  13  15
ENDBRANCH   1  13
TORSDOF 6
ENDMDL
MODEL 4
REMARK VINA RESULT:      -6.2      3.796      5.137
REMARK  6 active torsions:
REMARK  status: ('A' for Active; 'I' for Inactive)
REMARK    1  A    between atoms: N_2  and  C_4 
REMARK    2  A    between atoms: N_9  and  C_10 
REMARK    3  A    between atoms: C_10  and  C_11 
REMARK    4  A    between atoms: C_11  and  N_12 
REMARK    5  A    between atoms: N_12  and  C_13 
REMARK    6  A    between atoms: C_18  and  C_19 
ROOT
HETATM    1  C   UNL     1     -43.033 -51.635  12.933  1.00  0.00     0.290 C 
ENDROOT
BRANCH   1   2
HETATM    2  C   UNL     1     -41.549 -51.813  13.328  1.00  0.00     0.161 C 
BRANCH   2   3
HETATM    3  N   UNL     1     -40.565 -50.830  12.848  1.00  0.00    -0.321 N 
HETATM    4  C   UNL     1     -39.219 -51.221  12.900  1.00  0.00     0.247 A 
HETATM    5  C   UNL     1     -38.232 -50.272  12.306  1.00  0.00     0.077 A 
HETATM    6  O   UNL     1     -38.817 -52.277  13.376  1.00  0.00    -0.268 OA
HETATM    7  C   UNL     1     -38.642 -49.130  11.735  1.00  0.00     0.043 A 
HETATM    8  C   UNL     1     -40.042 -48.799  11.716  1.00  0.00     0.118 A 
HETATM    9  C   UNL     1     -40.943 -49.624  12.263  1.00  0.00     0.130 A 
BRANCH   8  10
HETATM   10  N   UNL     1     -40.534 -47.587  11.065  1.00  0.00    -0.114 N 
HETATM   11  O   UNL     1     -39.887 -46.544  11.215  1.00  0.00    -0.532 OA
HETATM   12  O   UNL     1     -41.575 -47.689  10.403  1.00  0.00    -0.532 OA
ENDBRANCH   8  10
ENDBRANCH   2   3
ENDBRANCH   1   2
BRANCH   1  13
HETATM   13  N   UNL     1     -43.984 -51.809  14.036  1.00  0.00     0.090 N 
HETATM   14  H   UNL     1     -44.107 -50.912  14.513  1.00  0.00     0.316 HD
BRANCH  13  15
HETATM   15  C   UNL     1     -45.305 -52.347  13.667  1.00  0.00     0.233 C 
HETATM   16  C   UNL     1     -46.353 -51.298  14.132  1.00  0.00     0.036 C 
HETATM   17  C   UNL     1     -46.497 -51.233  15.658  1.00  0.00     0.002 C 
HETATM   18  C   UNL     1     -46.798 -52.598  16.270  1.00  0.00     0.001 C 
HETATM   19  C   UNL     1     -45.842 -53.684  15.781  1.00  0.00     0.015 C 
HETATM   20  C   UNL     1     -45.763 -53.711  14.246  1.00  0.00     0.126 C 
BRANCH  20  21
HETATM   21  C   UNL     1     -45.028 -54.946  13.746  1.00  0.00     0.393 C 
HETATM   22  F   UNL     1     -44.463 -54.756  12.534  1.00  0.00    -0.171 F 
HETATM   23  F   UNL     1     -44.063 -55.360  14.595  1.00  0.00    -0.171 F 
HETATM   24  F   UNL     1     -45.897 -55.977  13.609  1.00  0.00    -0.171 F 
ENDBRANCH  20  21
ENDBRANCH  13  15
ENDBRANCH   1  13
TORSDOF 6
ENDMDL
MODEL 5
REMARK VINA RESULT:      -6.2      4.273      5.495
REMARK  6 active torsions:
REMARK  status: ('A' for Active; 'I' for Inactive)
REMARK    1  A    between atoms: N_2  and  C_4 
REMARK    2  A    between atoms: N_9  and  C_10 
REMARK    3  A    between atoms: C_10  and  C_11 
REMARK    4  A    between atoms: C_11  and  N_12 
REMARK    5  A    between atoms: N_12  and  C_13 
REMARK    6  A    between atoms: C_18  and  C_19 
ROOT
HETATM    1  C   UNL     1     -42.070 -52.089  12.039  1.00  0.00     0.290 C 
ENDROOT
BRANCH   1   2
HETATM    2  C   UNL     1     -41.932 -50.742  12.785  1.00  0.00     0.161 C 
BRANCH   2   3
HETATM    3  N   UNL     1     -40.624 -50.069  12.797  1.00  0.00    -0.321 N 
HETATM    4  C   UNL     1     -40.503 -48.963  13.651  1.00  0.00     0.247 A 
HETATM    5  C   UNL     1     -39.145 -48.352  13.753  1.00  0.00     0.077 A 
HETATM    6  O   UNL     1     -41.419 -48.490  14.315  1.00  0.00    -0.268 OA
HETATM    7  C   UNL     1     -38.111 -48.874  13.075  1.00  0.00     0.043 A 
HETATM    8  C   UNL     1     -38.313 -50.014  12.223  1.00  0.00     0.118 A 
HETATM    9  C   UNL     1     -39.527 -50.564  12.098  1.00  0.00     0.130 A 
BRANCH   8  10
HETATM   10  N   UNL     1     -37.205 -50.639  11.504  1.00  0.00    -0.114 N 
HETATM   11  O   UNL     1     -36.708 -51.666  11.983  1.00  0.00    -0.532 OA
HETATM   12  O   UNL     1     -36.837 -50.094  10.455  1.00  0.00    -0.532 OA
ENDBRANCH   8  10
ENDBRANCH   2   3
ENDBRANCH   1   2
BRANCH   1  13
HETATM   13  N   UNL     1     -43.296 -52.835  12.346  1.00  0.00     0.090 N 
HETATM   14  H   UNL     1     -43.113 -53.835  12.232  1.00  0.00     0.316 HD
BRANCH  13  15
HETATM   15  C   UNL     1     -43.876 -52.596  13.680  1.00  0.00     0.233 C 
HETATM   16  C   UNL     1     -43.254 -53.658  14.627  1.00  0.00     0.036 C 
HETATM   17  C   UNL     1     -43.766 -55.078  14.352  1.00  0.00     0.002 C 
HETATM   18  C   UNL     1     -45.290 -55.160  14.382  1.00  0.00     0.001 C 
HETATM   19  C   UNL     1     -45.953 -54.083  13.527  1.00  0.00     0.015 C 
HETATM   20  C   UNL     1     -45.413 -52.685  13.869  1.00  0.00     0.126 C 
BRANCH  20  21
HETATM   21  C   UNL     1     -46.246 -51.590  13.219  1.00  0.00     0.393 C 
HETATM   22  F   UNL     1     -46.942 -52.035  12.150  1.00  0.00    -0.171 F 
HETATM   23  F   UNL     1     -47.120 -51.018  14.075  1.00  0.00    -0.171 F 
HETATM   24  F   UNL     1     -45.437 -50.601  12.767  1.00  0.00    -0.171 F 
ENDBRANCH  20  21
ENDBRANCH  13  15
ENDBRANCH   1  13
TORSDOF 6
ENDMDL
MODEL 6
REMARK VINA RESULT:      -6.2      4.797      6.360
REMARK  6 active torsions:
REMARK  status: ('A' for Active; 'I' for Inactive)
REMARK    1  A    between atoms: N_2  and  C_4 
REMARK    2  A    between atoms: N_9  and  C_10 
REMARK    3  A    between atoms: C_10  and  C_11 
REMARK    4  A    between atoms: C_11  and  N_12 
REMARK    5  A    between atoms: N_12  and  C_13 
REMARK    6  A    between atoms: C_18  and  C_19 
ROOT
HETATM    1  C   UNL     1     -43.157 -51.454  12.965  1.00  0.00     0.290 C 
ENDROOT
BRANCH   1   2
HETATM    2  C   UNL     1     -42.236 -50.237  13.215  1.00  0.00     0.161 C 
BRANCH   2   3
HETATM    3  N   UNL     1     -40.856 -50.473  13.665  1.00  0.00    -0.321 N 
HETATM    4  C   UNL     1     -40.697 -50.867  15.001  1.00  0.00     0.247 A 
HETATM    5  C   UNL     1     -39.311 -51.220  15.426  1.00  0.00     0.077 A 
HETATM    6  O   UNL     1     -41.610 -50.954  15.817  1.00  0.00    -0.268 OA
HETATM    7  C   UNL     1     -38.298 -51.180  14.547  1.00  0.00     0.043 A 
HETATM    8  C   UNL     1     -38.540 -50.770  13.191  1.00  0.00     0.118 A 
HETATM    9  C   UNL     1     -39.772 -50.427  12.793  1.00  0.00     0.130 A 
BRANCH   8  10
HETATM   10  N   UNL     1     -37.474 -50.756  12.192  1.00  0.00    -0.114 N 
HETATM   11  O   UNL     1     -37.366 -49.757  11.471  1.00  0.00    -0.532 OA
HETATM   12  O   UNL     1     -36.745 -51.755  12.135  1.00  0.00    -0.532 OA
ENDBRANCH   8  10
ENDBRANCH   2   3
ENDBRANCH   1   2
BRANCH   1  13
HETATM   13  N   UNL     1     -44.112 -51.730  14.044  1.00  0.00     0.090 N 
HETATM   14  H   UNL     1     -44.289 -50.864  14.560  1.00  0.00     0.316 HD
BRANCH  13  15
HETATM   15  C   UNL     1     -45.397 -52.320  13.630  1.00  0.00     0.233 C 
HETATM   16  C   UNL     1     -46.498 -51.295  14.019  1.00  0.00     0.036 C 
HETATM   17  C   UNL     1     -46.714 -51.196  15.535  1.00  0.00     0.002 C 
HETATM   18  C   UNL     1     -47.000 -52.555  16.168  1.00  0.00     0.001 C 
HETATM   19  C   UNL     1     -45.988 -53.621  15.752  1.00  0.00     0.015 C 
HETATM   20  C   UNL     1     -45.838 -53.684  14.223  1.00  0.00     0.126 C 
BRANCH  20  21
HETATM   21  C   UNL     1     -45.042 -54.906  13.790  1.00  0.00     0.393 C 
HETATM   22  F   UNL     1     -44.053 -55.213  14.657  1.00  0.00    -0.171 F 
HETATM   23  F   UNL     1     -45.812 -56.004  13.633  1.00  0.00    -0.171 F 
HETATM   24  F   UNL     1     -44.448 -54.670  12.595  1.00  0.00    -0.171 F 
ENDBRANCH  20  21
ENDBRANCH  13  15
ENDBRANCH   1  13
TORSDOF 6
ENDMDL
MODEL 7
REMARK VINA RESULT:      -6.1      5.259      7.800
REMARK  6 active torsions:
REMARK  status: ('A' for Active; 'I' for Inactive)
REMARK    1  A    between atoms: N_2  and  C_4 
REMARK    2  A    between atoms: N_9  and  C_10 
REMARK    3  A    between atoms: C_10  and  C_11 
REMARK    4  A    between atoms: C_11  and  N_12 
REMARK    5  A    between atoms: N_12  and  C_13 
REMARK    6  A    between atoms: C_18  and  C_19 
ROOT
HETATM    1  C   UNL     1     -41.509 -50.937  12.047  1.00  0.00     0.290 C 
ENDROOT
BRANCH   1   2
HETATM    2  C   UNL     1     -41.421 -52.459  11.791  1.00  0.00     0.161 C 
BRANCH   2   3
HETATM    3  N   UNL     1     -41.799 -53.383  12.871  1.00  0.00    -0.321 N 
HETATM    4  C   UNL     1     -40.769 -53.790  13.731  1.00  0.00     0.247 A 
HETATM    5  C   UNL     1     -41.172 -54.633  14.895  1.00  0.00     0.077 A 
HETATM    6  O   UNL     1     -39.587 -53.488  13.595  1.00  0.00    -0.268 OA
HETATM    7  C   UNL     1     -42.461 -54.942  15.097  1.00  0.00     0.043 A 
HETATM    8  C   UNL     1     -43.464 -54.484  14.174  1.00  0.00     0.118 A 
HETATM    9  C   UNL     1     -43.122 -53.746  13.110  1.00  0.00     0.130 A 
BRANCH   8  10
HETATM   10  N   UNL     1     -44.883 -54.761  14.384  1.00  0.00    -0.114 N 
HETATM   11  O   UNL     1     -45.591 -54.944  13.386  1.00  0.00    -0.532 OA
HETATM   12  O   UNL     1     -45.282 -54.793  15.555  1.00  0.00    -0.532 OA
ENDBRANCH   8  10
ENDBRANCH   2   3
ENDBRANCH   1   2
BRANCH   1  13
HETATM   13  N   UNL     1     -40.380 -50.377  12.797  1.00  0.00     0.090 N 
HETATM   14  H   UNL     1     -39.937 -51.124  13.338  1.00  0.00     0.316 HD
BRANCH  13  15
HETATM   15  C   UNL     1     -39.354 -49.687  11.993  1.00  0.00     0.233 C 
HETATM   16  C   UNL     1     -37.978 -50.198  12.503  1.00  0.00     0.036 C 
HETATM   17  C   UNL     1     -37.629 -49.678  13.904  1.00  0.00     0.002 C 
HETATM   18  C   UNL     1     -37.701 -48.156  13.990  1.00  0.00     0.001 C 
HETATM   19  C   UNL     1     -39.006 -47.597  13.426  1.00  0.00     0.015 C 
HETATM   20  C   UNL     1     -39.283 -48.138  12.014  1.00  0.00     0.126 C 
BRANCH  20  21
HETATM   21  C   UNL     1     -40.428 -47.393  11.345  1.00  0.00     0.393 C 
HETATM   22  F   UNL     1     -41.134 -48.177  10.503  1.00  0.00    -0.171 F 
HETATM   23  F   UNL     1     -41.291 -46.853  12.233  1.00  0.00    -0.171 F 
HETATM   24  F   UNL     1     -39.941 -46.369  10.602  1.00  0.00    -0.171 F 
ENDBRANCH  20  21
ENDBRANCH  13  15
ENDBRANCH   1  13
TORSDOF 6
ENDMDL
MODEL 8
REMARK VINA RESULT:      -6.1      3.134      3.919
REMARK  6 active torsions:
REMARK  status: ('A' for Active; 'I' for Inactive)
REMARK    1  A    between atoms: N_2  and  C_4 
REMARK    2  A    between atoms: N_9  and  C_10 
REMARK    3  A    between atoms: C_10  and  C_11 
REMARK    4  A    between atoms: C_11  and  N_12 
REMARK    5  A    between atoms: N_12  and  C_13 
REMARK    6  A    between atoms: C_18  and  C_19 
ROOT
HETATM    1  C   UNL     1     -43.363 -50.139  12.909  1.00  0.00     0.290 C 
ENDROOT
BRANCH   1   2
HETATM    2  C   UNL     1     -42.027 -49.853  12.184  1.00  0.00     0.161 C 
BRANCH   2   3
HETATM    3  N   UNL     1     -41.793 -48.509  11.632  1.00  0.00    -0.321 N 
HETATM    4  C   UNL     1     -40.622 -47.861  12.050  1.00  0.00     0.247 A 
HETATM    5  C   UNL     1     -40.325 -46.550  11.401  1.00  0.00     0.077 A 
HETATM    6  O   UNL     1     -39.838 -48.305  12.882  1.00  0.00    -0.268 OA
HETATM    7  C   UNL     1     -41.137 -46.059  10.454  1.00  0.00     0.043 A 
HETATM    8  C   UNL     1     -42.319 -46.785  10.075  1.00  0.00     0.118 A 
HETATM    9  C   UNL     1     -42.618 -47.952  10.659  1.00  0.00     0.130 A 
BRANCH   8  10
HETATM   10  N   UNL     1     -43.206 -46.307   9.016  1.00  0.00    -0.114 N 
HETATM   11  O   UNL     1     -43.482 -47.086   8.095  1.00  0.00    -0.532 OA
HETATM   12  O   UNL     1     -43.623 -45.146   9.114  1.00  0.00    -0.532 OA
ENDBRANCH   8  10
ENDBRANCH   2   3
ENDBRANCH   1   2
BRANCH   1  13
HETATM   13  N   UNL     1     -43.435 -51.450  13.563  1.00  0.00     0.090 N 
HETATM   14  H   UNL     1     -44.314 -51.515  14.081  1.00  0.00     0.316 HD
BRANCH  13  15
HETATM   15  C   UNL     1     -43.308 -52.619  12.674  1.00  0.00     0.233 C 
HETATM   16  C   UNL     1     -44.736 -53.210  12.517  1.00  0.00     0.036 C 
HETATM   17  C   UNL     1     -45.247 -53.887  13.796  1.00  0.00     0.002 C 
HETATM   18  C   UNL     1     -44.281 -54.950  14.312  1.00  0.00     0.001 C 
HETATM   19  C   UNL     1     -42.845 -54.441  14.409  1.00  0.00     0.015 C 
HETATM   20  C   UNL     1     -42.389 -53.797  13.090  1.00  0.00     0.126 C 
BRANCH  20  21
HETATM   21  C   UNL     1     -40.891 -53.528  13.088  1.00  0.00     0.393 C 
HETATM   22  F   UNL     1     -40.509 -52.722  14.102  1.00  0.00    -0.171 F 
HETATM   23  F   UNL     1     -40.156 -54.659  13.156  1.00  0.00    -0.171 F 
HETATM   24  F   UNL     1     -40.536 -52.900  11.941  1.00  0.00    -0.171 F 
ENDBRANCH  20  21
ENDBRANCH  13  15
ENDBRANCH   1  13
TORSDOF 6
ENDMDL
MODEL 9
REMARK VINA RESULT:      -6.0      2.654      3.509
REMARK  6 active torsions:
REMARK  status: ('A' for Active; 'I' for Inactive)
REMARK    1  A    between atoms: N_2  and  C_4 
REMARK    2  A    between atoms: N_9  and  C_10 
REMARK    3  A    between atoms: C_10  and  C_11 
REMARK    4  A    between atoms: C_11  and  N_12 
REMARK    5  A    between atoms: N_12  and  C_13 
REMARK    6  A    between atoms: C_18  and  C_19 
ROOT
HETATM    1  C   UNL     1     -43.446 -49.741  13.647  1.00  0.00     0.290 C 
ENDROOT
BRANCH   1   2
HETATM    2  C   UNL     1     -42.397 -49.768  12.511  1.00  0.00     0.161 C 
BRANCH   2   3
HETATM    3  N   UNL     1     -42.056 -48.510  11.829  1.00  0.00    -0.321 N 
HETATM    4  C   UNL     1     -40.846 -47.908  12.204  1.00  0.00     0.247 A 
HETATM    5  C   UNL     1     -40.444 -46.696  11.432  1.00  0.00     0.077 A 
HETATM    6  O   UNL     1     -40.109 -48.318  13.095  1.00  0.00    -0.268 OA
HETATM    7  C   UNL     1     -41.204 -46.249  10.421  1.00  0.00     0.043 A 
HETATM    8  C   UNL     1     -42.431 -46.923  10.092  1.00  0.00     0.118 A 
HETATM    9  C   UNL     1     -42.824 -47.998  10.786  1.00  0.00     0.130 A 
BRANCH   8  10
HETATM   10  N   UNL     1     -43.264 -46.494   8.971  1.00  0.00    -0.114 N 
HETATM   11  O   UNL     1     -43.633 -47.353   8.161  1.00  0.00    -0.532 OA
HETATM   12  O   UNL     1     -43.546 -45.291   8.909  1.00  0.00    -0.532 OA
ENDBRANCH   8  10
ENDBRANCH   2   3
ENDBRANCH   1   2
BRANCH   1  13
HETATM   13  N   UNL     1     -43.692 -51.040  14.282  1.00  0.00     0.090 N 
HETATM   14  H   UNL     1     -44.228 -50.893  15.141  1.00  0.00     0.316 HD
BRANCH  13  15
HETATM   15  C   UNL     1     -44.378 -52.043  13.448  1.00  0.00     0.233 C 
HETATM   16  C   UNL     1     -45.774 -51.452  13.106  1.00  0.00     0.036 C 
HETATM   17  C   UNL     1     -46.716 -51.407  14.317  1.00  0.00     0.002 C 
HETATM   18  C   UNL     1     -46.860 -52.769  14.989  1.00  0.00     0.001 C 
HETATM   19  C   UNL     1     -45.514 -53.429  15.275  1.00  0.00     0.015 C 
HETATM   20  C   UNL     1     -44.630 -53.464  14.017  1.00  0.00     0.126 C 
BRANCH  20  21
HETATM   21  C   UNL     1     -43.406 -54.346  14.219  1.00  0.00     0.393 C 
HETATM   22  F   UNL     1     -42.625 -54.406  13.119  1.00  0.00    -0.171 F 
HETATM   23  F   UNL     1     -42.637 -53.944  15.255  1.00  0.00    -0.171 F 
HETATM   24  F   UNL     1     -43.792 -55.617  14.489  1.00  0.00    -0.171 F 
ENDBRANCH  20  21
ENDBRANCH  13  15
ENDBRANCH   1  13
TORSDOF 6
ENDMDL
