MODEL 1
REMARK VINA RESULT:      -6.0      0.000      0.000
REMARK  5 active torsions:
REMARK  status: ('A' for Active; 'I' for Inactive)
REMARK    1  A    between atoms: N_2  and  C_3 
REMARK    2  A    between atoms: N_2  and  C_16 
REMARK    3  A    between atoms: C_3  and  C_4 
REMARK    4  A    between atoms: C_4  and  N_5 
REMARK       I    between atoms: N_5  and  C_6 
REMARK       I    between atoms: C_6  and  N_8 
REMARK    5  A    between atoms: N_8  and  C_9 
ROOT
HETATM    1  N   UNL     1     -41.848 -50.825  11.912  1.00  0.00    -0.341 N 
HETATM    2  C   UNL     1     -42.492 -49.605  11.863  1.00  0.00     0.320 C 
HETATM    3  O   UNL     1     -43.255 -49.258  12.754  1.00  0.00    -0.247 OA
HETATM    4  N   UNL     1     -42.148 -48.861  10.759  1.00  0.00    -0.309 N 
HETATM    5  H   UNL     1     -41.699 -51.283  11.025  1.00  0.00     0.164 HD
HETATM    6  H   UNL     1     -41.453 -49.259  10.147  1.00  0.00     0.170 HD
ENDROOT
BRANCH   1   7
HETATM    7  C   UNL     1     -42.125 -51.690  13.057  1.00  0.00     0.154 C 
BRANCH   7   8
HETATM    8  C   UNL     1     -43.103 -52.831  12.717  1.00  0.00     0.292 C 
BRANCH   8   9
HETATM    9  N   UNL     1     -43.866 -53.392  13.866  1.00  0.00     0.090 N 
HETATM   10  C   UNL     1     -43.198 -54.614  14.356  1.00  0.00     0.310 C 
BRANCH   9  11
HETATM   11  C   UNL     1     -45.281 -53.695  13.481  1.00  0.00     0.222 C 
HETATM   12  C   UNL     1     -46.059 -52.493  12.885  1.00  0.00     0.036 C 
HETATM   13  C   UNL     1     -46.374 -51.394  13.901  1.00  0.00     0.002 C 
HETATM   14  C   UNL     1     -47.054 -51.928  15.159  1.00  0.00     0.000 C 
HETATM   15  C   UNL     1     -46.349 -53.150  15.735  1.00  0.00     0.002 C 
HETATM   16  C   UNL     1     -46.139 -54.216  14.661  1.00  0.00     0.036 C 
ENDBRANCH   9  11
ENDBRANCH   8   9
ENDBRANCH   7   8
ENDBRANCH   1   7
BRANCH   4  17
HETATM   17  C   UNL     1     -42.587 -47.543  10.485  1.00  0.00     0.038 A 
HETATM   18  C   UNL     1     -42.082 -46.414  11.128  1.00  0.00     0.046 A 
HETATM   19  C   UNL     1     -42.556 -45.165  10.769  1.00  0.00     0.090 A 
HETATM   20  N   UNL     1     -43.498 -44.964   9.828  1.00  0.00    -0.375 N 
HETATM   21  C   UNL     1     -43.983 -46.067   9.223  1.00  0.00     0.090 A 
ATOM     22  HN  UNL     1     -43.827 -44.029   9.585  1.00  0.00     0.164 HD
HETATM   23  C   UNL     1     -43.566 -47.362   9.509  1.00  0.00     0.046 A 
ENDBRANCH   4  17
TORSDOF 5
ENDMDL
MODEL 2
REMARK VINA RESULT:      -5.9      2.827      3.878
REMARK  5 active torsions:
REMARK  status: ('A' for Active; 'I' for Inactive)
REMARK    1  A    between atoms: N_2  and  C_3 
REMARK    2  A    between atoms: N_2  and  C_16 
REMARK    3  A    between atoms: C_3  and  C_4 
REMARK    4  A    between atoms: C_4  and  N_5 
REMARK       I    between atoms: N_5  and  C_6 
REMARK       I    between atoms: C_6  and  N_8 
REMARK    5  A    between atoms: N_8  and  C_9 
ROOT
HETATM    1  N   UNL     1     -40.537 -49.536  10.679  1.00  0.00    -0.341 N 
HETATM    2  C   UNL     1     -41.680 -48.767  10.760  1.00  0.00     0.320 C 
HETATM    3  O   UNL     1     -42.223 -48.554  11.835  1.00  0.00    -0.247 OA
HETATM    4  N   UNL     1     -42.079 -48.271   9.541  1.00  0.00    -0.309 N 
HETATM    5  H   UNL     1     -40.444 -50.105   9.851  1.00  0.00     0.164 HD
HETATM    6  H   UNL     1     -41.487 -48.483   8.754  1.00  0.00     0.170 HD
ENDROOT
BRANCH   1   7
HETATM    7  C   UNL     1     -40.012 -50.098  11.923  1.00  0.00     0.154 C 
BRANCH   7   8
HETATM    8  C   UNL     1     -40.741 -51.388  12.347  1.00  0.00     0.292 C 
BRANCH   8   9
HETATM    9  N   UNL     1     -40.132 -52.130  13.484  1.00  0.00     0.090 N 
HETATM   10  C   UNL     1     -38.741 -51.673  13.687  1.00  0.00     0.310 C 
BRANCH   9  11
HETATM   11  C   UNL     1     -40.161 -53.608  13.246  1.00  0.00     0.222 C 
HETATM   12  C   UNL     1     -41.581 -54.203  13.065  1.00  0.00     0.036 C 
HETATM   13  C   UNL     1     -42.420 -54.204  14.344  1.00  0.00     0.002 C 
HETATM   14  C   UNL     1     -41.696 -54.842  15.527  1.00  0.00     0.000 C 
HETATM   15  C   UNL     1     -40.273 -54.323  15.694  1.00  0.00     0.002 C 
HETATM   16  C   UNL     1     -39.497 -54.425  14.382  1.00  0.00     0.036 C 
ENDBRANCH   9  11
ENDBRANCH   8   9
ENDBRANCH   7   8
ENDBRANCH   1   7
BRANCH   4  17
HETATM   17  C   UNL     1     -43.166 -47.389   9.327  1.00  0.00     0.038 A 
HETATM   18  C   UNL     1     -44.476 -47.819   9.123  1.00  0.00     0.046 A 
HETATM   19  C   UNL     1     -45.476 -46.877   8.952  1.00  0.00     0.090 A 
HETATM   20  N   UNL     1     -45.260 -45.547   8.959  1.00  0.00    -0.375 N 
HETATM   21  C   UNL     1     -43.986 -45.150   9.146  1.00  0.00     0.090 A 
ATOM     22  HN  UNL     1     -46.019 -44.878   8.829  1.00  0.00     0.164 HD
HETATM   23  C   UNL     1     -42.917 -46.017   9.335  1.00  0.00     0.046 A 
ENDBRANCH   4  17
TORSDOF 5
ENDMDL
MODEL 3
REMARK VINA RESULT:      -5.9      1.373      1.675
REMARK  5 active torsions:
REMARK  status: ('A' for Active; 'I' for Inactive)
REMARK    1  A    between atoms: N_2  and  C_3 
REMARK    2  A    between atoms: N_2  and  C_16 
REMARK    3  A    between atoms: C_3  and  C_4 
REMARK    4  A    between atoms: C_4  and  N_5 
REMARK       I    between atoms: N_5  and  C_6 
REMARK       I    between atoms: C_6  and  N_8 
REMARK    5  A    between atoms: N_8  and  C_9 
ROOT
HETATM    1  N   UNL     1     -40.968 -51.479  11.388  1.00  0.00    -0.341 N 
HETATM    2  C   UNL     1     -41.166 -50.154  11.720  1.00  0.00     0.320 C 
HETATM    3  O   UNL     1     -41.224 -49.798  12.889  1.00  0.00    -0.247 OA
HETATM    4  N   UNL     1     -41.244 -49.333  10.621  1.00  0.00    -0.309 N 
HETATM    5  H   UNL     1     -41.435 -51.801  10.554  1.00  0.00     0.164 HD
HETATM    6  H   UNL     1     -41.112 -49.770   9.722  1.00  0.00     0.170 HD
ENDROOT
BRANCH   1   7
HETATM    7  C   UNL     1     -40.849 -52.439  12.484  1.00  0.00     0.154 C 
BRANCH   7   8
HETATM    8  C   UNL     1     -42.183 -53.137  12.812  1.00  0.00     0.292 C 
BRANCH   8   9
HETATM    9  N   UNL     1     -42.975 -52.532  13.917  1.00  0.00     0.090 N 
HETATM   10  C   UNL     1     -42.133 -52.420  15.126  1.00  0.00     0.310 C 
BRANCH   9  11
HETATM   11  C   UNL     1     -44.200 -53.340  14.213  1.00  0.00     0.222 C 
HETATM   12  C   UNL     1     -45.128 -53.573  12.993  1.00  0.00     0.036 C 
HETATM   13  C   UNL     1     -45.848 -52.312  12.513  1.00  0.00     0.002 C 
HETATM   14  C   UNL     1     -46.580 -51.583  13.637  1.00  0.00     0.000 C 
HETATM   15  C   UNL     1     -45.713 -51.394  14.876  1.00  0.00     0.002 C 
HETATM   16  C   UNL     1     -45.093 -52.718  15.316  1.00  0.00     0.036 C 
ENDBRANCH   9  11
ENDBRANCH   8   9
ENDBRANCH   7   8
ENDBRANCH   1   7
BRANCH   4  17
HETATM   17  C   UNL     1     -41.364 -47.922  10.654  1.00  0.00     0.038 A 
HETATM   18  C   UNL     1     -40.325 -47.070  11.021  1.00  0.00     0.046 A 
HETATM   19  C   UNL     1     -40.532 -45.702  10.993  1.00  0.00     0.090 A 
HETATM   20  N   UNL     1     -41.699 -45.129  10.638  1.00  0.00    -0.375 N 
HETATM   21  C   UNL     1     -42.697 -45.968  10.296  1.00  0.00     0.090 A 
ATOM     22  HN  UNL     1     -41.821 -44.116  10.628  1.00  0.00     0.164 HD
HETATM   23  C   UNL     1     -42.583 -47.353  10.285  1.00  0.00     0.046 A 
ENDBRANCH   4  17
TORSDOF 5
ENDMDL
MODEL 4
REMARK VINA RESULT:      -5.9      2.336      7.554
REMARK  5 active torsions:
REMARK  status: ('A' for Active; 'I' for Inactive)
REMARK    1  A    between atoms: N_2  and  C_3 
REMARK    2  A    between atoms: N_2  and  C_16 
REMARK    3  A    between atoms: C_3  and  C_4 
REMARK    4  A    between atoms: C_4  and  N_5 
REMARK       I    between atoms: N_5  and  C_6 
REMARK       I    between atoms: C_6  and  N_8 
REMARK    5  A    between atoms: N_8  and  C_9 
ROOT
HETATM    1  N   UNL     1     -41.110 -51.616  11.430  1.00  0.00    -0.341 N 
HETATM    2  C   UNL     1     -42.056 -51.944  12.380  1.00  0.00     0.320 C 
HETATM    3  O   UNL     1     -41.951 -51.557  13.535  1.00  0.00    -0.247 OA
HETATM    4  N   UNL     1     -43.093 -52.688  11.868  1.00  0.00    -0.309 N 
HETATM    5  H   UNL     1     -40.925 -52.317  10.728  1.00  0.00     0.164 HD
HETATM    6  H   UNL     1     -43.068 -52.872  10.877  1.00  0.00     0.170 HD
ENDROOT
BRANCH   1   7
HETATM    7  C   UNL     1     -39.972 -50.806  11.862  1.00  0.00     0.154 C 
BRANCH   7   8
HETATM    8  C   UNL     1     -40.027 -49.366  11.318  1.00  0.00     0.292 C 
BRANCH   8   9
HETATM    9  N   UNL     1     -39.756 -48.289  12.309  1.00  0.00     0.090 N 
HETATM   10  C   UNL     1     -39.623 -48.878  13.657  1.00  0.00     0.310 C 
BRANCH   9  11
HETATM   11  C   UNL     1     -40.842 -47.258  12.300  1.00  0.00     0.222 C 
HETATM   12  C   UNL     1     -41.037 -46.539  10.940  1.00  0.00     0.036 C 
HETATM   13  C   UNL     1     -39.888 -45.603  10.564  1.00  0.00     0.002 C 
HETATM   14  C   UNL     1     -39.544 -44.611  11.673  1.00  0.00     0.000 C 
HETATM   15  C   UNL     1     -39.407 -45.278  13.037  1.00  0.00     0.002 C 
HETATM   16  C   UNL     1     -40.631 -46.137  13.349  1.00  0.00     0.036 C 
ENDBRANCH   9  11
ENDBRANCH   8   9
ENDBRANCH   7   8
ENDBRANCH   1   7
BRANCH   4  17
HETATM   17  C   UNL     1     -44.242 -53.101  12.584  1.00  0.00     0.038 A 
HETATM   18  C   UNL     1     -45.342 -52.277  12.817  1.00  0.00     0.046 A 
HETATM   19  C   UNL     1     -46.431 -52.783  13.503  1.00  0.00     0.090 A 
HETATM   20  N   UNL     1     -46.496 -54.041  13.980  1.00  0.00    -0.375 N 
HETATM   21  C   UNL     1     -45.420 -54.821  13.756  1.00  0.00     0.090 A 
ATOM     22  HN  UNL     1     -47.315 -54.385  14.484  1.00  0.00     0.164 HD
HETATM   23  C   UNL     1     -44.284 -54.407  13.071  1.00  0.00     0.046 A 
ENDBRANCH   4  17
TORSDOF 5
ENDMDL
MODEL 5
REMARK VINA RESULT:      -5.7      3.082      7.351
REMARK  5 active torsions:
REMARK  status: ('A' for Active; 'I' for Inactive)
REMARK    1  A    between atoms: N_2  and  C_3 
REMARK    2  A    between atoms: N_2  and  C_16 
REMARK    3  A    between atoms: C_3  and  C_4 
REMARK    4  A    between atoms: C_4  and  N_5 
REMARK       I    between atoms: N_5  and  C_6 
REMARK       I    between atoms: C_6  and  N_8 
REMARK    5  A    between atoms: N_8  and  C_9 
ROOT
HETATM    1  N   UNL     1     -40.842 -50.849  11.149  1.00  0.00    -0.341 N 
HETATM    2  C   UNL     1     -41.656 -51.359  12.141  1.00  0.00     0.320 C 
HETATM    3  O   UNL     1     -42.141 -50.631  12.995  1.00  0.00    -0.247 OA
HETATM    4  N   UNL     1     -41.864 -52.713  12.020  1.00  0.00    -0.309 N 
HETATM    5  H   UNL     1     -40.089 -51.447  10.843  1.00  0.00     0.164 HD
HETATM    6  H   UNL     1     -41.445 -53.162  11.221  1.00  0.00     0.170 HD
ENDROOT
BRANCH   1   7
HETATM    7  C   UNL     1     -40.572 -49.413  11.170  1.00  0.00     0.154 C 
BRANCH   7   8
HETATM    8  C   UNL     1     -39.169 -49.080  11.714  1.00  0.00     0.292 C 
BRANCH   8   9
HETATM    9  N   UNL     1     -39.056 -48.985  13.195  1.00  0.00     0.090 N 
HETATM   10  C   UNL     1     -39.031 -47.564  13.600  1.00  0.00     0.310 C 
BRANCH   9  11
HETATM   11  C   UNL     1     -37.829 -49.685  13.692  1.00  0.00     0.222 C 
HETATM   12  C   UNL     1     -37.726 -51.175  13.278  1.00  0.00     0.036 C 
HETATM   13  C   UNL     1     -38.749 -52.082  13.964  1.00  0.00     0.002 C 
HETATM   14  C   UNL     1     -38.754 -51.926  15.483  1.00  0.00     0.000 C 
HETATM   15  C   UNL     1     -38.792 -50.467  15.924  1.00  0.00     0.002 C 
HETATM   16  C   UNL     1     -37.692 -49.660  15.236  1.00  0.00     0.036 C 
ENDBRANCH   9  11
ENDBRANCH   8   9
ENDBRANCH   7   8
ENDBRANCH   1   7
BRANCH   4  17
HETATM   17  C   UNL     1     -42.713 -53.492  12.842  1.00  0.00     0.038 A 
HETATM   18  C   UNL     1     -42.276 -54.166  13.981  1.00  0.00     0.046 A 
HETATM   19  C   UNL     1     -43.191 -54.878  14.736  1.00  0.00     0.090 A 
HETATM   20  N   UNL     1     -44.499 -54.973  14.432  1.00  0.00    -0.375 N 
HETATM   21  C   UNL     1     -44.904 -54.324  13.322  1.00  0.00     0.090 A 
ATOM     22  HN  UNL     1     -45.149 -55.507  15.010  1.00  0.00     0.164 HD
HETATM   23  C   UNL     1     -44.064 -53.577  12.505  1.00  0.00     0.046 A 
ENDBRANCH   4  17
TORSDOF 5
ENDMDL
MODEL 6
REMARK VINA RESULT:      -5.6      4.565      5.890
REMARK  5 active torsions:
REMARK  status: ('A' for Active; 'I' for Inactive)
REMARK    1  A    between atoms: N_2  and  C_3 
REMARK    2  A    between atoms: N_2  and  C_16 
REMARK    3  A    between atoms: C_3  and  C_4 
REMARK    4  A    between atoms: C_4  and  N_5 
REMARK       I    between atoms: N_5  and  C_6 
REMARK       I    between atoms: C_6  and  N_8 
REMARK    5  A    between atoms: N_8  and  C_9 
ROOT
HETATM    1  N   UNL     1     -40.507 -49.578  10.591  1.00  0.00    -0.341 N 
HETATM    2  C   UNL     1     -41.668 -48.838  10.690  1.00  0.00     0.320 C 
HETATM    3  O   UNL     1     -42.292 -48.781  11.741  1.00  0.00    -0.247 OA
HETATM    4  N   UNL     1     -41.986 -48.182   9.525  1.00  0.00    -0.309 N 
HETATM    5  H   UNL     1     -40.342 -50.026   9.701  1.00  0.00     0.164 HD
HETATM    6  H   UNL     1     -41.334 -48.277   8.762  1.00  0.00     0.170 HD
ENDROOT
BRANCH   1   7
HETATM    7  C   UNL     1     -40.063 -50.302  11.781  1.00  0.00     0.154 C 
BRANCH   7   8
HETATM    8  C   UNL     1     -38.578 -50.054  12.108  1.00  0.00     0.292 C 
BRANCH   8   9
HETATM    9  N   UNL     1     -38.159 -50.385  13.497  1.00  0.00     0.090 N 
HETATM   10  C   UNL     1     -38.530 -51.781  13.808  1.00  0.00     0.310 C 
BRANCH   9  11
HETATM   11  C   UNL     1     -38.780 -49.452  14.490  1.00  0.00     0.222 C 
HETATM   12  C   UNL     1     -38.443 -47.955  14.266  1.00  0.00     0.036 C 
HETATM   13  C   UNL     1     -36.985 -47.598  14.561  1.00  0.00     0.002 C 
HETATM   14  C   UNL     1     -36.526 -48.071  15.938  1.00  0.00     0.000 C 
HETATM   15  C   UNL     1     -36.899 -49.523  16.215  1.00  0.00     0.002 C 
HETATM   16  C   UNL     1     -38.385 -49.764  15.955  1.00  0.00     0.036 C 
ENDBRANCH   9  11
ENDBRANCH   8   9
ENDBRANCH   7   8
ENDBRANCH   1   7
BRANCH   4  17
HETATM   17  C   UNL     1     -43.072 -47.289   9.353  1.00  0.00     0.038 A 
HETATM   18  C   UNL     1     -42.951 -45.904   9.443  1.00  0.00     0.046 A 
HETATM   19  C   UNL     1     -44.067 -45.114   9.229  1.00  0.00     0.090 A 
HETATM   20  N   UNL     1     -45.289 -45.606   8.945  1.00  0.00    -0.375 N 
HETATM   21  C   UNL     1     -45.390 -46.948   8.873  1.00  0.00     0.090 A 
ATOM     22  HN  UNL     1     -46.093 -44.997   8.794  1.00  0.00     0.164 HD
HETATM   23  C   UNL     1     -44.327 -47.823   9.064  1.00  0.00     0.046 A 
ENDBRANCH   4  17
TORSDOF 5
ENDMDL
MODEL 7
REMARK VINA RESULT:      -5.5      1.959      2.942
REMARK  5 active torsions:
REMARK  status: ('A' for Active; 'I' for Inactive)
REMARK    1  A    between atoms: N_2  and  C_3 
REMARK    2  A    between atoms: N_2  and  C_16 
REMARK    3  A    between atoms: C_3  and  C_4 
REMARK    4  A    between atoms: C_4  and  N_5 
REMARK       I    between atoms: N_5  and  C_6 
REMARK       I    between atoms: C_6  and  N_8 
REMARK    5  A    between atoms: N_8  and  C_9 
ROOT
HETATM    1  N   UNL     1     -40.513 -50.657  11.280  1.00  0.00    -0.341 N 
HETATM    2  C   UNL     1     -41.367 -49.578  11.396  1.00  0.00     0.320 C 
HETATM    3  O   UNL     1     -41.945 -49.341  12.448  1.00  0.00    -0.247 OA
HETATM    4  N   UNL     1     -41.444 -48.830  10.245  1.00  0.00    -0.309 N 
HETATM    5  H   UNL     1     -40.499 -51.115  10.382  1.00  0.00     0.164 HD
HETATM    6  H   UNL     1     -40.854 -49.119   9.481  1.00  0.00     0.170 HD
ENDROOT
BRANCH   1   7
HETATM    7  C   UNL     1     -40.341 -51.510  12.454  1.00  0.00     0.154 C 
BRANCH   7   8
HETATM    8  C   UNL     1     -40.873 -52.939  12.234  1.00  0.00     0.292 C 
BRANCH   8   9
HETATM    9  N   UNL     1     -42.068 -53.315  13.037  1.00  0.00     0.090 N 
HETATM   10  C   UNL     1     -43.280 -52.729  12.428  1.00  0.00     0.310 C 
BRANCH   9  11
HETATM   11  C   UNL     1     -41.933 -52.861  14.458  1.00  0.00     0.222 C 
HETATM   12  C   UNL     1     -40.790 -53.549  15.248  1.00  0.00     0.036 C 
HETATM   13  C   UNL     1     -41.049 -55.027  15.549  1.00  0.00     0.002 C 
HETATM   14  C   UNL     1     -42.405 -55.270  16.207  1.00  0.00     0.000 C 
HETATM   15  C   UNL     1     -43.543 -54.554  15.489  1.00  0.00     0.002 C 
HETATM   16  C   UNL     1     -43.220 -53.073  15.295  1.00  0.00     0.036 C 
ENDBRANCH   9  11
ENDBRANCH   8   9
ENDBRANCH   7   8
ENDBRANCH   1   7
BRANCH   4  17
HETATM   17  C   UNL     1     -42.175 -47.627  10.093  1.00  0.00     0.038 A 
HETATM   18  C   UNL     1     -41.846 -46.439  10.743  1.00  0.00     0.046 A 
HETATM   19  C   UNL     1     -42.605 -45.307  10.505  1.00  0.00     0.090 A 
HETATM   20  N   UNL     1     -43.670 -45.280   9.679  1.00  0.00    -0.375 N 
HETATM   21  C   UNL     1     -43.981 -46.440   9.068  1.00  0.00     0.090 A 
ATOM     22  HN  UNL     1     -44.211 -44.428   9.525  1.00  0.00     0.164 HD
HETATM   23  C   UNL     1     -43.274 -47.625   9.236  1.00  0.00     0.046 A 
ENDBRANCH   4  17
TORSDOF 5
ENDMDL
MODEL 8
REMARK VINA RESULT:      -5.4      2.616      7.338
REMARK  5 active torsions:
REMARK  status: ('A' for Active; 'I' for Inactive)
REMARK    1  A    between atoms: N_2  and  C_3 
REMARK    2  A    between atoms: N_2  and  C_16 
REMARK    3  A    between atoms: C_3  and  C_4 
REMARK    4  A    between atoms: C_4  and  N_5 
REMARK       I    between atoms: N_5  and  C_6 
REMARK       I    between atoms: C_6  and  N_8 
REMARK    5  A    between atoms: N_8  and  C_9 
ROOT
HETATM    1  N   UNL     1     -43.466 -49.453  12.501  1.00  0.00    -0.341 N 
HETATM    2  C   UNL     1     -43.870 -50.497  13.309  1.00  0.00     0.320 C 
HETATM    3  O   UNL     1     -43.591 -50.519  14.499  1.00  0.00    -0.247 OA
HETATM    4  N   UNL     1     -44.620 -51.434  12.637  1.00  0.00    -0.309 N 
HETATM    5  H   UNL     1     -43.233 -49.694  11.550  1.00  0.00     0.164 HD
HETATM    6  H   UNL     1     -44.820 -51.240  11.669  1.00  0.00     0.170 HD
ENDROOT
BRANCH   1   7
HETATM    7  C   UNL     1     -42.679 -48.387  13.119  1.00  0.00     0.154 C 
BRANCH   7   8
HETATM    8  C   UNL     1     -41.506 -47.925  12.234  1.00  0.00     0.292 C 
BRANCH   8   9
HETATM    9  N   UNL     1     -40.147 -48.114  12.811  1.00  0.00     0.090 N 
HETATM   10  C   UNL     1     -39.498 -46.800  12.995  1.00  0.00     0.310 C 
BRANCH   9  11
HETATM   11  C   UNL     1     -39.303 -48.989  11.936  1.00  0.00     0.222 C 
HETATM   12  C   UNL     1     -39.928 -50.371  11.612  1.00  0.00     0.036 C 
HETATM   13  C   UNL     1     -39.995 -51.317  12.812  1.00  0.00     0.002 C 
HETATM   14  C   UNL     1     -38.652 -51.466  13.525  1.00  0.00     0.000 C 
HETATM   15  C   UNL     1     -37.982 -50.126  13.802  1.00  0.00     0.002 C 
HETATM   16  C   UNL     1     -37.903 -49.282  12.531  1.00  0.00     0.036 C 
ENDBRANCH   9  11
ENDBRANCH   8   9
ENDBRANCH   7   8
ENDBRANCH   1   7
BRANCH   4  17
HETATM   17  C   UNL     1     -45.235 -52.568  13.221  1.00  0.00     0.038 A 
HETATM   18  C   UNL     1     -44.740 -53.865  13.090  1.00  0.00     0.046 A 
HETATM   19  C   UNL     1     -45.397 -54.905  13.724  1.00  0.00     0.090 A 
HETATM   20  N   UNL     1     -46.511 -54.745  14.465  1.00  0.00    -0.375 N 
HETATM   21  C   UNL     1     -46.982 -53.486  14.572  1.00  0.00     0.090 A 
ATOM     22  HN  UNL     1     -46.973 -55.533  14.920  1.00  0.00     0.164 HD
HETATM   23  C   UNL     1     -46.389 -52.377  13.980  1.00  0.00     0.046 A 
ENDBRANCH   4  17
TORSDOF 5
ENDMDL
MODEL 9
REMARK VINA RESULT:      -5.3      3.507      4.381
REMARK  5 active torsions:
REMARK  status: ('A' for Active; 'I' for Inactive)
REMARK    1  A    between atoms: N_2  and  C_3 
REMARK    2  A    between atoms: N_2  and  C_16 
REMARK    3  A    between atoms: C_3  and  C_4 
REMARK    4  A    between atoms: C_4  and  N_5 
REMARK       I    between atoms: N_5  and  C_6 
REMARK       I    between atoms: C_6  and  N_8 
REMARK    5  A    between atoms: N_8  and  C_9 
ROOT
HETATM    1  N   UNL     1     -41.399 -53.357  15.322  1.00  0.00    -0.341 N 
HETATM    2  C   UNL     1     -40.657 -53.020  14.207  1.00  0.00     0.320 C 
HETATM    3  O   UNL     1     -40.415 -53.845  13.337  1.00  0.00    -0.247 OA
HETATM    4  N   UNL     1     -40.285 -51.697  14.192  1.00  0.00    -0.309 N 
HETATM    5  H   UNL     1     -41.137 -52.900  16.182  1.00  0.00     0.164 HD
HETATM    6  H   UNL     1     -40.619 -51.127  14.953  1.00  0.00     0.170 HD
ENDROOT
BRANCH   1   7
HETATM    7  C   UNL     1     -41.866 -54.738  15.429  1.00  0.00     0.154 C 
BRANCH   7   8
HETATM    8  C   UNL     1     -43.354 -54.893  15.060  1.00  0.00     0.292 C 
BRANCH   8   9
HETATM    9  N   UNL     1     -44.271 -53.866  15.626  1.00  0.00     0.090 N 
HETATM   10  C   UNL     1     -44.341 -54.019  17.094  1.00  0.00     0.310 C 
BRANCH   9  11
HETATM   11  C   UNL     1     -45.640 -53.973  15.029  1.00  0.00     0.222 C 
HETATM   12  C   UNL     1     -45.673 -53.934  13.480  1.00  0.00     0.036 C 
HETATM   13  C   UNL     1     -45.319 -52.569  12.888  1.00  0.00     0.002 C 
HETATM   14  C   UNL     1     -46.138 -51.430  13.491  1.00  0.00     0.000 C 
HETATM   15  C   UNL     1     -46.177 -51.477  15.014  1.00  0.00     0.002 C 
HETATM   16  C   UNL     1     -46.606 -52.859  15.506  1.00  0.00     0.036 C 
ENDBRANCH   9  11
ENDBRANCH   8   9
ENDBRANCH   7   8
ENDBRANCH   1   7
BRANCH   4  17
HETATM   17  C   UNL     1     -39.589 -51.050  13.142  1.00  0.00     0.038 A 
HETATM   18  C   UNL     1     -38.206 -51.113  12.981  1.00  0.00     0.046 A 
HETATM   19  C   UNL     1     -37.622 -50.470  11.904  1.00  0.00     0.090 A 
HETATM   20  N   UNL     1     -38.315 -49.764  10.989  1.00  0.00    -0.375 N 
HETATM   21  C   UNL     1     -39.650 -49.704  11.166  1.00  0.00     0.090 A 
ATOM     22  HN  UNL     1     -37.854 -49.300  10.205  1.00  0.00     0.164 HD
HETATM   23  C   UNL     1     -40.328 -50.322  12.209  1.00  0.00     0.046 A 
ENDBRANCH   4  17
TORSDOF 5
ENDMDL
