MODEL 1
REMARK VINA RESULT:      -6.5      0.000      0.000
REMARK  5 active torsions:
REMARK  status: ('A' for Active; 'I' for Inactive)
REMARK    1  A    between atoms: C_8  and  N_9 
REMARK       I    between atoms: N_9  and  C_10 
REMARK       I    between atoms: C_10  and  N_12 
REMARK    2  A    between atoms: N_12  and  C_13 
REMARK    3  A    between atoms: C_13  and  C_14 
REMARK    4  A    between atoms: C_14  and  N_15 
REMARK       I    between atoms: N_15  and  C_16 
REMARK    5  A    between atoms: C_16  and  C_18 
ROOT
HETATM    1  N   UNL     1     -43.488 -52.728  12.012  1.00  0.00    -0.306 N 
HETATM    2  C   UNL     1     -42.420 -51.995  12.474  1.00  0.00     0.320 C 
HETATM    3  O   UNL     1     -42.185 -51.742  13.651  1.00  0.00    -0.247 OA
HETATM    4  N   UNL     1     -41.611 -51.520  11.472  1.00  0.00    -0.341 N 
HETATM    5  H   UNL     1     -43.452 -53.073  11.062  1.00  0.00     0.171 HD
HETATM    6  H   UNL     1     -41.694 -51.882  10.534  1.00  0.00     0.164 HD
ENDROOT
BRANCH   1   7
HETATM    7  C   UNL     1     -44.544 -53.228  12.821  1.00  0.00     0.077 A 
HETATM    8  C   UNL     1     -45.574 -52.369  13.198  1.00  0.00     0.158 A 
HETATM    9  F   UNL     1     -45.575 -51.085  12.807  1.00  0.00    -0.202 F 
HETATM   10  C   UNL     1     -46.621 -52.865  13.961  1.00  0.00     0.132 A 
HETATM   11  N   UNL     1     -46.697 -54.146  14.389  1.00  0.00    -0.372 N 
HETATM   12  C   UNL     1     -45.676 -54.956  14.036  1.00  0.00     0.090 A 
ATOM     13  HN  UNL     1     -47.481 -54.482  14.948  1.00  0.00     0.164 HD
HETATM   14  C   UNL     1     -44.594 -54.547  13.270  1.00  0.00     0.050 A 
ENDBRANCH   1   7
BRANCH   4  15
HETATM   15  C   UNL     1     -40.464 -50.684  11.794  1.00  0.00     0.144 C 
BRANCH  15  16
HETATM   16  C   UNL     1     -40.731 -49.192  11.560  1.00  0.00     0.142 C 
BRANCH  16  17
HETATM   17  N   UNL     1     -41.786 -48.965  10.589  1.00  0.00    -0.359 N 
HETATM   18  C   UNL     1     -42.134 -47.701  10.185  1.00  0.00     0.221 C 
HETATM   19  O   UNL     1     -41.617 -46.676  10.613  1.00  0.00    -0.273 OA
HETATM   20  H   UNL     1     -42.182 -49.766  10.117  1.00  0.00     0.162 HD
BRANCH  18  21
HETATM   21  C   UNL     1     -43.178 -47.662   9.122  1.00  0.00     0.078 A 
HETATM   22  C   UNL     1     -43.758 -46.330   8.705  1.00  0.00     0.015 A 
HETATM   23  C   UNL     1     -44.612 -47.310   9.454  1.00  0.00     0.015 A 
ENDBRANCH  18  21
ENDBRANCH  16  17
ENDBRANCH  15  16
ENDBRANCH   4  15
TORSDOF 5
ENDMDL
MODEL 2
REMARK VINA RESULT:      -6.2      1.638      1.864
REMARK  5 active torsions:
REMARK  status: ('A' for Active; 'I' for Inactive)
REMARK    1  A    between atoms: C_8  and  N_9 
REMARK       I    between atoms: N_9  and  C_10 
REMARK       I    between atoms: C_10  and  N_12 
REMARK    2  A    between atoms: N_12  and  C_13 
REMARK    3  A    between atoms: C_13  and  C_14 
REMARK    4  A    between atoms: C_14  and  N_15 
REMARK       I    between atoms: N_15  and  C_16 
REMARK    5  A    between atoms: C_16  and  C_18 
ROOT
HETATM    1  N   UNL     1     -44.652 -51.419  12.581  1.00  0.00    -0.306 N 
HETATM    2  C   UNL     1     -43.763 -50.554  13.173  1.00  0.00     0.320 C 
HETATM    3  O   UNL     1     -43.319 -50.656  14.312  1.00  0.00    -0.247 OA
HETATM    4  N   UNL     1     -43.410 -49.499  12.368  1.00  0.00    -0.341 N 
HETATM    5  H   UNL     1     -44.761 -51.375  11.576  1.00  0.00     0.171 HD
HETATM    6  H   UNL     1     -43.621 -49.517  11.382  1.00  0.00     0.164 HD
ENDROOT
BRANCH   1   7
HETATM    7  C   UNL     1     -45.274 -52.518  13.231  1.00  0.00     0.077 A 
HETATM    8  C   UNL     1     -46.407 -52.293  14.010  1.00  0.00     0.158 A 
HETATM    9  F   UNL     1     -46.910 -51.056  14.149  1.00  0.00    -0.202 F 
HETATM   10  C   UNL     1     -47.034 -53.371  14.619  1.00  0.00     0.132 A 
HETATM   11  N   UNL     1     -46.595 -54.647  14.521  1.00  0.00    -0.372 N 
HETATM   12  C   UNL     1     -45.480 -54.841  13.784  1.00  0.00     0.090 A 
ATOM     13  HN  UNL     1     -47.078 -55.419  14.979  1.00  0.00     0.164 HD
HETATM   14  C   UNL     1     -44.794 -53.824  13.136  1.00  0.00     0.050 A 
ENDBRANCH   1   7
BRANCH   4  15
HETATM   15  C   UNL     1     -42.513 -48.467  12.867  1.00  0.00     0.144 C 
BRANCH  15  16
HETATM   16  C   UNL     1     -43.008 -47.049  12.559  1.00  0.00     0.142 C 
BRANCH  16  17
HETATM   17  N   UNL     1     -43.625 -46.951  11.249  1.00  0.00    -0.359 N 
HETATM   18  C   UNL     1     -42.932 -46.489  10.159  1.00  0.00     0.221 C 
HETATM   19  O   UNL     1     -41.769 -46.105  10.195  1.00  0.00    -0.273 OA
HETATM   20  H   UNL     1     -44.546 -47.347  11.123  1.00  0.00     0.162 HD
BRANCH  18  21
HETATM   21  C   UNL     1     -43.697 -46.535   8.881  1.00  0.00     0.078 A 
HETATM   22  C   UNL     1     -44.831 -47.524   8.734  1.00  0.00     0.015 A 
HETATM   23  C   UNL     1     -43.571 -47.717   7.942  1.00  0.00     0.015 A 
ENDBRANCH  18  21
ENDBRANCH  16  17
ENDBRANCH  15  16
ENDBRANCH   4  15
TORSDOF 5
ENDMDL
MODEL 3
REMARK VINA RESULT:      -6.1      2.279      6.625
REMARK  5 active torsions:
REMARK  status: ('A' for Active; 'I' for Inactive)
REMARK    1  A    between atoms: C_8  and  N_9 
REMARK       I    between atoms: N_9  and  C_10 
REMARK       I    between atoms: C_10  and  N_12 
REMARK    2  A    between atoms: N_12  and  C_13 
REMARK    3  A    between atoms: C_13  and  C_14 
REMARK    4  A    between atoms: C_14  and  N_15 
REMARK       I    between atoms: N_15  and  C_16 
REMARK    5  A    between atoms: C_16  and  C_18 
ROOT
HETATM    1  N   UNL     1     -41.017 -48.963  10.559  1.00  0.00    -0.306 N 
HETATM    2  C   UNL     1     -41.144 -49.829  11.619  1.00  0.00     0.320 C 
HETATM    3  O   UNL     1     -41.559 -49.534  12.736  1.00  0.00    -0.247 OA
HETATM    4  N   UNL     1     -40.727 -51.106  11.334  1.00  0.00    -0.341 N 
HETATM    5  H   UNL     1     -40.897 -49.358   9.635  1.00  0.00     0.171 HD
HETATM    6  H   UNL     1     -40.569 -51.389  10.379  1.00  0.00     0.164 HD
ENDROOT
BRANCH   1   7
HETATM    7  C   UNL     1     -41.256 -47.564  10.617  1.00  0.00     0.077 A 
HETATM    8  C   UNL     1     -42.502 -47.073  10.235  1.00  0.00     0.158 A 
HETATM    9  F   UNL     1     -43.469 -47.904   9.816  1.00  0.00    -0.202 F 
HETATM   10  C   UNL     1     -42.746 -45.710  10.322  1.00  0.00     0.132 A 
HETATM   11  N   UNL     1     -41.828 -44.808  10.740  1.00  0.00    -0.372 N 
HETATM   12  C   UNL     1     -40.618 -45.301  11.081  1.00  0.00     0.090 A 
ATOM     13  HN  UNL     1     -42.038 -43.811  10.795  1.00  0.00     0.164 HD
HETATM   14  C   UNL     1     -40.289 -46.648  11.031  1.00  0.00     0.050 A 
ENDBRANCH   1   7
BRANCH   4  15
HETATM   15  C   UNL     1     -40.752 -52.131  12.367  1.00  0.00     0.144 C 
BRANCH  15  16
HETATM   16  C   UNL     1     -42.047 -52.952  12.360  1.00  0.00     0.142 C 
BRANCH  16  17
HETATM   17  N   UNL     1     -43.232 -52.114  12.397  1.00  0.00    -0.359 N 
HETATM   18  C   UNL     1     -44.205 -52.282  13.349  1.00  0.00     0.221 C 
HETATM   19  O   UNL     1     -44.175 -53.146  14.218  1.00  0.00    -0.273 OA
HETATM   20  H   UNL     1     -43.273 -51.316  11.777  1.00  0.00     0.162 HD
BRANCH  18  21
HETATM   21  C   UNL     1     -45.307 -51.281  13.284  1.00  0.00     0.078 A 
HETATM   22  C   UNL     1     -46.532 -51.475  14.148  1.00  0.00     0.015 A 
HETATM   23  C   UNL     1     -46.641 -51.633  12.660  1.00  0.00     0.015 A 
ENDBRANCH  18  21
ENDBRANCH  16  17
ENDBRANCH  15  16
ENDBRANCH   4  15
TORSDOF 5
ENDMDL
MODEL 4
REMARK VINA RESULT:      -5.7      2.754      4.974
REMARK  5 active torsions:
REMARK  status: ('A' for Active; 'I' for Inactive)
REMARK    1  A    between atoms: C_8  and  N_9 
REMARK       I    between atoms: N_9  and  C_10 
REMARK       I    between atoms: C_10  and  N_12 
REMARK    2  A    between atoms: N_12  and  C_13 
REMARK    3  A    between atoms: C_13  and  C_14 
REMARK    4  A    between atoms: C_14  and  N_15 
REMARK       I    between atoms: N_15  and  C_16 
REMARK    5  A    between atoms: C_16  and  C_18 
ROOT
HETATM    1  N   UNL     1     -43.440 -52.692  12.104  1.00  0.00    -0.306 N 
HETATM    2  C   UNL     1     -42.510 -51.803  12.590  1.00  0.00     0.320 C 
HETATM    3  O   UNL     1     -42.435 -51.413  13.751  1.00  0.00    -0.247 OA
HETATM    4  N   UNL     1     -41.647 -51.337  11.629  1.00  0.00    -0.341 N 
HETATM    5  H   UNL     1     -43.263 -53.120  11.205  1.00  0.00     0.171 HD
HETATM    6  H   UNL     1     -41.587 -51.794  10.732  1.00  0.00     0.164 HD
ENDROOT
BRANCH   1   7
HETATM    7  C   UNL     1     -44.523 -53.228  12.851  1.00  0.00     0.077 A 
HETATM    8  C   UNL     1     -45.604 -52.406  13.162  1.00  0.00     0.158 A 
HETATM    9  F   UNL     1     -45.629 -51.124  12.765  1.00  0.00    -0.202 F 
HETATM   10  C   UNL     1     -46.676 -52.938  13.864  1.00  0.00     0.132 A 
HETATM   11  N   UNL     1     -46.730 -54.220  14.293  1.00  0.00    -0.372 N 
HETATM   12  C   UNL     1     -45.661 -54.992  14.004  1.00  0.00     0.090 A 
ATOM     13  HN  UNL     1     -47.534 -54.583  14.805  1.00  0.00     0.164 HD
HETATM   14  C   UNL     1     -44.551 -54.547  13.303  1.00  0.00     0.050 A 
ENDBRANCH   1   7
BRANCH   4  15
HETATM   15  C   UNL     1     -40.634 -50.350  11.974  1.00  0.00     0.144 C 
BRANCH  15  16
HETATM   16  C   UNL     1     -39.292 -50.984  12.361  1.00  0.00     0.142 C 
BRANCH  16  17
HETATM   17  N   UNL     1     -39.239 -51.351  13.765  1.00  0.00    -0.359 N 
HETATM   18  C   UNL     1     -39.181 -52.661  14.166  1.00  0.00     0.221 C 
HETATM   19  O   UNL     1     -39.192 -53.617  13.398  1.00  0.00    -0.273 OA
HETATM   20  H   UNL     1     -39.121 -50.615  14.447  1.00  0.00     0.162 HD
BRANCH  18  21
HETATM   21  C   UNL     1     -39.048 -52.847  15.638  1.00  0.00     0.078 A 
HETATM   22  C   UNL     1     -39.152 -54.239  16.219  1.00  0.00     0.015 A 
HETATM   23  C   UNL     1     -40.242 -53.242  16.483  1.00  0.00     0.015 A 
ENDBRANCH  18  21
ENDBRANCH  16  17
ENDBRANCH  15  16
ENDBRANCH   4  15
TORSDOF 5
ENDMDL
MODEL 5
REMARK VINA RESULT:      -5.6      2.907      4.886
REMARK  5 active torsions:
REMARK  status: ('A' for Active; 'I' for Inactive)
REMARK    1  A    between atoms: C_8  and  N_9 
REMARK       I    between atoms: N_9  and  C_10 
REMARK       I    between atoms: C_10  and  N_12 
REMARK    2  A    between atoms: N_12  and  C_13 
REMARK    3  A    between atoms: C_13  and  C_14 
REMARK    4  A    between atoms: C_14  and  N_15 
REMARK       I    between atoms: N_15  and  C_16 
REMARK    5  A    between atoms: C_16  and  C_18 
ROOT
HETATM    1  N   UNL     1     -42.416 -52.618  11.837  1.00  0.00    -0.306 N 
HETATM    2  C   UNL     1     -41.749 -51.460  12.157  1.00  0.00     0.320 C 
HETATM    3  O   UNL     1     -41.878 -50.827  13.200  1.00  0.00    -0.247 OA
HETATM    4  N   UNL     1     -40.906 -51.025  11.164  1.00  0.00    -0.341 N 
HETATM    5  H   UNL     1     -42.061 -53.175  11.071  1.00  0.00     0.171 HD
HETATM    6  H   UNL     1     -40.659 -51.635  10.401  1.00  0.00     0.164 HD
ENDROOT
BRANCH   1   7
HETATM    7  C   UNL     1     -43.436 -53.216  12.626  1.00  0.00     0.077 A 
HETATM    8  C   UNL     1     -43.085 -54.171  13.577  1.00  0.00     0.158 A 
HETATM    9  F   UNL     1     -41.803 -54.528  13.751  1.00  0.00    -0.202 F 
HETATM   10  C   UNL     1     -44.076 -54.731  14.369  1.00  0.00     0.132 A 
HETATM   11  N   UNL     1     -45.389 -54.420  14.261  1.00  0.00    -0.372 N 
HETATM   12  C   UNL     1     -45.711 -53.512  13.316  1.00  0.00     0.090 A 
ATOM     13  HN  UNL     1     -46.095 -54.848  14.860  1.00  0.00     0.164 HD
HETATM   14  C   UNL     1     -44.786 -52.897  12.485  1.00  0.00     0.050 A 
ENDBRANCH   1   7
BRANCH   4  15
HETATM   15  C   UNL     1     -40.163 -49.783  11.330  1.00  0.00     0.144 C 
BRANCH  15  16
HETATM   16  C   UNL     1     -38.727 -50.010  11.818  1.00  0.00     0.142 C 
BRANCH  16  17
HETATM   17  N   UNL     1     -38.647 -50.129  13.262  1.00  0.00    -0.359 N 
HETATM   18  C   UNL     1     -38.593 -51.351  13.883  1.00  0.00     0.221 C 
HETATM   19  O   UNL     1     -38.630 -52.424  13.293  1.00  0.00    -0.273 OA
HETATM   20  H   UNL     1     -38.506 -49.287  13.804  1.00  0.00     0.162 HD
BRANCH  18  21
HETATM   21  C   UNL     1     -38.430 -51.281  15.363  1.00  0.00     0.078 A 
HETATM   22  C   UNL     1     -38.758 -52.495  16.200  1.00  0.00     0.015 A 
HETATM   23  C   UNL     1     -39.636 -51.281  16.279  1.00  0.00     0.015 A 
ENDBRANCH  18  21
ENDBRANCH  16  17
ENDBRANCH  15  16
ENDBRANCH   4  15
TORSDOF 5
ENDMDL
MODEL 6
REMARK VINA RESULT:      -5.6      4.621      7.031
REMARK  5 active torsions:
REMARK  status: ('A' for Active; 'I' for Inactive)
REMARK    1  A    between atoms: C_8  and  N_9 
REMARK       I    between atoms: N_9  and  C_10 
REMARK       I    between atoms: C_10  and  N_12 
REMARK    2  A    between atoms: N_12  and  C_13 
REMARK    3  A    between atoms: C_13  and  C_14 
REMARK    4  A    between atoms: C_14  and  N_15 
REMARK       I    between atoms: N_15  and  C_16 
REMARK    5  A    between atoms: C_16  and  C_18 
ROOT
HETATM    1  N   UNL     1     -41.887 -48.342   9.562  1.00  0.00    -0.306 N 
HETATM    2  C   UNL     1     -41.498 -48.929  10.743  1.00  0.00     0.320 C 
HETATM    3  O   UNL     1     -42.012 -48.733  11.840  1.00  0.00    -0.247 OA
HETATM    4  N   UNL     1     -40.422 -49.770  10.605  1.00  0.00    -0.341 N 
HETATM    5  H   UNL     1     -41.558 -48.752   8.697  1.00  0.00     0.171 HD
HETATM    6  H   UNL     1     -40.126 -50.074   9.691  1.00  0.00     0.164 HD
ENDROOT
BRANCH   1   7
HETATM    7  C   UNL     1     -42.886 -47.340   9.441  1.00  0.00     0.077 A 
HETATM    8  C   UNL     1     -42.563 -46.020   9.745  1.00  0.00     0.158 A 
HETATM    9  F   UNL     1     -41.326 -45.691  10.148  1.00  0.00    -0.202 F 
HETATM   10  C   UNL     1     -43.530 -45.037   9.596  1.00  0.00     0.132 A 
HETATM   11  N   UNL     1     -44.796 -45.285   9.188  1.00  0.00    -0.372 N 
HETATM   12  C   UNL     1     -45.097 -46.574   8.924  1.00  0.00     0.090 A 
ATOM     13  HN  UNL     1     -45.485 -44.539   9.086  1.00  0.00     0.164 HD
HETATM   14  C   UNL     1     -44.193 -47.619   9.039  1.00  0.00     0.050 A 
ENDBRANCH   1   7
BRANCH   4  15
HETATM   15  C   UNL     1     -39.857 -50.431  11.774  1.00  0.00     0.144 C 
BRANCH  15  16
HETATM   16  C   UNL     1     -38.344 -50.220  11.904  1.00  0.00     0.142 C 
BRANCH  16  17
HETATM   17  N   UNL     1     -38.016 -49.039  12.681  1.00  0.00    -0.359 N 
HETATM   18  C   UNL     1     -37.632 -49.124  13.995  1.00  0.00     0.221 C 
HETATM   19  O   UNL     1     -37.555 -50.175  14.622  1.00  0.00    -0.273 OA
HETATM   20  H   UNL     1     -37.957 -48.151  12.202  1.00  0.00     0.162 HD
BRANCH  18  21
HETATM   21  C   UNL     1     -37.255 -47.821  14.611  1.00  0.00     0.078 A 
HETATM   22  C   UNL     1     -36.940 -47.766  16.088  1.00  0.00     0.015 A 
HETATM   23  C   UNL     1     -38.189 -47.115  15.571  1.00  0.00     0.015 A 
ENDBRANCH  18  21
ENDBRANCH  16  17
ENDBRANCH  15  16
ENDBRANCH   4  15
TORSDOF 5
ENDMDL
MODEL 7
REMARK VINA RESULT:      -5.6      3.450      6.778
REMARK  5 active torsions:
REMARK  status: ('A' for Active; 'I' for Inactive)
REMARK    1  A    between atoms: C_8  and  N_9 
REMARK       I    between atoms: N_9  and  C_10 
REMARK       I    between atoms: C_10  and  N_12 
REMARK    2  A    between atoms: N_12  and  C_13 
REMARK    3  A    between atoms: C_13  and  C_14 
REMARK    4  A    between atoms: C_14  and  N_15 
REMARK       I    between atoms: N_15  and  C_16 
REMARK    5  A    between atoms: C_16  and  C_18 
ROOT
HETATM    1  N   UNL     1     -41.025 -49.279  10.659  1.00  0.00    -0.306 N 
HETATM    2  C   UNL     1     -41.339 -50.140  11.684  1.00  0.00     0.320 C 
HETATM    3  O   UNL     1     -41.842 -49.820  12.756  1.00  0.00    -0.247 OA
HETATM    4  N   UNL     1     -41.006 -51.446  11.419  1.00  0.00    -0.341 N 
HETATM    5  H   UNL     1     -40.843 -49.674   9.745  1.00  0.00     0.171 HD
HETATM    6  H   UNL     1     -40.773 -51.733  10.481  1.00  0.00     0.164 HD
ENDROOT
BRANCH   1   7
HETATM    7  C   UNL     1     -41.146 -47.865  10.718  1.00  0.00     0.077 A 
HETATM    8  C   UNL     1     -42.287 -47.260  10.194  1.00  0.00     0.158 A 
HETATM    9  F   UNL     1     -43.262 -47.997   9.639  1.00  0.00    -0.202 F 
HETATM   10  C   UNL     1     -42.420 -45.882  10.280  1.00  0.00     0.132 A 
HETATM   11  N   UNL     1     -41.487 -45.070  10.829  1.00  0.00    -0.372 N 
HETATM   12  C   UNL     1     -40.377 -45.673  11.307  1.00  0.00     0.090 A 
ATOM     13  HN  UNL     1     -41.615 -44.059  10.880  1.00  0.00     0.164 HD
HETATM   14  C   UNL     1     -40.164 -47.043  11.269  1.00  0.00     0.050 A 
ENDBRANCH   1   7
BRANCH   4  15
HETATM   15  C   UNL     1     -41.229 -52.474  12.426  1.00  0.00     0.144 C 
BRANCH  15  16
HETATM   16  C   UNL     1     -39.954 -52.837  13.198  1.00  0.00     0.142 C 
BRANCH  16  17
HETATM   17  N   UNL     1     -39.372 -51.690  13.872  1.00  0.00    -0.359 N 
HETATM   18  C   UNL     1     -38.147 -51.188  13.513  1.00  0.00     0.221 C 
HETATM   19  O   UNL     1     -37.441 -51.662  12.630  1.00  0.00    -0.273 OA
HETATM   20  H   UNL     1     -39.942 -51.186  14.537  1.00  0.00     0.162 HD
BRANCH  18  21
HETATM   21  C   UNL     1     -37.745 -49.961  14.256  1.00  0.00     0.078 A 
HETATM   22  C   UNL     1     -38.805 -48.962  14.660  1.00  0.00     0.015 A 
HETATM   23  C   UNL     1     -37.809 -48.598  13.599  1.00  0.00     0.015 A 
ENDBRANCH  18  21
ENDBRANCH  16  17
ENDBRANCH  15  16
ENDBRANCH   4  15
TORSDOF 5
ENDMDL
MODEL 8
REMARK VINA RESULT:      -5.5      1.803      2.042
REMARK  5 active torsions:
REMARK  status: ('A' for Active; 'I' for Inactive)
REMARK    1  A    between atoms: C_8  and  N_9 
REMARK       I    between atoms: N_9  and  C_10 
REMARK       I    between atoms: C_10  and  N_12 
REMARK    2  A    between atoms: N_12  and  C_13 
REMARK    3  A    between atoms: C_13  and  C_14 
REMARK    4  A    between atoms: C_14  and  N_15 
REMARK       I    between atoms: N_15  and  C_16 
REMARK    5  A    between atoms: C_16  and  C_18 
ROOT
HETATM    1  N   UNL     1     -43.302 -52.667  11.965  1.00  0.00    -0.306 N 
HETATM    2  C   UNL     1     -42.113 -52.214  12.484  1.00  0.00     0.320 C 
HETATM    3  O   UNL     1     -41.778 -52.279  13.663  1.00  0.00    -0.247 OA
HETATM    4  N   UNL     1     -41.297 -51.627  11.547  1.00  0.00    -0.341 N 
HETATM    5  H   UNL     1     -43.370 -52.780  10.962  1.00  0.00     0.171 HD
HETATM    6  H   UNL     1     -41.485 -51.743  10.563  1.00  0.00     0.164 HD
ENDROOT
BRANCH   1   7
HETATM    7  C   UNL     1     -44.375 -53.198  12.729  1.00  0.00     0.077 A 
HETATM    8  C   UNL     1     -45.419 -52.358  13.107  1.00  0.00     0.158 A 
HETATM    9  F   UNL     1     -45.419 -51.062  12.757  1.00  0.00    -0.202 F 
HETATM   10  C   UNL     1     -46.482 -52.883  13.827  1.00  0.00     0.132 A 
HETATM   11  N   UNL     1     -46.561 -54.178  14.212  1.00  0.00    -0.372 N 
HETATM   12  C   UNL     1     -45.527 -54.970  13.859  1.00  0.00     0.090 A 
ATOM     13  HN  UNL     1     -47.358 -54.536  14.739  1.00  0.00     0.164 HD
HETATM   14  C   UNL     1     -44.428 -54.532  13.135  1.00  0.00     0.050 A 
ENDBRANCH   1   7
BRANCH   4  15
HETATM   15  C   UNL     1     -40.021 -51.051  11.948  1.00  0.00     0.144 C 
BRANCH  15  16
HETATM   16  C   UNL     1     -40.169 -49.662  12.581  1.00  0.00     0.142 C 
BRANCH  16  17
HETATM   17  N   UNL     1     -40.093 -48.597  11.598  1.00  0.00    -0.359 N 
HETATM   18  C   UNL     1     -40.069 -47.276  11.967  1.00  0.00     0.221 C 
HETATM   19  O   UNL     1     -40.131 -46.885  13.127  1.00  0.00    -0.273 OA
HETATM   20  H   UNL     1     -39.934 -48.847  10.632  1.00  0.00     0.162 HD
BRANCH  18  21
HETATM   21  C   UNL     1     -39.907 -46.324  10.833  1.00  0.00     0.078 A 
HETATM   22  C   UNL     1     -39.846 -44.840  11.116  1.00  0.00     0.015 A 
HETATM   23  C   UNL     1     -41.042 -45.413  10.414  1.00  0.00     0.015 A 
ENDBRANCH  18  21
ENDBRANCH  16  17
ENDBRANCH  15  16
ENDBRANCH   4  15
TORSDOF 5
ENDMDL
MODEL 9
REMARK VINA RESULT:      -5.4      3.484      6.551
REMARK  5 active torsions:
REMARK  status: ('A' for Active; 'I' for Inactive)
REMARK    1  A    between atoms: C_8  and  N_9 
REMARK       I    between atoms: N_9  and  C_10 
REMARK       I    between atoms: C_10  and  N_12 
REMARK    2  A    between atoms: N_12  and  C_13 
REMARK    3  A    between atoms: C_13  and  C_14 
REMARK    4  A    between atoms: C_14  and  N_15 
REMARK       I    between atoms: N_15  and  C_16 
REMARK    5  A    between atoms: C_16  and  C_18 
ROOT
HETATM    1  N   UNL     1     -40.239 -51.808  13.966  1.00  0.00    -0.306 N 
HETATM    2  C   UNL     1     -40.655 -53.115  13.871  1.00  0.00     0.320 C 
HETATM    3  O   UNL     1     -40.438 -53.866  12.925  1.00  0.00    -0.247 OA
HETATM    4  N   UNL     1     -41.392 -53.532  14.952  1.00  0.00    -0.341 N 
HETATM    5  H   UNL     1     -40.264 -51.366  14.875  1.00  0.00     0.171 HD
HETATM    6  H   UNL     1     -41.408 -52.987  15.800  1.00  0.00     0.164 HD
ENDROOT
BRANCH   1   7
HETATM    7  C   UNL     1     -39.572 -51.090  12.938  1.00  0.00     0.077 A 
HETATM    8  C   UNL     1     -40.328 -50.439  11.965  1.00  0.00     0.158 A 
HETATM    9  F   UNL     1     -41.669 -50.486  11.993  1.00  0.00    -0.202 F 
HETATM   10  C   UNL     1     -39.677 -49.710  10.980  1.00  0.00     0.132 A 
HETATM   11  N   UNL     1     -38.331 -49.608  10.888  1.00  0.00    -0.372 N 
HETATM   12  C   UNL     1     -37.616 -50.267  11.824  1.00  0.00     0.090 A 
ATOM     13  HN  UNL     1     -37.882 -49.062  10.152  1.00  0.00     0.164 HD
HETATM   14  C   UNL     1     -38.182 -51.013  12.847  1.00  0.00     0.050 A 
ENDBRANCH   1   7
BRANCH   4  15
HETATM   15  C   UNL     1     -41.949 -54.877  14.982  1.00  0.00     0.144 C 
BRANCH  15  16
HETATM   16  C   UNL     1     -43.479 -54.890  14.875  1.00  0.00     0.142 C 
BRANCH  16  17
HETATM   17  N   UNL     1     -44.019 -53.590  14.523  1.00  0.00    -0.359 N 
HETATM   18  C   UNL     1     -44.582 -53.352  13.296  1.00  0.00     0.221 C 
HETATM   19  O   UNL     1     -44.657 -54.185  12.400  1.00  0.00    -0.273 OA
HETATM   20  H   UNL     1     -44.086 -52.887  15.247  1.00  0.00     0.162 HD
BRANCH  18  21
HETATM   21  C   UNL     1     -45.159 -51.986  13.139  1.00  0.00     0.078 A 
HETATM   22  C   UNL     1     -45.347 -51.120  14.363  1.00  0.00     0.015 A 
HETATM   23  C   UNL     1     -46.548 -51.666  13.649  1.00  0.00     0.015 A 
ENDBRANCH  18  21
ENDBRANCH  16  17
ENDBRANCH  15  16
ENDBRANCH   4  15
TORSDOF 5
ENDMDL
