MODEL 1
REMARK VINA RESULT:      -6.4      0.000      0.000
REMARK  7 active torsions:
REMARK  status: ('A' for Active; 'I' for Inactive)
REMARK    1  A    between atoms: O_2  and  C_3 
REMARK    2  A    between atoms: C_3  and  C_4 
REMARK    3  A    between atoms: C_4  and  N_5 
REMARK    4  A    between atoms: C_7  and  N_8 
REMARK       I    between atoms: N_8  and  C_9 
REMARK    5  A    between atoms: C_9  and  C_11 
REMARK    6  A    between atoms: C_11  and  C_12 
REMARK    7  A    between atoms: C_12  and  C_13 
ROOT
HETATM    1  N   UNL     1     -41.842 -49.970  11.437  1.00  0.00    -0.326 N 
HETATM    2  C   UNL     1     -42.498 -50.462  12.556  1.00  0.00     0.222 C 
HETATM    3  O   UNL     1     -43.126 -49.789  13.372  1.00  0.00    -0.273 OA
HETATM    4  H   UNL     1     -41.417 -50.640  10.816  1.00  0.00     0.169 HD
ENDROOT
BRANCH   1   5
HETATM    5  C   UNL     1     -41.653 -48.658  11.069  1.00  0.00     0.050 A 
HETATM    6  C   UNL     1     -42.516 -47.940  10.335  1.00  0.00     0.123 A 
HETATM    7  N   UNL     1     -42.285 -46.615  10.009  1.00  0.00    -0.320 N 
HETATM    8  C   UNL     1     -41.156 -45.931  10.437  1.00  0.00     0.247 A 
HETATM    9  C   UNL     1     -40.184 -46.730  11.238  1.00  0.00     0.077 A 
HETATM   10  O   UNL     1     -40.916 -44.750  10.208  1.00  0.00    -0.268 OA
HETATM   11  C   UNL     1     -40.434 -48.016  11.524  1.00  0.00     0.036 A 
BRANCH   7  12
HETATM   12  C   UNL     1     -43.273 -45.930   9.172  1.00  0.00     0.158 C 
BRANCH  12  13
HETATM   13  C   UNL     1     -44.413 -46.841   8.704  1.00  0.00     0.187 C 
BRANCH  13  14
HETATM   14  O   UNL     1     -45.676 -46.214   8.948  1.00  0.00    -0.394 OA
HETATM   15  C   UNL     1     -46.710 -47.180   9.081  1.00  0.00     0.201 C 
ENDBRANCH  13  14
ENDBRANCH  12  13
ENDBRANCH   7  12
ENDBRANCH   1   5
BRANCH   2  16
HETATM   16  C   UNL     1     -42.438 -51.976  12.719  1.00  0.00     0.105 C 
BRANCH  16  17
HETATM   17  C   UNL     1     -43.604 -52.523  13.536  1.00  0.00     0.041 C 
BRANCH  17  18
HETATM   18  C   UNL     1     -44.868 -52.831  12.727  1.00  0.00     0.121 C 
HETATM   19  C   UNL     1     -45.924 -51.741  12.958  1.00  0.00     0.032 C 
HETATM   20  C   UNL     1     -46.522 -51.823  14.361  1.00  0.00     0.004 C 
HETATM   21  C   UNL     1     -47.013 -53.236  14.642  1.00  0.00     0.026 C 
HETATM   22  C   UNL     1     -45.941 -54.274  14.339  1.00  0.00     0.168 C 
HETATM   23  O   UNL     1     -45.403 -54.123  13.027  1.00  0.00    -0.386 OA
ENDBRANCH  17  18
ENDBRANCH  16  17
ENDBRANCH   2  16
TORSDOF 7
ENDMDL
MODEL 2
REMARK VINA RESULT:      -5.7      2.204      3.836
REMARK  7 active torsions:
REMARK  status: ('A' for Active; 'I' for Inactive)
REMARK    1  A    between atoms: O_2  and  C_3 
REMARK    2  A    between atoms: C_3  and  C_4 
REMARK    3  A    between atoms: C_4  and  N_5 
REMARK    4  A    between atoms: C_7  and  N_8 
REMARK       I    between atoms: N_8  and  C_9 
REMARK    5  A    between atoms: C_9  and  C_11 
REMARK    6  A    between atoms: C_11  and  C_12 
REMARK    7  A    between atoms: C_12  and  C_13 
ROOT
HETATM    1  N   UNL     1     -41.895 -49.902  11.535  1.00  0.00    -0.326 N 
HETATM    2  C   UNL     1     -42.654 -50.375  12.595  1.00  0.00     0.222 C 
HETATM    3  O   UNL     1     -43.412 -49.701  13.292  1.00  0.00    -0.273 OA
HETATM    4  H   UNL     1     -41.362 -50.575  11.008  1.00  0.00     0.169 HD
ENDROOT
BRANCH   1   5
HETATM    5  C   UNL     1     -41.734 -48.601  11.117  1.00  0.00     0.050 A 
HETATM    6  C   UNL     1     -42.594 -47.942  10.327  1.00  0.00     0.123 A 
HETATM    7  N   UNL     1     -42.392 -46.625   9.952  1.00  0.00    -0.320 N 
HETATM    8  C   UNL     1     -41.299 -45.888  10.387  1.00  0.00     0.247 A 
HETATM    9  C   UNL     1     -40.331 -46.622  11.251  1.00  0.00     0.077 A 
HETATM   10  O   UNL     1     -41.087 -44.710  10.116  1.00  0.00    -0.268 OA
HETATM   11  C   UNL     1     -40.550 -47.902  11.584  1.00  0.00     0.036 A 
BRANCH   7  12
HETATM   12  C   UNL     1     -43.372 -46.007   9.056  1.00  0.00     0.158 C 
BRANCH  12  13
HETATM   13  C   UNL     1     -44.516 -46.947   8.661  1.00  0.00     0.187 C 
BRANCH  13  14
HETATM   14  O   UNL     1     -45.776 -46.299   8.859  1.00  0.00    -0.394 OA
HETATM   15  C   UNL     1     -46.786 -47.237   9.206  1.00  0.00     0.201 C 
ENDBRANCH  13  14
ENDBRANCH  12  13
ENDBRANCH   7  12
ENDBRANCH   1   5
BRANCH   2  16
HETATM   16  C   UNL     1     -42.534 -51.874  12.850  1.00  0.00     0.105 C 
BRANCH  16  17
HETATM   17  C   UNL     1     -41.528 -52.201  13.949  1.00  0.00     0.041 C 
BRANCH  17  18
HETATM   18  C   UNL     1     -40.187 -52.750  13.451  1.00  0.00     0.121 C 
HETATM   19  C   UNL     1     -39.339 -53.233  14.636  1.00  0.00     0.032 C 
HETATM   20  C   UNL     1     -38.816 -52.064  15.470  1.00  0.00     0.004 C 
HETATM   21  C   UNL     1     -38.116 -51.051  14.574  1.00  0.00     0.026 C 
HETATM   22  C   UNL     1     -38.985 -50.656  13.388  1.00  0.00     0.168 C 
HETATM   23  O   UNL     1     -39.465 -51.792  12.672  1.00  0.00    -0.386 OA
ENDBRANCH  17  18
ENDBRANCH  16  17
ENDBRANCH   2  16
TORSDOF 7
ENDMDL
MODEL 3
REMARK VINA RESULT:      -5.7      1.580      1.966
REMARK  7 active torsions:
REMARK  status: ('A' for Active; 'I' for Inactive)
REMARK    1  A    between atoms: O_2  and  C_3 
REMARK    2  A    between atoms: C_3  and  C_4 
REMARK    3  A    between atoms: C_4  and  N_5 
REMARK    4  A    between atoms: C_7  and  N_8 
REMARK       I    between atoms: N_8  and  C_9 
REMARK    5  A    between atoms: C_9  and  C_11 
REMARK    6  A    between atoms: C_11  and  C_12 
REMARK    7  A    between atoms: C_12  and  C_13 
ROOT
HETATM    1  N   UNL     1     -40.958 -50.096  11.424  1.00  0.00    -0.326 N 
HETATM    2  C   UNL     1     -40.707 -50.642  12.674  1.00  0.00     0.222 C 
HETATM    3  O   UNL     1     -40.645 -50.015  13.731  1.00  0.00    -0.273 OA
HETATM    4  H   UNL     1     -41.044 -50.733  10.648  1.00  0.00     0.169 HD
ENDROOT
BRANCH   1   5
HETATM    5  C   UNL     1     -41.071 -48.769  11.082  1.00  0.00     0.050 A 
HETATM    6  C   UNL     1     -42.104 -48.238  10.412  1.00  0.00     0.123 A 
HETATM    7  N   UNL     1     -42.175 -46.890  10.110  1.00  0.00    -0.320 N 
HETATM    8  C   UNL     1     -41.193 -45.988  10.499  1.00  0.00     0.247 A 
HETATM    9  C   UNL     1     -40.033 -46.576  11.228  1.00  0.00     0.077 A 
HETATM   10  O   UNL     1     -41.221 -44.780  10.290  1.00  0.00    -0.268 OA
HETATM   11  C   UNL     1     -39.990 -47.890  11.491  1.00  0.00     0.036 A 
BRANCH   7  12
HETATM   12  C   UNL     1     -43.330 -46.416   9.343  1.00  0.00     0.158 C 
BRANCH  12  13
HETATM   13  C   UNL     1     -43.686 -47.318   8.156  1.00  0.00     0.187 C 
BRANCH  13  14
HETATM   14  O   UNL     1     -44.951 -47.948   8.379  1.00  0.00    -0.394 OA
HETATM   15  C   UNL     1     -45.822 -47.102   9.119  1.00  0.00     0.201 C 
ENDBRANCH  13  14
ENDBRANCH  12  13
ENDBRANCH   7  12
ENDBRANCH   1   5
BRANCH   2  16
HETATM   16  C   UNL     1     -40.543 -52.157  12.690  1.00  0.00     0.105 C 
BRANCH  16  17
HETATM   17  C   UNL     1     -41.872 -52.892  12.551  1.00  0.00     0.041 C 
BRANCH  17  18
HETATM   18  C   UNL     1     -42.924 -52.522  13.601  1.00  0.00     0.121 C 
HETATM   19  C   UNL     1     -42.658 -53.280  14.909  1.00  0.00     0.032 C 
HETATM   20  C   UNL     1     -42.979 -54.768  14.775  1.00  0.00     0.004 C 
HETATM   21  C   UNL     1     -44.384 -54.955  14.221  1.00  0.00     0.026 C 
HETATM   22  C   UNL     1     -44.603 -54.134  12.957  1.00  0.00     0.168 C 
HETATM   23  O   UNL     1     -44.257 -52.762  13.141  1.00  0.00    -0.386 OA
ENDBRANCH  17  18
ENDBRANCH  16  17
ENDBRANCH   2  16
TORSDOF 7
ENDMDL
MODEL 4
REMARK VINA RESULT:      -5.6      4.417      6.272
REMARK  7 active torsions:
REMARK  status: ('A' for Active; 'I' for Inactive)
REMARK    1  A    between atoms: O_2  and  C_3 
REMARK    2  A    between atoms: C_3  and  C_4 
REMARK    3  A    between atoms: C_4  and  N_5 
REMARK    4  A    between atoms: C_7  and  N_8 
REMARK       I    between atoms: N_8  and  C_9 
REMARK    5  A    between atoms: C_9  and  C_11 
REMARK    6  A    between atoms: C_11  and  C_12 
REMARK    7  A    between atoms: C_12  and  C_13 
ROOT
HETATM    1  N   UNL     1     -44.300 -52.171  13.792  1.00  0.00    -0.326 N 
HETATM    2  C   UNL     1     -45.371 -52.545  12.994  1.00  0.00     0.222 C 
HETATM    3  O   UNL     1     -45.332 -53.371  12.083  1.00  0.00    -0.273 OA
HETATM    4  H   UNL     1     -44.484 -51.526  14.544  1.00  0.00     0.169 HD
ENDROOT
BRANCH   1   5
HETATM    5  C   UNL     1     -42.979 -52.537  13.671  1.00  0.00     0.050 A 
HETATM    6  C   UNL     1     -42.012 -51.754  13.170  1.00  0.00     0.123 A 
HETATM    7  N   UNL     1     -40.694 -52.167  13.090  1.00  0.00    -0.320 N 
HETATM    8  C   UNL     1     -40.276 -53.411  13.543  1.00  0.00     0.247 A 
HETATM    9  C   UNL     1     -41.350 -54.293  14.084  1.00  0.00     0.077 A 
HETATM   10  O   UNL     1     -39.119 -53.816  13.529  1.00  0.00    -0.268 OA
HETATM   11  C   UNL     1     -42.620 -53.865  14.135  1.00  0.00     0.036 A 
BRANCH   7  12
HETATM   12  C   UNL     1     -39.721 -51.250  12.492  1.00  0.00     0.158 C 
BRANCH  12  13
HETATM   13  C   UNL     1     -39.141 -50.241  13.489  1.00  0.00     0.187 C 
BRANCH  13  14
HETATM   14  O   UNL     1     -37.792 -49.919  13.135  1.00  0.00    -0.394 OA
HETATM   15  C   UNL     1     -37.122 -51.048  12.592  1.00  0.00     0.201 C 
ENDBRANCH  13  14
ENDBRANCH  12  13
ENDBRANCH   7  12
ENDBRANCH   1   5
BRANCH   2  16
HETATM   16  C   UNL     1     -46.695 -51.875  13.344  1.00  0.00     0.105 C 
BRANCH  16  17
HETATM   17  C   UNL     1     -46.677 -51.231  14.726  1.00  0.00     0.041 C 
BRANCH  17  18
HETATM   18  C   UNL     1     -47.204 -52.119  15.856  1.00  0.00     0.121 C 
HETATM   19  C   UNL     1     -47.918 -51.266  16.914  1.00  0.00     0.032 C 
HETATM   20  C   UNL     1     -46.931 -50.425  17.721  1.00  0.00     0.004 C 
HETATM   21  C   UNL     1     -45.822 -51.307  18.278  1.00  0.00     0.026 C 
HETATM   22  C   UNL     1     -45.193 -52.170  17.192  1.00  0.00     0.168 C 
HETATM   23  O   UNL     1     -46.170 -52.904  16.457  1.00  0.00    -0.386 OA
ENDBRANCH  17  18
ENDBRANCH  16  17
ENDBRANCH   2  16
TORSDOF 7
ENDMDL
MODEL 5
REMARK VINA RESULT:      -5.6      1.806      2.367
REMARK  7 active torsions:
REMARK  status: ('A' for Active; 'I' for Inactive)
REMARK    1  A    between atoms: O_2  and  C_3 
REMARK    2  A    between atoms: C_3  and  C_4 
REMARK    3  A    between atoms: C_4  and  N_5 
REMARK    4  A    between atoms: C_7  and  N_8 
REMARK       I    between atoms: N_8  and  C_9 
REMARK    5  A    between atoms: C_9  and  C_11 
REMARK    6  A    between atoms: C_11  and  C_12 
REMARK    7  A    between atoms: C_12  and  C_13 
ROOT
HETATM    1  N   UNL     1     -41.914 -51.637  13.230  1.00  0.00    -0.326 N 
HETATM    2  C   UNL     1     -41.545 -52.914  12.833  1.00  0.00     0.222 C 
HETATM    3  O   UNL     1     -40.593 -53.191  12.105  1.00  0.00    -0.273 OA
HETATM    4  H   UNL     1     -42.679 -51.555  13.879  1.00  0.00     0.169 HD
ENDROOT
BRANCH   1   5
HETATM    5  C   UNL     1     -41.390 -50.433  12.818  1.00  0.00     0.050 A 
HETATM    6  C   UNL     1     -41.897 -49.677  11.833  1.00  0.00     0.123 A 
HETATM    7  N   UNL     1     -41.340 -48.463  11.472  1.00  0.00    -0.320 N 
HETATM    8  C   UNL     1     -40.233 -47.931  12.120  1.00  0.00     0.247 A 
HETATM    9  C   UNL     1     -39.655 -48.776  13.204  1.00  0.00     0.077 A 
HETATM   10  O   UNL     1     -39.720 -46.847  11.867  1.00  0.00    -0.268 OA
HETATM   11  C   UNL     1     -40.212 -49.955  13.519  1.00  0.00     0.036 A 
BRANCH   7  12
HETATM   12  C   UNL     1     -41.947 -47.732  10.358  1.00  0.00     0.158 C 
BRANCH  12  13
HETATM   13  C   UNL     1     -43.464 -47.561  10.494  1.00  0.00     0.187 C 
BRANCH  13  14
HETATM   14  O   UNL     1     -44.087 -47.657   9.209  1.00  0.00    -0.394 OA
HETATM   15  C   UNL     1     -45.481 -47.391   9.294  1.00  0.00     0.201 C 
ENDBRANCH  13  14
ENDBRANCH  12  13
ENDBRANCH   7  12
ENDBRANCH   1   5
BRANCH   2  16
HETATM   16  C   UNL     1     -42.401 -54.036  13.409  1.00  0.00     0.105 C 
BRANCH  16  17
HETATM   17  C   UNL     1     -43.561 -53.514  14.250  1.00  0.00     0.041 C 
BRANCH  17  18
HETATM   18  C   UNL     1     -44.953 -53.839  13.698  1.00  0.00     0.121 C 
HETATM   19  C   UNL     1     -45.326 -52.851  12.584  1.00  0.00     0.032 C 
HETATM   20  C   UNL     1     -45.617 -51.457  13.140  1.00  0.00     0.004 C 
HETATM   21  C   UNL     1     -46.639 -51.543  14.265  1.00  0.00     0.026 C 
HETATM   22  C   UNL     1     -46.241 -52.580  15.307  1.00  0.00     0.168 C 
HETATM   23  O   UNL     1     -45.953 -53.848  14.720  1.00  0.00    -0.386 OA
ENDBRANCH  17  18
ENDBRANCH  16  17
ENDBRANCH   2  16
TORSDOF 7
ENDMDL
MODEL 6
REMARK VINA RESULT:      -5.5      1.566      3.528
REMARK  7 active torsions:
REMARK  status: ('A' for Active; 'I' for Inactive)
REMARK    1  A    between atoms: O_2  and  C_3 
REMARK    2  A    between atoms: C_3  and  C_4 
REMARK    3  A    between atoms: C_4  and  N_5 
REMARK    4  A    between atoms: C_7  and  N_8 
REMARK       I    between atoms: N_8  and  C_9 
REMARK    5  A    between atoms: C_9  and  C_11 
REMARK    6  A    between atoms: C_11  and  C_12 
REMARK    7  A    between atoms: C_12  and  C_13 
ROOT
HETATM    1  N   UNL     1     -42.023 -49.769  11.417  1.00  0.00    -0.326 N 
HETATM    2  C   UNL     1     -42.524 -50.369  12.563  1.00  0.00     0.222 C 
HETATM    3  O   UNL     1     -42.988 -49.778  13.537  1.00  0.00    -0.273 OA
HETATM    4  H   UNL     1     -41.729 -50.373  10.667  1.00  0.00     0.169 HD
ENDROOT
BRANCH   1   5
HETATM    5  C   UNL     1     -41.831 -48.429  11.172  1.00  0.00     0.050 A 
HETATM    6  C   UNL     1     -40.875 -47.678  11.737  1.00  0.00     0.123 A 
HETATM    7  N   UNL     1     -40.715 -46.337  11.439  1.00  0.00    -0.320 N 
HETATM    8  C   UNL     1     -41.518 -45.679  10.517  1.00  0.00     0.247 A 
HETATM    9  C   UNL     1     -42.595 -46.505   9.898  1.00  0.00     0.077 A 
HETATM   10  O   UNL     1     -41.400 -44.504  10.189  1.00  0.00    -0.268 OA
HETATM   11  C   UNL     1     -42.730 -47.799  10.221  1.00  0.00     0.036 A 
BRANCH   7  12
HETATM   12  C   UNL     1     -39.662 -45.597  12.139  1.00  0.00     0.158 C 
BRANCH  12  13
HETATM   13  C   UNL     1     -39.671 -45.811  13.657  1.00  0.00     0.187 C 
BRANCH  13  14
HETATM   14  O   UNL     1     -38.372 -46.211  14.105  1.00  0.00    -0.394 OA
HETATM   15  C   UNL     1     -38.356 -47.584  14.471  1.00  0.00     0.201 C 
ENDBRANCH  13  14
ENDBRANCH  12  13
ENDBRANCH   7  12
ENDBRANCH   1   5
BRANCH   2  16
HETATM   16  C   UNL     1     -42.511 -51.893  12.546  1.00  0.00     0.105 C 
BRANCH  16  17
HETATM   17  C   UNL     1     -43.615 -52.497  13.406  1.00  0.00     0.041 C 
BRANCH  17  18
HETATM   18  C   UNL     1     -44.914 -52.813  12.658  1.00  0.00     0.121 C 
HETATM   19  C   UNL     1     -45.942 -51.696  12.885  1.00  0.00     0.032 C 
HETATM   20  C   UNL     1     -46.487 -51.711  14.313  1.00  0.00     0.004 C 
HETATM   21  C   UNL     1     -46.991 -53.104  14.667  1.00  0.00     0.026 C 
HETATM   22  C   UNL     1     -45.949 -54.172  14.366  1.00  0.00     0.168 C 
HETATM   23  O   UNL     1     -45.459 -54.082  13.029  1.00  0.00    -0.386 OA
ENDBRANCH  17  18
ENDBRANCH  16  17
ENDBRANCH   2  16
TORSDOF 7
ENDMDL
MODEL 7
REMARK VINA RESULT:      -5.5      1.810      2.877
REMARK  7 active torsions:
REMARK  status: ('A' for Active; 'I' for Inactive)
REMARK    1  A    between atoms: O_2  and  C_3 
REMARK    2  A    between atoms: C_3  and  C_4 
REMARK    3  A    between atoms: C_4  and  N_5 
REMARK    4  A    between atoms: C_7  and  N_8 
REMARK       I    between atoms: N_8  and  C_9 
REMARK    5  A    between atoms: C_9  and  C_11 
REMARK    6  A    between atoms: C_11  and  C_12 
REMARK    7  A    between atoms: C_12  and  C_13 
ROOT
HETATM    1  N   UNL     1     -43.401 -49.894  12.528  1.00  0.00    -0.326 N 
HETATM    2  C   UNL     1     -43.732 -50.098  13.860  1.00  0.00     0.222 C 
HETATM    3  O   UNL     1     -43.423 -49.363  14.796  1.00  0.00    -0.273 OA
HETATM    4  H   UNL     1     -43.771 -50.543  11.853  1.00  0.00     0.169 HD
ENDROOT
BRANCH   1   5
HETATM    5  C   UNL     1     -42.583 -48.925  11.993  1.00  0.00     0.050 A 
HETATM    6  C   UNL     1     -43.017 -47.823  11.364  1.00  0.00     0.123 A 
HETATM    7  N   UNL     1     -42.149 -46.870  10.861  1.00  0.00    -0.320 N 
HETATM    8  C   UNL     1     -40.771 -46.977  10.992  1.00  0.00     0.247 A 
HETATM    9  C   UNL     1     -40.283 -48.209  11.675  1.00  0.00     0.077 A 
HETATM   10  O   UNL     1     -39.958 -46.148  10.597  1.00  0.00    -0.268 OA
HETATM   11  C   UNL     1     -41.152 -49.119  12.138  1.00  0.00     0.036 A 
BRANCH   7  12
HETATM   12  C   UNL     1     -42.723 -45.720  10.158  1.00  0.00     0.158 C 
BRANCH  12  13
HETATM   13  C   UNL     1     -43.817 -46.101   9.155  1.00  0.00     0.187 C 
BRANCH  13  14
HETATM   14  O   UNL     1     -43.228 -46.530   7.923  1.00  0.00    -0.394 OA
HETATM   15  C   UNL     1     -43.532 -47.893   7.657  1.00  0.00     0.201 C 
ENDBRANCH  13  14
ENDBRANCH  12  13
ENDBRANCH   7  12
ENDBRANCH   1   5
BRANCH   2  16
HETATM   16  C   UNL     1     -44.588 -51.331  14.125  1.00  0.00     0.105 C 
BRANCH  16  17
HETATM   17  C   UNL     1     -43.793 -52.470  14.755  1.00  0.00     0.041 C 
BRANCH  17  18
HETATM   18  C   UNL     1     -43.628 -53.707  13.867  1.00  0.00     0.121 C 
HETATM   19  C   UNL     1     -42.869 -54.806  14.623  1.00  0.00     0.032 C 
HETATM   20  C   UNL     1     -41.393 -54.452  14.804  1.00  0.00     0.004 C 
HETATM   21  C   UNL     1     -40.776 -54.077  13.464  1.00  0.00     0.026 C 
HETATM   22  C   UNL     1     -41.604 -53.027  12.738  1.00  0.00     0.168 C 
HETATM   23  O   UNL     1     -42.976 -53.404  12.630  1.00  0.00    -0.386 OA
ENDBRANCH  17  18
ENDBRANCH  16  17
ENDBRANCH   2  16
TORSDOF 7
ENDMDL
MODEL 8
REMARK VINA RESULT:      -5.4      2.468      6.531
REMARK  7 active torsions:
REMARK  status: ('A' for Active; 'I' for Inactive)
REMARK    1  A    between atoms: O_2  and  C_3 
REMARK    2  A    between atoms: C_3  and  C_4 
REMARK    3  A    between atoms: C_4  and  N_5 
REMARK    4  A    between atoms: C_7  and  N_8 
REMARK       I    between atoms: N_8  and  C_9 
REMARK    5  A    between atoms: C_9  and  C_11 
REMARK    6  A    between atoms: C_11  and  C_12 
REMARK    7  A    between atoms: C_12  and  C_13 
ROOT
HETATM    1  N   UNL     1     -39.790 -47.845  11.319  1.00  0.00    -0.326 N 
HETATM    2  C   UNL     1     -40.439 -46.758  11.887  1.00  0.00     0.222 C 
HETATM    3  O   UNL     1     -40.794 -46.669  13.061  1.00  0.00    -0.273 OA
HETATM    4  H   UNL     1     -39.500 -47.763  10.358  1.00  0.00     0.169 HD
ENDROOT
BRANCH   1   5
HETATM    5  C   UNL     1     -39.515 -49.066  11.891  1.00  0.00     0.050 A 
HETATM    6  C   UNL     1     -40.276 -50.162  11.754  1.00  0.00     0.123 A 
HETATM    7  N   UNL     1     -39.941 -51.371  12.336  1.00  0.00    -0.320 N 
HETATM    8  C   UNL     1     -38.783 -51.542  13.083  1.00  0.00     0.247 A 
HETATM    9  C   UNL     1     -37.943 -50.322  13.253  1.00  0.00     0.077 A 
HETATM   10  O   UNL     1     -38.419 -52.597  13.592  1.00  0.00    -0.268 OA
HETATM   11  C   UNL     1     -38.305 -49.162  12.687  1.00  0.00     0.036 A 
BRANCH   7  12
HETATM   12  C   UNL     1     -40.859 -52.499  12.156  1.00  0.00     0.158 C 
BRANCH  12  13
HETATM   13  C   UNL     1     -42.001 -52.525  13.177  1.00  0.00     0.187 C 
BRANCH  13  14
HETATM   14  O   UNL     1     -43.262 -52.432  12.506  1.00  0.00    -0.394 OA
HETATM   15  C   UNL     1     -44.028 -53.616  12.688  1.00  0.00     0.201 C 
ENDBRANCH  13  14
ENDBRANCH  12  13
ENDBRANCH   7  12
ENDBRANCH   1   5
BRANCH   2  16
HETATM   16  C   UNL     1     -40.672 -45.586  10.941  1.00  0.00     0.105 C 
BRANCH  16  17
HETATM   17  C   UNL     1     -42.077 -45.582  10.350  1.00  0.00     0.041 C 
BRANCH  17  18
HETATM   18  C   UNL     1     -42.369 -46.728   9.376  1.00  0.00     0.121 C 
HETATM   19  C   UNL     1     -43.418 -46.292   8.343  1.00  0.00     0.032 C 
HETATM   20  C   UNL     1     -44.806 -46.160   8.968  1.00  0.00     0.004 C 
HETATM   21  C   UNL     1     -45.165 -47.433   9.723  1.00  0.00     0.026 C 
HETATM   22  C   UNL     1     -44.062 -47.843  10.688  1.00  0.00     0.168 C 
HETATM   23  O   UNL     1     -42.789 -47.918  10.049  1.00  0.00    -0.386 OA
ENDBRANCH  17  18
ENDBRANCH  16  17
ENDBRANCH   2  16
TORSDOF 7
ENDMDL
MODEL 9
REMARK VINA RESULT:      -5.3      3.833      7.850
REMARK  7 active torsions:
REMARK  status: ('A' for Active; 'I' for Inactive)
REMARK    1  A    between atoms: O_2  and  C_3 
REMARK    2  A    between atoms: C_3  and  C_4 
REMARK    3  A    between atoms: C_4  and  N_5 
REMARK    4  A    between atoms: C_7  and  N_8 
REMARK       I    between atoms: N_8  and  C_9 
REMARK    5  A    between atoms: C_9  and  C_11 
REMARK    6  A    between atoms: C_11  and  C_12 
REMARK    7  A    between atoms: C_12  and  C_13 
ROOT
HETATM    1  N   UNL     1     -41.133 -52.428  14.408  1.00  0.00    -0.326 N 
HETATM    2  C   UNL     1     -40.029 -52.442  13.568  1.00  0.00     0.222 C 
HETATM    3  O   UNL     1     -39.952 -53.037  12.495  1.00  0.00    -0.273 OA
HETATM    4  H   UNL     1     -41.084 -51.848  15.230  1.00  0.00     0.169 HD
ENDROOT
BRANCH   1   5
HETATM    5  C   UNL     1     -42.302 -53.144  14.289  1.00  0.00     0.050 A 
HETATM    6  C   UNL     1     -43.407 -52.704  13.670  1.00  0.00     0.123 A 
HETATM    7  N   UNL     1     -44.551 -53.476  13.564  1.00  0.00    -0.320 N 
HETATM    8  C   UNL     1     -44.627 -54.766  14.069  1.00  0.00     0.247 A 
HETATM    9  C   UNL     1     -43.407 -55.253  14.774  1.00  0.00     0.077 A 
HETATM   10  O   UNL     1     -45.600 -55.507  13.974  1.00  0.00    -0.268 OA
HETATM   11  C   UNL     1     -42.320 -54.474  14.871  1.00  0.00     0.036 A 
BRANCH   7  12
HETATM   12  C   UNL     1     -45.717 -52.889  12.899  1.00  0.00     0.158 C 
BRANCH  12  13
HETATM   13  C   UNL     1     -45.956 -51.421  13.269  1.00  0.00     0.187 C 
BRANCH  13  14
HETATM   14  O   UNL     1     -46.957 -51.327  14.288  1.00  0.00    -0.394 OA
HETATM   15  C   UNL     1     -46.369 -51.246  15.579  1.00  0.00     0.201 C 
ENDBRANCH  13  14
ENDBRANCH  12  13
ENDBRANCH   7  12
ENDBRANCH   1   5
BRANCH   2  16
HETATM   16  C   UNL     1     -38.851 -51.600  14.045  1.00  0.00     0.105 C 
BRANCH  16  17
HETATM   17  C   UNL     1     -39.168 -50.108  14.065  1.00  0.00     0.041 C 
BRANCH  17  18
HETATM   18  C   UNL     1     -38.199 -49.234  13.264  1.00  0.00     0.121 C 
HETATM   19  C   UNL     1     -37.460 -48.267  14.199  1.00  0.00     0.032 C 
HETATM   20  C   UNL     1     -38.385 -47.168  14.721  1.00  0.00     0.004 C 
HETATM   21  C   UNL     1     -39.101 -46.490  13.562  1.00  0.00     0.026 C 
HETATM   22  C   UNL     1     -39.764 -47.504  12.640  1.00  0.00     0.168 C 
HETATM   23  O   UNL     1     -38.856 -48.518  12.215  1.00  0.00    -0.386 OA
ENDBRANCH  17  18
ENDBRANCH  16  17
ENDBRANCH   2  16
TORSDOF 7
ENDMDL
