MODEL 1
REMARK VINA RESULT:      -5.9      0.000      0.000
REMARK  6 active torsions:
REMARK  status: ('A' for Active; 'I' for Inactive)
REMARK    1  A    between atoms: C_2  and  N_3 
REMARK    2  A    between atoms: C_2  and  C_14 
REMARK    3  A    between atoms: N_3  and  C_4 
REMARK    4  A    between atoms: C_4  and  C_5 
REMARK    5  A    between atoms: C_5  and  C_6 
REMARK       I    between atoms: C_6  and  N_8 
REMARK    6  A    between atoms: C_14  and  N_16 
ROOT
HETATM    1  N   UNL     1     -41.681 -51.376  11.565  1.00  0.00     0.090 N 
HETATM    2  H   UNL     1     -41.431 -52.190  11.003  1.00  0.00     0.316 HD
ENDROOT
BRANCH   1   3
HETATM    3  C   UNL     1     -40.498 -50.496  11.699  1.00  0.00     0.240 C 
HETATM    4  C   UNL     1     -39.510 -51.120  12.697  1.00  0.00     0.045 C 
BRANCH   3   5
HETATM    5  C   UNL     1     -40.830 -49.006  12.026  1.00  0.00     0.136 C 
HETATM    6  C   UNL     1     -39.611 -48.081  11.940  1.00  0.00     0.036 C 
BRANCH   5   7
HETATM    7  N   UNL     1     -41.908 -48.478  11.186  1.00  0.00    -0.297 N 
HETATM    8  C   UNL     1     -43.140 -48.062  11.618  1.00  0.00     0.112 A 
HETATM    9  C   UNL     1     -43.794 -47.579  10.510  1.00  0.00     0.037 A 
HETATM   10  C   UNL     1     -42.871 -47.730   9.460  1.00  0.00     0.108 A 
HETATM   11  N   UNL     1     -41.712 -48.253   9.868  1.00  0.00    -0.310 N 
ATOM     12  HN  UNL     1     -40.875 -48.438   9.315  1.00  0.00     0.186 HD
ENDBRANCH   5   7
ENDBRANCH   3   5
ENDBRANCH   1   3
BRANCH   1  13
HETATM   13  C   UNL     1     -42.275 -51.806  12.832  1.00  0.00     0.279 C 
BRANCH  13  14
HETATM   14  C   UNL     1     -42.401 -53.322  12.835  1.00  0.00     0.133 C 
BRANCH  14  15
HETATM   15  C   UNL     1     -43.858 -53.749  12.835  1.00  0.00     0.221 C 
HETATM   16  O   UNL     1     -44.639 -53.381  11.956  1.00  0.00    -0.273 OA
HETATM   17  N   UNL     1     -44.250 -54.551  13.894  1.00  0.00    -0.348 N 
HETATM   18  C   UNL     1     -45.654 -54.945  14.027  1.00  0.00     0.152 C 
HETATM   19  C   UNL     1     -43.465 -54.795  15.108  1.00  0.00     0.152 C 
HETATM   20  C   UNL     1     -46.268 -54.285  15.267  1.00  0.00     0.187 C 
HETATM   21  O   UNL     1     -45.490 -54.557  16.448  1.00  0.00    -0.388 OA
HETATM   22  C   UNL     1     -44.138 -54.096  16.293  1.00  0.00     0.187 C 
ENDBRANCH  14  15
ENDBRANCH  13  14
ENDBRANCH   1  13
TORSDOF 6
ENDMDL
MODEL 2
REMARK VINA RESULT:      -5.8      1.441      2.726
REMARK  6 active torsions:
REMARK  status: ('A' for Active; 'I' for Inactive)
REMARK    1  A    between atoms: C_2  and  N_3 
REMARK    2  A    between atoms: C_2  and  C_14 
REMARK    3  A    between atoms: N_3  and  C_4 
REMARK    4  A    between atoms: C_4  and  C_5 
REMARK    5  A    between atoms: C_5  and  C_6 
REMARK       I    between atoms: C_6  and  N_8 
REMARK    6  A    between atoms: C_14  and  N_16 
ROOT
HETATM    1  N   UNL     1     -42.423 -51.247  12.140  1.00  0.00     0.090 N 
HETATM    2  H   UNL     1     -42.108 -51.605  11.237  1.00  0.00     0.316 HD
ENDROOT
BRANCH   1   3
HETATM    3  C   UNL     1     -41.984 -49.840  12.285  1.00  0.00     0.240 C 
HETATM    4  C   UNL     1     -43.217 -48.937  12.445  1.00  0.00     0.045 C 
BRANCH   3   5
HETATM    5  C   UNL     1     -41.011 -49.345  11.170  1.00  0.00     0.136 C 
HETATM    6  C   UNL     1     -41.319 -47.925  10.684  1.00  0.00     0.036 C 
BRANCH   5   7
HETATM    7  N   UNL     1     -39.606 -49.432  11.577  1.00  0.00    -0.297 N 
HETATM    8  C   UNL     1     -39.095 -49.084  12.801  1.00  0.00     0.112 A 
HETATM    9  C   UNL     1     -37.758 -49.398  12.763  1.00  0.00     0.037 A 
HETATM   10  C   UNL     1     -37.558 -49.946  11.484  1.00  0.00     0.108 A 
HETATM   11  N   UNL     1     -38.683 -49.993  10.766  1.00  0.00    -0.310 N 
ATOM     12  HN  UNL     1     -38.815 -50.365   9.826  1.00  0.00     0.186 HD
ENDBRANCH   5   7
ENDBRANCH   3   5
ENDBRANCH   1   3
BRANCH   1  13
HETATM   13  C   UNL     1     -41.988 -52.143  13.213  1.00  0.00     0.279 C 
BRANCH  13  14
HETATM   14  C   UNL     1     -42.288 -53.579  12.815  1.00  0.00     0.133 C 
BRANCH  14  15
HETATM   15  C   UNL     1     -43.780 -53.857  12.855  1.00  0.00     0.221 C 
HETATM   16  O   UNL     1     -44.544 -53.405  12.001  1.00  0.00    -0.273 OA
HETATM   17  N   UNL     1     -44.221 -54.624  13.920  1.00  0.00    -0.348 N 
HETATM   18  C   UNL     1     -45.653 -54.876  14.091  1.00  0.00     0.152 C 
HETATM   19  C   UNL     1     -43.431 -54.957  15.110  1.00  0.00     0.152 C 
HETATM   20  C   UNL     1     -46.163 -54.168  15.352  1.00  0.00     0.187 C 
HETATM   21  O   UNL     1     -45.383 -54.528  16.509  1.00  0.00    -0.388 OA
HETATM   22  C   UNL     1     -43.996 -54.204  16.318  1.00  0.00     0.187 C 
ENDBRANCH  14  15
ENDBRANCH  13  14
ENDBRANCH   1  13
TORSDOF 6
ENDMDL
MODEL 3
REMARK VINA RESULT:      -5.7      1.823      2.659
REMARK  6 active torsions:
REMARK  status: ('A' for Active; 'I' for Inactive)
REMARK    1  A    between atoms: C_2  and  N_3 
REMARK    2  A    between atoms: C_2  and  C_14 
REMARK    3  A    between atoms: N_3  and  C_4 
REMARK    4  A    between atoms: C_4  and  C_5 
REMARK    5  A    between atoms: C_5  and  C_6 
REMARK       I    between atoms: C_6  and  N_8 
REMARK    6  A    between atoms: C_14  and  N_16 
ROOT
HETATM    1  N   UNL     1     -40.554 -50.232  10.700  1.00  0.00     0.090 N 
HETATM    2  H   UNL     1     -39.727 -50.368  10.119  1.00  0.00     0.316 HD
ENDROOT
BRANCH   1   3
HETATM    3  C   UNL     1     -40.811 -48.781  10.847  1.00  0.00     0.240 C 
HETATM    4  C   UNL     1     -39.864 -48.203  11.911  1.00  0.00     0.045 C 
BRANCH   3   5
HETATM    5  C   UNL     1     -42.305 -48.408  11.098  1.00  0.00     0.136 C 
HETATM    6  C   UNL     1     -42.521 -47.599  12.382  1.00  0.00     0.036 C 
BRANCH   5   7
HETATM    7  N   UNL     1     -42.900 -47.697   9.963  1.00  0.00    -0.297 N 
HETATM    8  C   UNL     1     -43.458 -46.445   9.995  1.00  0.00     0.112 A 
HETATM    9  C   UNL     1     -43.816 -46.151   8.701  1.00  0.00     0.037 A 
HETATM   10  C   UNL     1     -43.420 -47.277   7.959  1.00  0.00     0.108 A 
HETATM   11  N   UNL     1     -42.839 -48.211   8.715  1.00  0.00    -0.310 N 
ATOM     12  HN  UNL     1     -42.441 -49.102   8.421  1.00  0.00     0.186 HD
ENDBRANCH   5   7
ENDBRANCH   3   5
ENDBRANCH   1   3
BRANCH   1  13
HETATM   13  C   UNL     1     -40.407 -50.963  11.961  1.00  0.00     0.279 C 
BRANCH  13  14
HETATM   14  C   UNL     1     -41.268 -52.215  11.913  1.00  0.00     0.133 C 
BRANCH  14  15
HETATM   15  C   UNL     1     -40.974 -53.125  13.093  1.00  0.00     0.221 C 
HETATM   16  O   UNL     1     -39.919 -53.755  13.176  1.00  0.00    -0.273 OA
HETATM   17  N   UNL     1     -41.974 -53.216  14.046  1.00  0.00    -0.348 N 
HETATM   18  C   UNL     1     -41.819 -54.132  15.178  1.00  0.00     0.152 C 
HETATM   19  C   UNL     1     -43.348 -52.730  13.883  1.00  0.00     0.152 C 
HETATM   20  C   UNL     1     -42.838 -55.273  15.073  1.00  0.00     0.187 C 
HETATM   21  O   UNL     1     -44.180 -54.767  14.935  1.00  0.00    -0.388 OA
HETATM   22  C   UNL     1     -44.298 -53.925  13.776  1.00  0.00     0.187 C 
ENDBRANCH  14  15
ENDBRANCH  13  14
ENDBRANCH   1  13
TORSDOF 6
ENDMDL
MODEL 4
REMARK VINA RESULT:      -5.6      2.724      4.175
REMARK  6 active torsions:
REMARK  status: ('A' for Active; 'I' for Inactive)
REMARK    1  A    between atoms: C_2  and  N_3 
REMARK    2  A    between atoms: C_2  and  C_14 
REMARK    3  A    between atoms: N_3  and  C_4 
REMARK    4  A    between atoms: C_4  and  C_5 
REMARK    5  A    between atoms: C_5  and  C_6 
REMARK       I    between atoms: C_6  and  N_8 
REMARK    6  A    between atoms: C_14  and  N_16 
ROOT
HETATM    1  N   UNL     1     -39.677 -47.905  11.452  1.00  0.00     0.090 N 
HETATM    2  H   UNL     1     -39.425 -47.474  12.342  1.00  0.00     0.316 HD
ENDROOT
BRANCH   1   3
HETATM    3  C   UNL     1     -40.819 -47.168  10.863  1.00  0.00     0.240 C 
HETATM    4  C   UNL     1     -40.712 -45.682  11.237  1.00  0.00     0.045 C 
BRANCH   3   5
HETATM    5  C   UNL     1     -42.220 -47.775  11.185  1.00  0.00     0.136 C 
HETATM    6  C   UNL     1     -42.911 -47.106  12.378  1.00  0.00     0.036 C 
BRANCH   5   7
HETATM    7  N   UNL     1     -43.115 -47.757  10.025  1.00  0.00    -0.297 N 
HETATM    8  C   UNL     1     -44.459 -47.487  10.043  1.00  0.00     0.112 A 
HETATM    9  C   UNL     1     -44.873 -47.507   8.733  1.00  0.00     0.037 A 
HETATM   10  C   UNL     1     -43.707 -47.780   7.997  1.00  0.00     0.108 A 
HETATM   11  N   UNL     1     -42.629 -47.908   8.773  1.00  0.00    -0.310 N 
ATOM     12  HN  UNL     1     -41.665 -48.080   8.489  1.00  0.00     0.186 HD
ENDBRANCH   5   7
ENDBRANCH   3   5
ENDBRANCH   1   3
BRANCH   1  13
HETATM   13  C   UNL     1     -39.898 -49.341  11.635  1.00  0.00     0.279 C 
BRANCH  13  14
HETATM   14  C   UNL     1     -39.580 -49.714  13.074  1.00  0.00     0.133 C 
BRANCH  14  15
HETATM   15  C   UNL     1     -39.218 -51.185  13.189  1.00  0.00     0.221 C 
HETATM   16  O   UNL     1     -38.129 -51.613  12.802  1.00  0.00    -0.273 OA
HETATM   17  N   UNL     1     -40.194 -52.004  13.729  1.00  0.00    -0.348 N 
HETATM   18  C   UNL     1     -39.969 -53.450  13.804  1.00  0.00     0.152 C 
HETATM   19  C   UNL     1     -41.593 -51.627  13.947  1.00  0.00     0.152 C 
HETATM   20  C   UNL     1     -40.930 -54.179  12.857  1.00  0.00     0.187 C 
HETATM   21  O   UNL     1     -42.299 -53.805  13.107  1.00  0.00    -0.388 OA
HETATM   22  C   UNL     1     -42.482 -52.387  12.960  1.00  0.00     0.187 C 
ENDBRANCH  14  15
ENDBRANCH  13  14
ENDBRANCH   1  13
TORSDOF 6
ENDMDL
MODEL 5
REMARK VINA RESULT:      -5.5      1.530      1.940
REMARK  6 active torsions:
REMARK  status: ('A' for Active; 'I' for Inactive)
REMARK    1  A    between atoms: C_2  and  N_3 
REMARK    2  A    between atoms: C_2  and  C_14 
REMARK    3  A    between atoms: N_3  and  C_4 
REMARK    4  A    between atoms: C_4  and  C_5 
REMARK    5  A    between atoms: C_5  and  C_6 
REMARK       I    between atoms: C_6  and  N_8 
REMARK    6  A    between atoms: C_14  and  N_16 
ROOT
HETATM    1  N   UNL     1     -40.933 -52.563  11.647  1.00  0.00     0.090 N 
HETATM    2  H   UNL     1     -40.401 -52.907  10.848  1.00  0.00     0.316 HD
ENDROOT
BRANCH   1   3
HETATM    3  C   UNL     1     -40.690 -51.110  11.804  1.00  0.00     0.240 C 
HETATM    4  C   UNL     1     -39.339 -50.893  12.503  1.00  0.00     0.045 C 
BRANCH   3   5
HETATM    5  C   UNL     1     -41.857 -50.326  12.482  1.00  0.00     0.136 C 
HETATM    6  C   UNL     1     -41.540 -49.889  13.916  1.00  0.00     0.036 C 
BRANCH   5   7
HETATM    7  N   UNL     1     -42.278 -49.163  11.695  1.00  0.00    -0.297 N 
HETATM    8  C   UNL     1     -43.095 -48.150  12.123  1.00  0.00     0.112 A 
HETATM    9  C   UNL     1     -43.157 -47.244  11.091  1.00  0.00     0.037 A 
HETATM   10  C   UNL     1     -42.333 -47.789  10.091  1.00  0.00     0.108 A 
HETATM   11  N   UNL     1     -41.774 -48.943  10.461  1.00  0.00    -0.310 N 
ATOM     12  HN  UNL     1     -41.120 -49.523   9.936  1.00  0.00     0.186 HD
ENDBRANCH   5   7
ENDBRANCH   3   5
ENDBRANCH   1   3
BRANCH   1  13
HETATM   13  C   UNL     1     -40.633 -53.369  12.833  1.00  0.00     0.279 C 
BRANCH  13  14
HETATM   14  C   UNL     1     -41.864 -54.180  13.207  1.00  0.00     0.133 C 
BRANCH  14  15
HETATM   15  C   UNL     1     -42.622 -53.526  14.349  1.00  0.00     0.221 C 
HETATM   16  O   UNL     1     -42.041 -53.095  15.346  1.00  0.00    -0.273 OA
HETATM   17  N   UNL     1     -43.998 -53.473  14.205  1.00  0.00    -0.348 N 
HETATM   18  C   UNL     1     -44.822 -52.937  15.291  1.00  0.00     0.152 C 
HETATM   19  C   UNL     1     -44.774 -54.204  13.199  1.00  0.00     0.152 C 
HETATM   20  C   UNL     1     -45.674 -54.055  15.903  1.00  0.00     0.187 C 
HETATM   21  O   UNL     1     -46.441 -54.742  14.897  1.00  0.00    -0.388 OA
HETATM   22  C   UNL     1     -45.585 -55.304  13.888  1.00  0.00     0.187 C 
ENDBRANCH  14  15
ENDBRANCH  13  14
ENDBRANCH   1  13
TORSDOF 6
ENDMDL
MODEL 6
REMARK VINA RESULT:      -5.5      2.577      6.327
REMARK  6 active torsions:
REMARK  status: ('A' for Active; 'I' for Inactive)
REMARK    1  A    between atoms: C_2  and  N_3 
REMARK    2  A    between atoms: C_2  and  C_14 
REMARK    3  A    between atoms: N_3  and  C_4 
REMARK    4  A    between atoms: C_4  and  C_5 
REMARK    5  A    between atoms: C_5  and  C_6 
REMARK       I    between atoms: C_6  and  N_8 
REMARK    6  A    between atoms: C_14  and  N_16 
ROOT
HETATM    1  N   UNL     1     -42.315 -53.292  14.475  1.00  0.00     0.090 N 
HETATM    2  H   UNL     1     -41.978 -52.832  15.321  1.00  0.00     0.316 HD
ENDROOT
BRANCH   1   3
HETATM    3  C   UNL     1     -43.479 -54.141  14.814  1.00  0.00     0.240 C 
HETATM    4  C   UNL     1     -42.983 -55.489  15.361  1.00  0.00     0.045 C 
BRANCH   3   5
HETATM    5  C   UNL     1     -44.524 -54.301  13.666  1.00  0.00     0.136 C 
HETATM    6  C   UNL     1     -45.399 -55.550  13.812  1.00  0.00     0.036 C 
BRANCH   5   7
HETATM    7  N   UNL     1     -45.376 -53.117  13.519  1.00  0.00    -0.297 N 
HETATM    8  C   UNL     1     -46.007 -52.445  14.533  1.00  0.00     0.112 A 
HETATM    9  C   UNL     1     -46.628 -51.366  13.950  1.00  0.00     0.037 A 
HETATM   10  C   UNL     1     -46.301 -51.462  12.586  1.00  0.00     0.108 A 
HETATM   11  N   UNL     1     -45.518 -52.511  12.320  1.00  0.00    -0.310 N 
ATOM     12  HN  UNL     1     -45.121 -52.789  11.423  1.00  0.00     0.186 HD
ENDBRANCH   5   7
ENDBRANCH   3   5
ENDBRANCH   1   3
BRANCH   1  13
HETATM   13  C   UNL     1     -41.213 -53.992  13.812  1.00  0.00     0.279 C 
BRANCH  13  14
HETATM   14  C   UNL     1     -40.847 -53.250  12.536  1.00  0.00     0.133 C 
BRANCH  14  15
HETATM   15  C   UNL     1     -41.385 -51.830  12.557  1.00  0.00     0.221 C 
HETATM   16  O   UNL     1     -42.556 -51.579  12.267  1.00  0.00    -0.273 OA
HETATM   17  N   UNL     1     -40.472 -50.846  12.894  1.00  0.00    -0.348 N 
HETATM   18  C   UNL     1     -40.874 -49.438  12.860  1.00  0.00     0.152 C 
HETATM   19  C   UNL     1     -39.019 -51.028  12.974  1.00  0.00     0.152 C 
HETATM   20  C   UNL     1     -40.127 -48.706  11.739  1.00  0.00     0.187 C 
HETATM   21  O   UNL     1     -38.702 -48.885  11.853  1.00  0.00    -0.388 OA
HETATM   22  C   UNL     1     -38.352 -50.278  11.819  1.00  0.00     0.187 C 
ENDBRANCH  14  15
ENDBRANCH  13  14
ENDBRANCH   1  13
TORSDOF 6
ENDMDL
MODEL 7
REMARK VINA RESULT:      -5.4      1.899      2.292
REMARK  6 active torsions:
REMARK  status: ('A' for Active; 'I' for Inactive)
REMARK    1  A    between atoms: C_2  and  N_3 
REMARK    2  A    between atoms: C_2  and  C_14 
REMARK    3  A    between atoms: N_3  and  C_4 
REMARK    4  A    between atoms: C_4  and  C_5 
REMARK    5  A    between atoms: C_5  and  C_6 
REMARK       I    between atoms: C_6  and  N_8 
REMARK    6  A    between atoms: C_14  and  N_16 
ROOT
HETATM    1  N   UNL     1     -42.158 -50.066  11.714  1.00  0.00     0.090 N 
HETATM    2  H   UNL     1     -41.893 -51.036  11.544  1.00  0.00     0.316 HD
ENDROOT
BRANCH   1   3
HETATM    3  C   UNL     1     -41.166 -49.172  11.075  1.00  0.00     0.240 C 
HETATM    4  C   UNL     1     -39.775 -49.452  11.665  1.00  0.00     0.045 C 
BRANCH   3   5
HETATM    5  C   UNL     1     -41.542 -47.657  11.103  1.00  0.00     0.136 C 
HETATM    6  C   UNL     1     -40.323 -46.729  11.065  1.00  0.00     0.036 C 
BRANCH   5   7
HETATM    7  N   UNL     1     -42.470 -47.294  10.029  1.00  0.00    -0.297 N 
HETATM    8  C   UNL     1     -43.123 -46.096   9.894  1.00  0.00     0.112 A 
HETATM    9  C   UNL     1     -43.823 -46.170   8.714  1.00  0.00     0.037 A 
HETATM   10  C   UNL     1     -43.517 -47.442   8.199  1.00  0.00     0.108 A 
HETATM   11  N   UNL     1     -42.674 -48.122   8.981  1.00  0.00    -0.310 N 
ATOM     12  HN  UNL     1     -42.278 -49.048   8.824  1.00  0.00     0.186 HD
ENDBRANCH   5   7
ENDBRANCH   3   5
ENDBRANCH   1   3
BRANCH   1  13
HETATM   13  C   UNL     1     -42.354 -49.843  13.148  1.00  0.00     0.279 C 
BRANCH  13  14
HETATM   14  C   UNL     1     -42.683 -51.169  13.817  1.00  0.00     0.133 C 
BRANCH  14  15
HETATM   15  C   UNL     1     -44.152 -51.239  14.196  1.00  0.00     0.221 C 
HETATM   16  O   UNL     1     -44.645 -50.464  15.016  1.00  0.00    -0.273 OA
HETATM   17  N   UNL     1     -44.884 -52.241  13.581  1.00  0.00    -0.348 N 
HETATM   18  C   UNL     1     -46.288 -52.442  13.944  1.00  0.00     0.152 C 
HETATM   19  C   UNL     1     -44.319 -53.361  12.822  1.00  0.00     0.152 C 
HETATM   20  C   UNL     1     -46.456 -53.785  14.665  1.00  0.00     0.187 C 
HETATM   21  O   UNL     1     -45.912 -54.869  13.889  1.00  0.00    -0.388 OA
HETATM   22  C   UNL     1     -44.518 -54.657  13.612  1.00  0.00     0.187 C 
ENDBRANCH  14  15
ENDBRANCH  13  14
ENDBRANCH   1  13
TORSDOF 6
ENDMDL
MODEL 8
REMARK VINA RESULT:      -5.4      2.831      4.196
REMARK  6 active torsions:
REMARK  status: ('A' for Active; 'I' for Inactive)
REMARK    1  A    between atoms: C_2  and  N_3 
REMARK    2  A    between atoms: C_2  and  C_14 
REMARK    3  A    between atoms: N_3  and  C_4 
REMARK    4  A    between atoms: C_4  and  C_5 
REMARK    5  A    between atoms: C_5  and  C_6 
REMARK       I    between atoms: C_6  and  N_8 
REMARK    6  A    between atoms: C_14  and  N_16 
ROOT
HETATM    1  N   UNL     1     -42.348 -50.164  11.793  1.00  0.00     0.090 N 
HETATM    2  H   UNL     1     -41.556 -50.687  11.417  1.00  0.00     0.316 HD
ENDROOT
BRANCH   1   3
HETATM    3  C   UNL     1     -41.973 -48.737  11.916  1.00  0.00     0.240 C 
HETATM    4  C   UNL     1     -43.177 -47.861  11.534  1.00  0.00     0.045 C 
BRANCH   3   5
HETATM    5  C   UNL     1     -40.669 -48.339  11.157  1.00  0.00     0.136 C 
HETATM    6  C   UNL     1     -40.440 -46.825  11.098  1.00  0.00     0.036 C 
BRANCH   5   7
HETATM    7  N   UNL     1     -39.481 -48.995  11.710  1.00  0.00    -0.297 N 
HETATM    8  C   UNL     1     -39.053 -48.931  13.010  1.00  0.00     0.112 A 
HETATM    9  C   UNL     1     -37.952 -49.750  13.094  1.00  0.00     0.037 A 
HETATM   10  C   UNL     1     -37.803 -50.276  11.798  1.00  0.00     0.108 A 
HETATM   11  N   UNL     1     -38.744 -49.842  10.957  1.00  0.00    -0.310 N 
ATOM     12  HN  UNL     1     -38.877 -50.090   9.977  1.00  0.00     0.186 HD
ENDBRANCH   5   7
ENDBRANCH   3   5
ENDBRANCH   1   3
BRANCH   1  13
HETATM   13  C   UNL     1     -42.817 -50.788  13.032  1.00  0.00     0.279 C 
BRANCH  13  14
HETATM   14  C   UNL     1     -42.546 -52.283  12.970  1.00  0.00     0.133 C 
BRANCH  14  15
HETATM   15  C   UNL     1     -41.056 -52.570  13.028  1.00  0.00     0.221 C 
HETATM   16  O   UNL     1     -40.344 -52.486  12.026  1.00  0.00    -0.273 OA
HETATM   17  N   UNL     1     -40.564 -52.954  14.263  1.00  0.00    -0.348 N 
HETATM   18  C   UNL     1     -39.156 -53.334  14.399  1.00  0.00     0.152 C 
HETATM   19  C   UNL     1     -41.380 -53.346  15.417  1.00  0.00     0.152 C 
HETATM   20  C   UNL     1     -39.045 -54.829  14.719  1.00  0.00     0.187 C 
HETATM   21  O   UNL     1     -39.839 -55.182  15.868  1.00  0.00    -0.388 OA
HETATM   22  C   UNL     1     -41.222 -54.848  15.661  1.00  0.00     0.187 C 
ENDBRANCH  14  15
ENDBRANCH  13  14
ENDBRANCH   1  13
TORSDOF 6
ENDMDL
MODEL 9
REMARK VINA RESULT:      -5.4      2.326      2.955
REMARK  6 active torsions:
REMARK  status: ('A' for Active; 'I' for Inactive)
REMARK    1  A    between atoms: C_2  and  N_3 
REMARK    2  A    between atoms: C_2  and  C_14 
REMARK    3  A    between atoms: N_3  and  C_4 
REMARK    4  A    between atoms: C_4  and  C_5 
REMARK    5  A    between atoms: C_5  and  C_6 
REMARK       I    between atoms: C_6  and  N_8 
REMARK    6  A    between atoms: C_14  and  N_16 
ROOT
HETATM    1  N   UNL     1     -40.303 -50.385  11.023  1.00  0.00     0.090 N 
HETATM    2  H   UNL     1     -39.889 -51.209  10.588  1.00  0.00     0.316 HD
ENDROOT
BRANCH   1   3
HETATM    3  C   UNL     1     -39.228 -49.427  11.371  1.00  0.00     0.240 C 
HETATM    4  C   UNL     1     -37.936 -50.202  11.674  1.00  0.00     0.045 C 
BRANCH   3   5
HETATM    5  C   UNL     1     -39.603 -48.410  12.495  1.00  0.00     0.136 C 
HETATM    6  C   UNL     1     -38.574 -48.354  13.629  1.00  0.00     0.036 C 
BRANCH   5   7
HETATM    7  N   UNL     1     -39.831 -47.061  11.971  1.00  0.00    -0.297 N 
HETATM    8  C   UNL     1     -39.754 -45.893  12.683  1.00  0.00     0.112 A 
HETATM    9  C   UNL     1     -39.967 -44.878  11.781  1.00  0.00     0.037 A 
HETATM   10  C   UNL     1     -40.147 -45.530  10.549  1.00  0.00     0.108 A 
HETATM   11  N   UNL     1     -40.041 -46.857  10.652  1.00  0.00    -0.310 N 
ATOM     12  HN  UNL     1     -40.103 -47.553   9.909  1.00  0.00     0.186 HD
ENDBRANCH   5   7
ENDBRANCH   3   5
ENDBRANCH   1   3
BRANCH   1  13
HETATM   13  C   UNL     1     -41.159 -50.784  12.142  1.00  0.00     0.279 C 
BRANCH  13  14
HETATM   14  C   UNL     1     -41.512 -52.256  11.998  1.00  0.00     0.133 C 
BRANCH  14  15
HETATM   15  C   UNL     1     -41.067 -53.046  13.216  1.00  0.00     0.221 C 
HETATM   16  O   UNL     1     -39.925 -53.497  13.311  1.00  0.00    -0.273 OA
HETATM   17  N   UNL     1     -42.032 -53.245  14.189  1.00  0.00    -0.348 N 
HETATM   18  C   UNL     1     -41.723 -54.066  15.362  1.00  0.00     0.152 C 
HETATM   19  C   UNL     1     -43.466 -52.990  14.026  1.00  0.00     0.152 C 
HETATM   20  C   UNL     1     -42.550 -55.356  15.331  1.00  0.00     0.187 C 
HETATM   21  O   UNL     1     -43.956 -55.076  15.191  1.00  0.00    -0.388 OA
HETATM   22  C   UNL     1     -44.216 -54.324  13.995  1.00  0.00     0.187 C 
ENDBRANCH  14  15
ENDBRANCH  13  14
ENDBRANCH   1  13
TORSDOF 6
ENDMDL
