MODEL 1
REMARK VINA RESULT:      -5.8      0.000      0.000
REMARK  2 active torsions:
REMARK  status: ('A' for Active; 'I' for Inactive)
REMARK    1  A    between atoms: C_5  and  N_8 
REMARK       I    between atoms: N_8  and  C_9 
REMARK       I    between atoms: C_9  and  N_11 
REMARK    2  A    between atoms: N_11  and  C_12 
ROOT
HETATM    1  N   UNL     1     -40.108 -48.915  11.286  1.00  0.00    -0.338 N 
HETATM    2  C   UNL     1     -40.972 -47.953  10.807  1.00  0.00     0.322 C 
HETATM    3  O   UNL     1     -40.777 -46.755  10.972  1.00  0.00    -0.247 OA
HETATM    4  N   UNL     1     -42.069 -48.514  10.202  1.00  0.00    -0.293 N 
HETATM    5  H   UNL     1     -40.007 -49.728  10.692  1.00  0.00     0.164 HD
HETATM    6  H   UNL     1     -42.381 -49.401  10.561  1.00  0.00     0.172 HD
ENDROOT
BRANCH   1   7
HETATM    7  C   UNL     1     -38.961 -48.527  12.108  1.00  0.00     0.089 C 
HETATM    8  C   UNL     1     -37.764 -49.469  11.935  1.00  0.00     0.055 C 
HETATM    9  C   UNL     1     -37.966 -50.795  12.671  1.00  0.00     0.274 C 
HETATM   10  N   UNL     1     -38.326 -50.644  14.085  1.00  0.00     0.084 N 
HETATM   11  C   UNL     1     -37.191 -50.223  14.905  1.00  0.00     0.309 C 
HETATM   12  C   UNL     1     -39.492 -49.769  14.257  1.00  0.00     0.274 C 
HETATM   13  C   UNL     1     -39.357 -48.406  13.580  1.00  0.00     0.055 C 
ENDBRANCH   1   7
BRANCH   4  14
HETATM   14  C   UNL     1     -43.082 -47.725   9.702  1.00  0.00     0.132 A 
HETATM   15  C   UNL     1     -44.454 -47.760  10.039  1.00  0.00     0.084 A 
HETATM   16  C   UNL     1     -45.044 -46.870   9.180  1.00  0.00     0.076 A 
HETATM   17  C   UNL     1     -46.438 -46.470   8.926  1.00  0.00     0.079 C 
HETATM   18  O   UNL     1     -44.083 -46.286   8.417  1.00  0.00    -0.241 OA
HETATM   19  N   UNL     1     -42.840 -46.785   8.778  1.00  0.00    -0.245 N 
ATOM     20  HN  UNL     1     -41.931 -46.497   8.415  1.00  0.00     0.196 HD
ENDBRANCH   4  14
TORSDOF 2
ENDMDL
MODEL 2
REMARK VINA RESULT:      -5.5      4.349      5.545
REMARK  2 active torsions:
REMARK  status: ('A' for Active; 'I' for Inactive)
REMARK    1  A    between atoms: C_5  and  N_8 
REMARK       I    between atoms: N_8  and  C_9 
REMARK       I    between atoms: C_9  and  N_11 
REMARK    2  A    between atoms: N_11  and  C_12 
ROOT
HETATM    1  N   UNL     1     -43.572 -50.586  12.539  1.00  0.00    -0.338 N 
HETATM    2  C   UNL     1     -43.134 -49.278  12.555  1.00  0.00     0.322 C 
HETATM    3  O   UNL     1     -43.158 -48.591  13.568  1.00  0.00    -0.247 OA
HETATM    4  N   UNL     1     -42.747 -48.859  11.307  1.00  0.00    -0.293 N 
HETATM    5  H   UNL     1     -43.048 -51.201  11.930  1.00  0.00     0.164 HD
HETATM    6  H   UNL     1     -43.228 -49.266  10.522  1.00  0.00     0.172 HD
ENDROOT
BRANCH   1   7
HETATM    7  C   UNL     1     -44.182 -51.171  13.734  1.00  0.00     0.089 C 
HETATM    8  C   UNL     1     -43.487 -52.462  14.181  1.00  0.00     0.055 C 
HETATM    9  C   UNL     1     -43.858 -53.651  13.291  1.00  0.00     0.274 C 
HETATM   10  N   UNL     1     -45.303 -53.850  13.133  1.00  0.00     0.084 N 
HETATM   11  C   UNL     1     -45.923 -54.402  14.336  1.00  0.00     0.309 C 
HETATM   12  C   UNL     1     -45.971 -52.626  12.673  1.00  0.00     0.274 C 
HETATM   13  C   UNL     1     -45.681 -51.395  13.531  1.00  0.00     0.055 C 
ENDBRANCH   1   7
BRANCH   4  14
HETATM   14  C   UNL     1     -42.326 -47.564  11.095  1.00  0.00     0.132 A 
HETATM   15  C   UNL     1     -41.033 -47.120  10.737  1.00  0.00     0.084 A 
HETATM   16  C   UNL     1     -41.114 -45.752  10.775  1.00  0.00     0.076 A 
HETATM   17  C   UNL     1     -40.136 -44.668  10.589  1.00  0.00     0.079 C 
HETATM   18  O   UNL     1     -42.390 -45.391  11.071  1.00  0.00    -0.241 OA
HETATM   19  N   UNL     1     -43.169 -46.530  11.225  1.00  0.00    -0.245 N 
ATOM     20  HN  UNL     1     -44.173 -46.571  11.400  1.00  0.00     0.196 HD
ENDBRANCH   4  14
TORSDOF 2
ENDMDL
MODEL 3
REMARK VINA RESULT:      -5.3      1.848      7.150
REMARK  2 active torsions:
REMARK  status: ('A' for Active; 'I' for Inactive)
REMARK    1  A    between atoms: C_5  and  N_8 
REMARK       I    between atoms: N_8  and  C_9 
REMARK       I    between atoms: C_9  and  N_11 
REMARK    2  A    between atoms: N_11  and  C_12 
ROOT
HETATM    1  N   UNL     1     -42.022 -48.530   9.625  1.00  0.00    -0.338 N 
HETATM    2  C   UNL     1     -41.033 -48.620  10.582  1.00  0.00     0.322 C 
HETATM    3  O   UNL     1     -40.783 -47.705  11.356  1.00  0.00    -0.247 OA
HETATM    4  N   UNL     1     -40.355 -49.811  10.498  1.00  0.00    -0.293 N 
HETATM    5  H   UNL     1     -42.520 -49.392   9.446  1.00  0.00     0.164 HD
HETATM    6  H   UNL     1     -40.271 -50.222   9.583  1.00  0.00     0.172 HD
ENDROOT
BRANCH   1   7
HETATM    7  C   UNL     1     -42.750 -47.274   9.439  1.00  0.00     0.089 C 
HETATM    8  C   UNL     1     -43.808 -47.037  10.522  1.00  0.00     0.055 C 
HETATM    9  C   UNL     1     -45.051 -47.903  10.308  1.00  0.00     0.274 C 
HETATM   10  N   UNL     1     -45.631 -47.795   8.965  1.00  0.00     0.084 N 
HETATM   11  C   UNL     1     -46.330 -46.527   8.762  1.00  0.00     0.309 C 
HETATM   12  C   UNL     1     -44.631 -48.052   7.922  1.00  0.00     0.274 C 
HETATM   13  C   UNL     1     -43.368 -47.200   8.041  1.00  0.00     0.055 C 
ENDBRANCH   1   7
BRANCH   4  14
HETATM   14  C   UNL     1     -39.291 -50.079  11.331  1.00  0.00     0.132 A 
HETATM   15  C   UNL     1     -39.325 -50.378  12.713  1.00  0.00     0.084 A 
HETATM   16  C   UNL     1     -38.008 -50.436  13.086  1.00  0.00     0.076 A 
HETATM   17  C   UNL     1     -37.322 -50.627  14.375  1.00  0.00     0.079 C 
HETATM   18  O   UNL     1     -37.226 -50.251  11.990  1.00  0.00    -0.241 OA
HETATM   19  N   UNL     1     -38.031 -50.075  10.873  1.00  0.00    -0.245 N 
ATOM     20  HN  UNL     1     -37.728 -49.966   9.905  1.00  0.00     0.196 HD
ENDBRANCH   4  14
TORSDOF 2
ENDMDL
MODEL 4
REMARK VINA RESULT:      -5.2      3.517      6.932
REMARK  2 active torsions:
REMARK  status: ('A' for Active; 'I' for Inactive)
REMARK    1  A    between atoms: C_5  and  N_8 
REMARK       I    between atoms: N_8  and  C_9 
REMARK       I    between atoms: C_9  and  N_11 
REMARK    2  A    between atoms: N_11  and  C_12 
ROOT
HETATM    1  N   UNL     1     -42.083 -49.325  11.317  1.00  0.00    -0.338 N 
HETATM    2  C   UNL     1     -41.954 -50.396  12.176  1.00  0.00     0.322 C 
HETATM    3  O   UNL     1     -42.496 -50.425  13.274  1.00  0.00    -0.247 OA
HETATM    4  N   UNL     1     -41.112 -51.354  11.669  1.00  0.00    -0.293 N 
HETATM    5  H   UNL     1     -42.115 -49.570  10.336  1.00  0.00     0.164 HD
HETATM    6  H   UNL     1     -40.363 -51.032  11.078  1.00  0.00     0.172 HD
ENDROOT
BRANCH   1   7
HETATM    7  C   UNL     1     -42.805 -48.125  11.742  1.00  0.00     0.089 C 
HETATM    8  C   UNL     1     -43.616 -47.490  10.607  1.00  0.00     0.055 C 
HETATM    9  C   UNL     1     -42.726 -46.724   9.625  1.00  0.00     0.274 C 
HETATM   10  N   UNL     1     -41.840 -45.743  10.262  1.00  0.00     0.084 N 
HETATM   11  C   UNL     1     -42.563 -44.557  10.720  1.00  0.00     0.309 C 
HETATM   12  C   UNL     1     -41.036 -46.352  11.328  1.00  0.00     0.274 C 
HETATM   13  C   UNL     1     -41.854 -47.108  12.375  1.00  0.00     0.055 C 
ENDBRANCH   1   7
BRANCH   4  14
HETATM   14  C   UNL     1     -40.806 -52.483  12.397  1.00  0.00     0.132 A 
HETATM   15  C   UNL     1     -39.883 -52.605  13.460  1.00  0.00     0.084 A 
HETATM   16  C   UNL     1     -39.863 -53.944  13.750  1.00  0.00     0.076 A 
HETATM   17  C   UNL     1     -39.083 -54.775  14.681  1.00  0.00     0.079 C 
HETATM   18  O   UNL     1     -40.764 -54.583  12.957  1.00  0.00    -0.241 OA
HETATM   19  N   UNL     1     -41.396 -53.658  12.138  1.00  0.00    -0.245 N 
ATOM     20  HN  UNL     1     -42.152 -53.835  11.476  1.00  0.00     0.196 HD
ENDBRANCH   4  14
TORSDOF 2
ENDMDL
MODEL 5
REMARK VINA RESULT:      -5.1      3.387      6.157
REMARK  2 active torsions:
REMARK  status: ('A' for Active; 'I' for Inactive)
REMARK    1  A    between atoms: C_5  and  N_8 
REMARK       I    between atoms: N_8  and  C_9 
REMARK       I    between atoms: C_9  and  N_11 
REMARK    2  A    between atoms: N_11  and  C_12 
ROOT
HETATM    1  N   UNL     1     -40.669 -48.055  11.011  1.00  0.00    -0.338 N 
HETATM    2  C   UNL     1     -41.096 -49.223  11.608  1.00  0.00     0.322 C 
HETATM    3  O   UNL     1     -42.128 -49.284  12.265  1.00  0.00    -0.247 OA
HETATM    4  N   UNL     1     -40.200 -50.245  11.420  1.00  0.00    -0.293 N 
HETATM    5  H   UNL     1     -40.211 -48.178  10.117  1.00  0.00     0.164 HD
HETATM    6  H   UNL     1     -39.228 -49.989  11.349  1.00  0.00     0.172 HD
ENDROOT
BRANCH   1   7
HETATM    7  C   UNL     1     -41.400 -46.807  11.233  1.00  0.00     0.089 C 
HETATM    8  C   UNL     1     -41.149 -45.770  10.133  1.00  0.00     0.055 C 
HETATM    9  C   UNL     1     -39.778 -45.105  10.274  1.00  0.00     0.274 C 
HETATM   10  N   UNL     1     -39.520 -44.544  11.605  1.00  0.00     0.084 N 
HETATM   11  C   UNL     1     -40.275 -43.315  11.845  1.00  0.00     0.309 C 
HETATM   12  C   UNL     1     -39.728 -45.541  12.662  1.00  0.00     0.274 C 
HETATM   13  C   UNL     1     -41.091 -46.229  12.615  1.00  0.00     0.055 C 
ENDBRANCH   1   7
BRANCH   4  14
HETATM   14  C   UNL     1     -40.412 -51.484  11.982  1.00  0.00     0.132 A 
HETATM   15  C   UNL     1     -39.907 -51.979  13.207  1.00  0.00     0.084 A 
HETATM   16  C   UNL     1     -40.306 -53.290  13.241  1.00  0.00     0.076 A 
HETATM   17  C   UNL     1     -40.068 -54.403  14.174  1.00  0.00     0.079 C 
HETATM   18  O   UNL     1     -41.059 -53.554  12.140  1.00  0.00    -0.241 OA
HETATM   19  N   UNL     1     -41.170 -52.405  11.370  1.00  0.00    -0.245 N 
ATOM     20  HN  UNL     1     -41.715 -52.285  10.516  1.00  0.00     0.196 HD
ENDBRANCH   4  14
TORSDOF 2
ENDMDL
MODEL 6
REMARK VINA RESULT:      -4.8     13.398     15.414
REMARK  2 active torsions:
REMARK  status: ('A' for Active; 'I' for Inactive)
REMARK    1  A    between atoms: C_5  and  N_8 
REMARK       I    between atoms: N_8  and  C_9 
REMARK       I    between atoms: C_9  and  N_11 
REMARK    2  A    between atoms: N_11  and  C_12 
ROOT
HETATM    1  N   UNL     1     -50.078 -50.956  -0.677  1.00  0.00    -0.338 N 
HETATM    2  C   UNL     1     -50.037 -50.044   0.357  1.00  0.00     0.322 C 
HETATM    3  O   UNL     1     -49.856 -50.380   1.520  1.00  0.00    -0.247 OA
HETATM    4  N   UNL     1     -50.286 -48.768  -0.083  1.00  0.00    -0.293 N 
HETATM    5  H   UNL     1     -49.682 -50.627  -1.548  1.00  0.00     0.164 HD
HETATM    6  H   UNL     1     -50.902 -48.672  -0.874  1.00  0.00     0.172 HD
ENDROOT
BRANCH   1   7
HETATM    7  C   UNL     1     -50.002 -52.390  -0.396  1.00  0.00     0.089 C 
HETATM    8  C   UNL     1     -48.699 -53.023  -0.896  1.00  0.00     0.055 C 
HETATM    9  C   UNL     1     -48.704 -53.223  -2.413  1.00  0.00     0.274 C 
HETATM   10  N   UNL     1     -49.876 -53.947  -2.916  1.00  0.00     0.084 N 
HETATM   11  C   UNL     1     -49.822 -55.375  -2.607  1.00  0.00     0.309 C 
HETATM   12  C   UNL     1     -51.129 -53.328  -2.468  1.00  0.00     0.274 C 
HETATM   13  C   UNL     1     -51.221 -53.124  -0.956  1.00  0.00     0.055 C 
ENDBRANCH   1   7
BRANCH   4  14
HETATM   14  C   UNL     1     -50.344 -47.714   0.802  1.00  0.00     0.132 A 
HETATM   15  C   UNL     1     -49.401 -46.675   0.977  1.00  0.00     0.084 A 
HETATM   16  C   UNL     1     -49.865 -45.965   2.053  1.00  0.00     0.076 A 
HETATM   17  C   UNL     1     -49.346 -44.819   2.818  1.00  0.00     0.079 C 
HETATM   18  O   UNL     1     -51.046 -46.499   2.463  1.00  0.00    -0.241 OA
HETATM   19  N   UNL     1     -51.376 -47.570   1.645  1.00  0.00    -0.245 N 
ATOM     20  HN  UNL     1     -52.227 -48.132   1.679  1.00  0.00     0.196 HD
ENDBRANCH   4  14
TORSDOF 2
ENDMDL
MODEL 7
REMARK VINA RESULT:      -4.8      3.484      4.411
REMARK  2 active torsions:
REMARK  status: ('A' for Active; 'I' for Inactive)
REMARK    1  A    between atoms: C_5  and  N_8 
REMARK       I    between atoms: N_8  and  C_9 
REMARK       I    between atoms: C_9  and  N_11 
REMARK    2  A    between atoms: N_11  and  C_12 
ROOT
HETATM    1  N   UNL     1     -41.019 -49.930  12.510  1.00  0.00    -0.338 N 
HETATM    2  C   UNL     1     -41.292 -48.707  11.933  1.00  0.00     0.322 C 
HETATM    3  O   UNL     1     -42.318 -48.496  11.298  1.00  0.00    -0.247 OA
HETATM    4  N   UNL     1     -40.259 -47.821  12.112  1.00  0.00    -0.293 N 
HETATM    5  H   UNL     1     -40.531 -49.882  13.395  1.00  0.00     0.164 HD
HETATM    6  H   UNL     1     -39.331 -48.209  12.160  1.00  0.00     0.172 HD
ENDROOT
BRANCH   1   7
HETATM    7  C   UNL     1     -41.919 -51.062  12.291  1.00  0.00     0.089 C 
HETATM    8  C   UNL     1     -42.855 -51.312  13.479  1.00  0.00     0.055 C 
HETATM    9  C   UNL     1     -42.131 -51.988  14.646  1.00  0.00     0.274 C 
HETATM   10  N   UNL     1     -41.405 -53.207  14.274  1.00  0.00     0.084 N 
HETATM   11  C   UNL     1     -42.303 -54.333  14.020  1.00  0.00     0.309 C 
HETATM   12  C   UNL     1     -40.483 -52.968  13.157  1.00  0.00     0.274 C 
HETATM   13  C   UNL     1     -41.135 -52.326  11.933  1.00  0.00     0.055 C 
ENDBRANCH   1   7
BRANCH   4  14
HETATM   14  C   UNL     1     -40.310 -46.557  11.565  1.00  0.00     0.132 A 
HETATM   15  C   UNL     1     -40.249 -45.317  12.241  1.00  0.00     0.084 A 
HETATM   16  C   UNL     1     -40.465 -44.380  11.265  1.00  0.00     0.076 A 
HETATM   17  C   UNL     1     -40.608 -42.915  11.272  1.00  0.00     0.079 C 
HETATM   18  O   UNL     1     -40.583 -45.008  10.065  1.00  0.00    -0.241 OA
HETATM   19  N   UNL     1     -40.435 -46.376  10.243  1.00  0.00    -0.245 N 
ATOM     20  HN  UNL     1     -40.424 -47.094   9.519  1.00  0.00     0.196 HD
ENDBRANCH   4  14
TORSDOF 2
ENDMDL
MODEL 8
REMARK VINA RESULT:      -4.8      4.086      6.090
REMARK  2 active torsions:
REMARK  status: ('A' for Active; 'I' for Inactive)
REMARK    1  A    between atoms: C_5  and  N_8 
REMARK       I    between atoms: N_8  and  C_9 
REMARK       I    between atoms: C_9  and  N_11 
REMARK    2  A    between atoms: N_11  and  C_12 
ROOT
HETATM    1  N   UNL     1     -42.025 -48.689  11.956  1.00  0.00    -0.338 N 
HETATM    2  C   UNL     1     -41.961 -50.057  12.128  1.00  0.00     0.322 C 
HETATM    3  O   UNL     1     -41.080 -50.741  11.622  1.00  0.00    -0.247 OA
HETATM    4  N   UNL     1     -43.023 -50.525  12.862  1.00  0.00    -0.293 N 
HETATM    5  H   UNL     1     -42.358 -48.176  12.762  1.00  0.00     0.164 HD
HETATM    6  H   UNL     1     -43.891 -50.023  12.774  1.00  0.00     0.172 HD
ENDROOT
BRANCH   1   7
HETATM    7  C   UNL     1     -41.078 -48.016  11.066  1.00  0.00     0.089 C 
HETATM    8  C   UNL     1     -39.908 -47.377  11.822  1.00  0.00     0.055 C 
HETATM    9  C   UNL     1     -40.318 -46.081  12.524  1.00  0.00     0.274 C 
HETATM   10  N   UNL     1     -40.980 -45.110  11.647  1.00  0.00     0.084 N 
HETATM   11  C   UNL     1     -40.044 -44.460  10.731  1.00  0.00     0.309 C 
HETATM   12  C   UNL     1     -42.123 -45.706  10.944  1.00  0.00     0.274 C 
HETATM   13  C   UNL     1     -41.790 -46.989  10.184  1.00  0.00     0.055 C 
ENDBRANCH   1   7
BRANCH   4  14
HETATM   14  C   UNL     1     -43.177 -51.872  13.102  1.00  0.00     0.132 A 
HETATM   15  C   UNL     1     -43.252 -52.527  14.352  1.00  0.00     0.084 A 
HETATM   16  C   UNL     1     -43.277 -53.862  14.042  1.00  0.00     0.076 A 
HETATM   17  C   UNL     1     -43.275 -55.095  14.847  1.00  0.00     0.079 C 
HETATM   18  O   UNL     1     -43.283 -54.005  12.691  1.00  0.00    -0.241 OA
HETATM   19  N   UNL     1     -43.270 -52.752  12.094  1.00  0.00    -0.245 N 
ATOM     20  HN  UNL     1     -43.321 -52.543  11.097  1.00  0.00     0.196 HD
ENDBRANCH   4  14
TORSDOF 2
ENDMDL
MODEL 9
REMARK VINA RESULT:      -4.8      1.866      2.463
REMARK  2 active torsions:
REMARK  status: ('A' for Active; 'I' for Inactive)
REMARK    1  A    between atoms: C_5  and  N_8 
REMARK       I    between atoms: N_8  and  C_9 
REMARK       I    between atoms: C_9  and  N_11 
REMARK    2  A    between atoms: N_11  and  C_12 
ROOT
HETATM    1  N   UNL     1     -39.215 -48.562  13.525  1.00  0.00    -0.338 N 
HETATM    2  C   UNL     1     -39.738 -48.342  12.268  1.00  0.00     0.322 C 
HETATM    3  O   UNL     1     -39.057 -48.411  11.253  1.00  0.00    -0.247 OA
HETATM    4  N   UNL     1     -41.062 -47.983  12.326  1.00  0.00    -0.293 N 
HETATM    5  H   UNL     1     -39.844 -49.021  14.171  1.00  0.00     0.164 HD
HETATM    6  H   UNL     1     -41.358 -47.470  13.140  1.00  0.00     0.172 HD
ENDROOT
BRANCH   1   7
HETATM    7  C   UNL     1     -37.780 -48.792  13.693  1.00  0.00     0.089 C 
HETATM    8  C   UNL     1     -37.465 -50.192  14.232  1.00  0.00     0.055 C 
HETATM    9  C   UNL     1     -37.758 -50.309  15.730  1.00  0.00     0.274 C 
HETATM   10  N   UNL     1     -37.124 -49.269  16.546  1.00  0.00     0.084 N 
HETATM   11  C   UNL     1     -35.683 -49.476  16.688  1.00  0.00     0.309 C 
HETATM   12  C   UNL     1     -37.447 -47.924  16.055  1.00  0.00     0.274 C 
HETATM   13  C   UNL     1     -37.150 -47.710  14.571  1.00  0.00     0.055 C 
ENDBRANCH   1   7
BRANCH   4  14
HETATM   14  C   UNL     1     -41.759 -47.667  11.181  1.00  0.00     0.132 A 
HETATM   15  C   UNL     1     -42.647 -46.585  10.977  1.00  0.00     0.084 A 
HETATM   16  C   UNL     1     -43.163 -46.792   9.724  1.00  0.00     0.076 A 
HETATM   17  C   UNL     1     -44.185 -46.107   8.917  1.00  0.00     0.079 C 
HETATM   18  O   UNL     1     -42.577 -47.891   9.179  1.00  0.00    -0.241 OA
HETATM   19  N   UNL     1     -41.655 -48.416  10.074  1.00  0.00    -0.245 N 
ATOM     20  HN  UNL     1     -41.029 -49.206   9.922  1.00  0.00     0.196 HD
ENDBRANCH   4  14
TORSDOF 2
ENDMDL
