MODEL 1
REMARK VINA RESULT:      -6.8      0.000      0.000
REMARK  13 active torsions:
REMARK  status: ('A' for Active; 'I' for Inactive)
REMARK    1  A    between atoms: N_2  and  C_13 
REMARK    2  A    between atoms: C_6  and  N_8 
REMARK    3  A    between atoms: N_8  and  C_20 
REMARK    4  A    between atoms: N_8  and  C_25 
REMARK    5  A    between atoms: C_13  and  C_17 
REMARK    6  A    between atoms: N_14  and  C_18 
REMARK    7  A    between atoms: C_17  and  C_21 
REMARK    8  A    between atoms: C_17  and  O_24 
REMARK    9  A    between atoms: C_18  and  C_23 
REMARK   10  A    between atoms: C_20  and  C_26 
REMARK   11  A    between atoms: C_23  and  C_25 
REMARK   12  A    between atoms: C_26  and  C_29 
REMARK   13  A    between atoms: C_26  and  C_30 
ROOT
HETATM    1  C   UNL     1     -42.416 -49.158  12.198  1.00  0.00     0.117 A 
HETATM    2  N   UNL     1     -42.350 -47.341  10.946  1.00  0.00    -0.325 N 
HETATM    3  C   UNL     1     -41.714 -48.540  11.162  1.00  0.00     0.140 A 
HETATM    4  N   UNL     1     -43.388 -48.295  12.672  1.00  0.00    -0.346 N 
ATOM      5  HN  UNL     1     -44.031 -48.457  13.447  1.00  0.00     0.167 HD
HETATM    6  C   UNL     1     -42.050 -50.497  12.544  1.00  0.00     0.114 A 
HETATM    7  C   UNL     1     -43.312 -47.222  11.915  1.00  0.00     0.185 A 
HETATM    8  N   UNL     1     -40.677 -49.037  10.469  1.00  0.00    -0.336 N 
ATOM      9  HN  UNL     1     -40.203 -48.555   9.705  1.00  0.00     0.168 HD
HETATM   10  N   UNL     1     -40.952 -50.994  11.877  1.00  0.00    -0.341 N 
ATOM     11  HN  UNL     1     -40.596 -51.922  12.106  1.00  0.00     0.167 HD
HETATM   12  C   UNL     1     -40.347 -50.257  10.921  1.00  0.00     0.183 A 
ENDROOT
BRANCH   6  13
HETATM   13  N   UNL     1     -42.699 -51.336  13.504  1.00  0.00    -0.266 NA
BRANCH  13  14
HETATM   14  C   UNL     1     -43.839 -52.099  12.945  1.00  0.00     0.101 C 
BRANCH  14  15
HETATM   15  C   UNL     1     -45.220 -51.421  13.164  1.00  0.00    -0.002 C 
BRANCH  15  16
HETATM   16  C   UNL     1     -46.399 -52.207  12.547  1.00  0.00     0.001 C 
HETATM   17  C   UNL     1     -47.113 -51.539  11.381  1.00  0.00     0.005 C 
ENDBRANCH  15  16
BRANCH  15  18
HETATM   18  C   UNL     1     -45.469 -51.126  14.661  1.00  0.00     0.001 C 
HETATM   19  C   UNL     1     -46.904 -51.418  15.093  1.00  0.00     0.005 C 
ENDBRANCH  15  18
ENDBRANCH  14  15
ENDBRANCH  13  14
BRANCH  13  20
HETATM   20  C   UNL     1     -41.742 -52.096  14.360  1.00  0.00     0.110 C 
BRANCH  20  21
HETATM   21  C   UNL     1     -41.731 -53.561  13.958  1.00  0.00     0.118 C 
BRANCH  21  22
HETATM   22  C   UNL     1     -40.352 -54.170  13.761  1.00  0.00    -0.077 C 
BRANCH  22  23
HETATM   23  N   UNL     1     -39.208 -54.674  13.596  1.00  0.00    -0.370 N 
ATOM     24  HN2 UNL     1     -40.147 -54.299  13.738  1.00  0.00     0.165 HD
ATOM     25  HN1 UNL     1     -38.282 -55.081  13.463  1.00  0.00     0.165 HD
ENDBRANCH  22  23
ENDBRANCH  21  22
ENDBRANCH  20  21
ENDBRANCH  13  20
ENDBRANCH   6  13
BRANCH   2  26
HETATM   26  C   UNL     1     -42.245 -46.504   9.756  1.00  0.00     0.165 C 
BRANCH  26  27
HETATM   27  C   UNL     1     -43.558 -46.238   8.999  1.00  0.00     0.165 C 
BRANCH  27  28
HETATM   28  C   UNL     1     -44.557 -47.417   9.040  1.00  0.00     0.151 C 
HETATM   29  O   UNL     1     -44.599 -48.078   7.755  1.00  0.00    -0.383 OA
HETATM   30  C   UNL     1     -45.873 -48.744   7.645  1.00  0.00     0.168 C 
HETATM   31  C   UNL     1     -46.677 -48.388   8.883  1.00  0.00     0.029 C 
HETATM   32  C   UNL     1     -46.005 -47.122   9.372  1.00  0.00     0.036 C 
ENDBRANCH  27  28
BRANCH  27  33
HETATM   33  O   UNL     1     -44.239 -45.115   9.590  1.00  0.00    -0.391 OA
HETATM   34  H   UNL     1     -45.096 -45.453   9.921  1.00  0.00     0.210 HD
ENDBRANCH  27  33
ENDBRANCH  26  27
ENDBRANCH   2  26
TORSDOF 13
ENDMDL
MODEL 2
REMARK VINA RESULT:      -6.7      2.908      6.704
REMARK  13 active torsions:
REMARK  status: ('A' for Active; 'I' for Inactive)
REMARK    1  A    between atoms: N_2  and  C_13 
REMARK    2  A    between atoms: C_6  and  N_8 
REMARK    3  A    between atoms: N_8  and  C_20 
REMARK    4  A    between atoms: N_8  and  C_25 
REMARK    5  A    between atoms: C_13  and  C_17 
REMARK    6  A    between atoms: N_14  and  C_18 
REMARK    7  A    between atoms: C_17  and  C_21 
REMARK    8  A    between atoms: C_17  and  O_24 
REMARK    9  A    between atoms: C_18  and  C_23 
REMARK   10  A    between atoms: C_20  and  C_26 
REMARK   11  A    between atoms: C_23  and  C_25 
REMARK   12  A    between atoms: C_26  and  C_29 
REMARK   13  A    between atoms: C_26  and  C_30 
ROOT
HETATM    1  C   UNL     1     -42.472 -49.687  12.212  1.00  0.00     0.117 A 
HETATM    2  N   UNL     1     -42.209 -51.509  13.430  1.00  0.00    -0.325 N 
HETATM    3  C   UNL     1     -41.629 -50.780  12.420  1.00  0.00     0.140 A 
HETATM    4  N   UNL     1     -43.597 -49.818  13.007  1.00  0.00    -0.346 N 
ATOM      5  HN  UNL     1     -44.402 -49.193  13.043  1.00  0.00     0.167 HD
HETATM    6  C   UNL     1     -42.039 -48.678  11.296  1.00  0.00     0.114 A 
HETATM    7  C   UNL     1     -43.413 -50.916  13.707  1.00  0.00     0.185 A 
HETATM    8  N   UNL     1     -40.459 -51.035  11.812  1.00  0.00    -0.336 N 
ATOM      9  HN  UNL     1     -39.865 -51.841  12.009  1.00  0.00     0.168 HD
HETATM   10  N   UNL     1     -40.868 -48.958  10.627  1.00  0.00    -0.341 N 
ATOM     11  HN  UNL     1     -40.521 -48.312   9.918  1.00  0.00     0.167 HD
HETATM   12  C   UNL     1     -40.178 -50.083  10.908  1.00  0.00     0.183 A 
ENDROOT
BRANCH   6  13
HETATM   13  N   UNL     1     -42.704 -47.443  11.012  1.00  0.00    -0.266 NA
BRANCH  13  14
HETATM   14  C   UNL     1     -44.065 -47.621  10.455  1.00  0.00     0.101 C 
BRANCH  14  15
HETATM   15  C   UNL     1     -44.429 -46.600   9.342  1.00  0.00    -0.002 C 
BRANCH  15  16
HETATM   16  C   UNL     1     -43.477 -46.644   8.126  1.00  0.00     0.001 C 
HETATM   17  C   UNL     1     -43.299 -48.003   7.463  1.00  0.00     0.005 C 
ENDBRANCH  15  16
BRANCH  15  18
HETATM   18  C   UNL     1     -45.904 -46.751   8.901  1.00  0.00     0.001 C 
HETATM   19  C   UNL     1     -46.437 -48.169   9.089  1.00  0.00     0.005 C 
ENDBRANCH  15  18
ENDBRANCH  14  15
ENDBRANCH  13  14
BRANCH  13  20
HETATM   20  C   UNL     1     -42.555 -46.434  12.102  1.00  0.00     0.110 C 
BRANCH  20  21
HETATM   21  C   UNL     1     -41.907 -45.171  11.559  1.00  0.00     0.118 C 
BRANCH  21  22
HETATM   22  C   UNL     1     -40.708 -45.396  10.652  1.00  0.00    -0.077 C 
BRANCH  22  23
HETATM   23  N   UNL     1     -39.714 -45.582   9.899  1.00  0.00    -0.370 N 
ATOM     24  HN2 UNL     1     -40.497 -45.439  10.537  1.00  0.00     0.165 HD
ATOM     25  HN1 UNL     1     -38.910 -45.733   9.290  1.00  0.00     0.165 HD
ENDBRANCH  22  23
ENDBRANCH  21  22
ENDBRANCH  20  21
ENDBRANCH  13  20
ENDBRANCH   6  13
BRANCH   2  26
HETATM   26  C   UNL     1     -41.556 -52.517  14.259  1.00  0.00     0.165 C 
BRANCH  26  27
HETATM   27  C   UNL     1     -41.696 -53.975  13.785  1.00  0.00     0.165 C 
BRANCH  27  28
HETATM   28  C   UNL     1     -43.107 -54.569  13.989  1.00  0.00     0.151 C 
HETATM   29  O   UNL     1     -43.963 -54.211  12.879  1.00  0.00    -0.383 OA
HETATM   30  C   UNL     1     -45.327 -54.264  13.341  1.00  0.00     0.168 C 
HETATM   31  C   UNL     1     -45.289 -54.576  14.827  1.00  0.00     0.029 C 
HETATM   32  C   UNL     1     -43.887 -54.167  15.224  1.00  0.00     0.036 C 
ENDBRANCH  27  28
BRANCH  27  33
HETATM   33  O   UNL     1     -41.429 -54.051  12.371  1.00  0.00    -0.391 OA
HETATM   34  H   UNL     1     -40.464 -53.925  12.263  1.00  0.00     0.210 HD
ENDBRANCH  27  33
ENDBRANCH  26  27
ENDBRANCH   2  26
TORSDOF 13
ENDMDL
MODEL 3
REMARK VINA RESULT:      -6.7      2.753      4.624
REMARK  13 active torsions:
REMARK  status: ('A' for Active; 'I' for Inactive)
REMARK    1  A    between atoms: N_2  and  C_13 
REMARK    2  A    between atoms: C_6  and  N_8 
REMARK    3  A    between atoms: N_8  and  C_20 
REMARK    4  A    between atoms: N_8  and  C_25 
REMARK    5  A    between atoms: C_13  and  C_17 
REMARK    6  A    between atoms: N_14  and  C_18 
REMARK    7  A    between atoms: C_17  and  C_21 
REMARK    8  A    between atoms: C_17  and  O_24 
REMARK    9  A    between atoms: C_18  and  C_23 
REMARK   10  A    between atoms: C_20  and  C_26 
REMARK   11  A    between atoms: C_23  and  C_25 
REMARK   12  A    between atoms: C_26  and  C_29 
REMARK   13  A    between atoms: C_26  and  C_30 
ROOT
HETATM    1  C   UNL     1     -42.918 -51.134  13.046  1.00  0.00     0.117 A 
HETATM    2  N   UNL     1     -41.943 -49.400  12.089  1.00  0.00    -0.325 N 
HETATM    3  C   UNL     1     -41.873 -50.768  12.195  1.00  0.00     0.140 A 
HETATM    4  N   UNL     1     -43.536 -49.995  13.530  1.00  0.00    -0.346 N 
ATOM      5  HN  UNL     1     -44.306 -49.948  14.197  1.00  0.00     0.167 HD
HETATM    6  C   UNL     1     -43.168 -52.530  13.230  1.00  0.00     0.114 A 
HETATM    7  C   UNL     1     -42.924 -48.985  12.952  1.00  0.00     0.185 A 
HETATM    8  N   UNL     1     -41.018 -51.583  11.557  1.00  0.00    -0.336 N 
ATOM      9  HN  UNL     1     -40.277 -51.271  10.929  1.00  0.00     0.168 HD
HETATM   10  N   UNL     1     -42.262 -53.372  12.623  1.00  0.00    -0.341 N 
ATOM     11  HN  UNL     1     -42.340 -54.381  12.752  1.00  0.00     0.167 HD
HETATM   12  C   UNL     1     -41.272 -52.866  11.859  1.00  0.00     0.183 A 
ENDROOT
BRANCH   6  13
HETATM   13  N   UNL     1     -44.240 -53.112  13.979  1.00  0.00    -0.266 NA
BRANCH  13  14
HETATM   14  C   UNL     1     -45.443 -53.396  13.162  1.00  0.00     0.101 C 
BRANCH  14  15
HETATM   15  C   UNL     1     -46.536 -52.296  13.247  1.00  0.00    -0.002 C 
BRANCH  15  16
HETATM   16  C   UNL     1     -46.474 -51.461  14.546  1.00  0.00     0.001 C 
HETATM   17  C   UNL     1     -47.301 -51.976  15.715  1.00  0.00     0.005 C 
ENDBRANCH  15  16
BRANCH  15  18
HETATM   18  C   UNL     1     -46.515 -51.385  11.998  1.00  0.00     0.001 C 
HETATM   19  C   UNL     1     -47.640 -51.698  11.015  1.00  0.00     0.005 C 
ENDBRANCH  15  18
ENDBRANCH  14  15
ENDBRANCH  13  14
BRANCH  13  20
HETATM   20  C   UNL     1     -43.789 -54.193  14.903  1.00  0.00     0.110 C 
BRANCH  20  21
HETATM   21  C   UNL     1     -44.089 -53.809  16.342  1.00  0.00     0.118 C 
BRANCH  21  22
HETATM   22  C   UNL     1     -43.671 -52.402  16.739  1.00  0.00    -0.077 C 
BRANCH  22  23
HETATM   23  N   UNL     1     -43.326 -51.235  17.068  1.00  0.00    -0.370 N 
ATOM     24  HN2 UNL     1     -43.570 -52.189  16.801  1.00  0.00     0.165 HD
ATOM     25  HN1 UNL     1     -43.047 -50.290  17.334  1.00  0.00     0.165 HD
ENDBRANCH  22  23
ENDBRANCH  21  22
ENDBRANCH  20  21
ENDBRANCH  13  20
ENDBRANCH   6  13
BRANCH   2  26
HETATM   26  C   UNL     1     -41.328 -48.577  11.054  1.00  0.00     0.165 C 
BRANCH  26  27
HETATM   27  C   UNL     1     -40.313 -47.526  11.540  1.00  0.00     0.165 C 
BRANCH  27  28
HETATM   28  C   UNL     1     -39.007 -48.128  12.104  1.00  0.00     0.151 C 
HETATM   29  O   UNL     1     -38.702 -49.372  11.433  1.00  0.00    -0.383 OA
HETATM   30  C   UNL     1     -37.873 -50.155  12.316  1.00  0.00     0.168 C 
HETATM   31  C   UNL     1     -37.751 -49.389  13.620  1.00  0.00     0.029 C 
HETATM   32  C   UNL     1     -38.946 -48.460  13.581  1.00  0.00     0.036 C 
ENDBRANCH  27  28
BRANCH  27  33
HETATM   33  O   UNL     1     -39.923 -46.684  10.437  1.00  0.00    -0.391 OA
HETATM   34  H   UNL     1     -39.525 -47.274   9.765  1.00  0.00     0.210 HD
ENDBRANCH  27  33
ENDBRANCH  26  27
ENDBRANCH   2  26
TORSDOF 13
ENDMDL
MODEL 4
REMARK VINA RESULT:      -6.7      2.347      4.038
REMARK  13 active torsions:
REMARK  status: ('A' for Active; 'I' for Inactive)
REMARK    1  A    between atoms: N_2  and  C_13 
REMARK    2  A    between atoms: C_6  and  N_8 
REMARK    3  A    between atoms: N_8  and  C_20 
REMARK    4  A    between atoms: N_8  and  C_25 
REMARK    5  A    between atoms: C_13  and  C_17 
REMARK    6  A    between atoms: N_14  and  C_18 
REMARK    7  A    between atoms: C_17  and  C_21 
REMARK    8  A    between atoms: C_17  and  O_24 
REMARK    9  A    between atoms: C_18  and  C_23 
REMARK   10  A    between atoms: C_20  and  C_26 
REMARK   11  A    between atoms: C_23  and  C_25 
REMARK   12  A    between atoms: C_26  and  C_29 
REMARK   13  A    between atoms: C_26  and  C_30 
ROOT
HETATM    1  C   UNL     1     -42.859 -51.025  12.992  1.00  0.00     0.117 A 
HETATM    2  N   UNL     1     -41.970 -49.276  11.982  1.00  0.00    -0.325 N 
HETATM    3  C   UNL     1     -41.854 -50.639  12.103  1.00  0.00     0.140 A 
HETATM    4  N   UNL     1     -43.495 -49.899  13.482  1.00  0.00    -0.346 N 
ATOM      5  HN  UNL     1     -44.244 -49.866  14.175  1.00  0.00     0.167 HD
HETATM    6  C   UNL     1     -43.059 -52.426  13.203  1.00  0.00     0.114 A 
HETATM    7  C   UNL     1     -42.934 -48.878  12.871  1.00  0.00     0.185 A 
HETATM    8  N   UNL     1     -40.996 -51.437  11.447  1.00  0.00    -0.336 N 
ATOM      9  HN  UNL     1     -40.286 -51.111  10.791  1.00  0.00     0.168 HD
HETATM   10  N   UNL     1     -42.149 -53.248  12.577  1.00  0.00    -0.341 N 
ATOM     11  HN  UNL     1     -42.191 -54.257  12.721  1.00  0.00     0.167 HD
HETATM   12  C   UNL     1     -41.200 -52.723  11.774  1.00  0.00     0.183 A 
ENDROOT
BRANCH   6  13
HETATM   13  N   UNL     1     -44.087 -53.029  13.995  1.00  0.00    -0.266 NA
BRANCH  13  14
HETATM   14  C   UNL     1     -45.331 -53.303  13.237  1.00  0.00     0.101 C 
BRANCH  14  15
HETATM   15  C   UNL     1     -46.459 -52.264  13.482  1.00  0.00    -0.002 C 
BRANCH  15  16
HETATM   16  C   UNL     1     -46.304 -51.483  14.807  1.00  0.00     0.001 C 
HETATM   17  C   UNL     1     -47.437 -51.634  15.811  1.00  0.00     0.005 C 
ENDBRANCH  15  16
BRANCH  15  18
HETATM   18  C   UNL     1     -46.605 -51.300  12.281  1.00  0.00     0.001 C 
HETATM   19  C   UNL     1     -47.428 -51.894  11.140  1.00  0.00     0.005 C 
ENDBRANCH  15  18
ENDBRANCH  14  15
ENDBRANCH  13  14
BRANCH  13  20
HETATM   20  C   UNL     1     -43.583 -54.128  14.871  1.00  0.00     0.110 C 
BRANCH  20  21
HETATM   21  C   UNL     1     -43.530 -53.661  16.315  1.00  0.00     0.118 C 
BRANCH  21  22
HETATM   22  C   UNL     1     -44.768 -53.969  17.143  1.00  0.00    -0.077 C 
BRANCH  22  23
HETATM   23  N   UNL     1     -45.795 -54.224  17.828  1.00  0.00    -0.370 N 
ATOM     24  HN2 UNL     1     -44.946 -54.009  17.305  1.00  0.00     0.165 HD
ATOM     25  HN1 UNL     1     -46.626 -54.431  18.382  1.00  0.00     0.165 HD
ENDBRANCH  22  23
ENDBRANCH  21  22
ENDBRANCH  20  21
ENDBRANCH  13  20
ENDBRANCH   6  13
BRANCH   2  26
HETATM   26  C   UNL     1     -41.415 -48.449  10.915  1.00  0.00     0.165 C 
BRANCH  26  27
HETATM   27  C   UNL     1     -42.174 -47.146  10.607  1.00  0.00     0.165 C 
BRANCH  27  28
HETATM   28  C   UNL     1     -41.440 -45.867  11.069  1.00  0.00     0.151 C 
HETATM   29  O   UNL     1     -40.858 -45.190   9.931  1.00  0.00    -0.383 OA
HETATM   30  C   UNL     1     -39.759 -44.389  10.411  1.00  0.00     0.168 C 
HETATM   31  C   UNL     1     -39.609 -44.671  11.896  1.00  0.00     0.029 C 
HETATM   32  C   UNL     1     -40.302 -46.007  12.059  1.00  0.00     0.036 C 
ENDBRANCH  27  28
BRANCH  27  33
HETATM   33  O   UNL     1     -42.351 -47.014   9.183  1.00  0.00    -0.391 OA
HETATM   34  H   UNL     1     -41.738 -46.309   8.891  1.00  0.00     0.210 HD
ENDBRANCH  27  33
ENDBRANCH  26  27
ENDBRANCH   2  26
TORSDOF 13
ENDMDL
MODEL 5
REMARK VINA RESULT:      -6.6      2.584      4.815
REMARK  13 active torsions:
REMARK  status: ('A' for Active; 'I' for Inactive)
REMARK    1  A    between atoms: N_2  and  C_13 
REMARK    2  A    between atoms: C_6  and  N_8 
REMARK    3  A    between atoms: N_8  and  C_20 
REMARK    4  A    between atoms: N_8  and  C_25 
REMARK    5  A    between atoms: C_13  and  C_17 
REMARK    6  A    between atoms: N_14  and  C_18 
REMARK    7  A    between atoms: C_17  and  C_21 
REMARK    8  A    between atoms: C_17  and  O_24 
REMARK    9  A    between atoms: C_18  and  C_23 
REMARK   10  A    between atoms: C_20  and  C_26 
REMARK   11  A    between atoms: C_23  and  C_25 
REMARK   12  A    between atoms: C_26  and  C_29 
REMARK   13  A    between atoms: C_26  and  C_30 
ROOT
HETATM    1  C   UNL     1     -42.715 -49.447  12.588  1.00  0.00     0.117 A 
HETATM    2  N   UNL     1     -41.698 -47.737  11.633  1.00  0.00    -0.325 N 
HETATM    3  C   UNL     1     -41.560 -48.664  12.638  1.00  0.00     0.140 A 
HETATM    4  N   UNL     1     -43.581 -48.929  11.643  1.00  0.00    -0.346 N 
ATOM      5  HN  UNL     1     -44.515 -49.267  11.411  1.00  0.00     0.167 HD
HETATM    6  C   UNL     1     -42.781 -50.590  13.447  1.00  0.00     0.114 A 
HETATM    7  C   UNL     1     -42.951 -47.908  11.104  1.00  0.00     0.185 A 
HETATM    8  N   UNL     1     -40.502 -48.822  13.449  1.00  0.00    -0.336 N 
ATOM      9  HN  UNL     1     -39.669 -48.233  13.438  1.00  0.00     0.168 HD
HETATM   10  N   UNL     1     -41.725 -50.727  14.321  1.00  0.00    -0.341 N 
ATOM     11  HN  UNL     1     -41.725 -51.486  15.002  1.00  0.00     0.167 HD
HETATM   12  C   UNL     1     -40.691 -49.860  14.278  1.00  0.00     0.183 A 
ENDROOT
BRANCH   6  13
HETATM   13  N   UNL     1     -43.825 -51.567  13.485  1.00  0.00    -0.266 NA
BRANCH  13  14
HETATM   14  C   UNL     1     -43.370 -52.930  13.123  1.00  0.00     0.101 C 
BRANCH  14  15
HETATM   15  C   UNL     1     -43.072 -53.840  14.346  1.00  0.00    -0.002 C 
BRANCH  15  16
HETATM   16  C   UNL     1     -44.042 -55.036  14.478  1.00  0.00     0.001 C 
HETATM   17  C   UNL     1     -45.318 -54.959  13.652  1.00  0.00     0.005 C 
ENDBRANCH  15  16
BRANCH  15  18
HETATM   18  C   UNL     1     -41.599 -54.314  14.348  1.00  0.00     0.001 C 
HETATM   19  C   UNL     1     -40.900 -54.083  13.011  1.00  0.00     0.005 C 
ENDBRANCH  15  18
ENDBRANCH  14  15
ENDBRANCH  13  14
BRANCH  13  20
HETATM   20  C   UNL     1     -44.693 -51.451  14.693  1.00  0.00     0.110 C 
BRANCH  20  21
HETATM   21  C   UNL     1     -46.149 -51.322  14.281  1.00  0.00     0.118 C 
BRANCH  21  22
HETATM   22  C   UNL     1     -46.429 -51.561  12.806  1.00  0.00    -0.077 C 
BRANCH  22  23
HETATM   23  N   UNL     1     -46.663 -51.760  11.583  1.00  0.00    -0.370 N 
ATOM     24  HN2 UNL     1     -46.445 -51.579  12.563  1.00  0.00     0.165 HD
ATOM     25  HN1 UNL     1     -46.852 -51.921  10.594  1.00  0.00     0.165 HD
ENDBRANCH  22  23
ENDBRANCH  21  22
ENDBRANCH  20  21
ENDBRANCH  13  20
ENDBRANCH   6  13
BRANCH   2  26
HETATM   26  C   UNL     1     -40.632 -46.941  11.034  1.00  0.00     0.165 C 
BRANCH  26  27
HETATM   27  C   UNL     1     -41.041 -45.558  10.498  1.00  0.00     0.165 C 
BRANCH  27  28
HETATM   28  C   UNL     1     -40.967 -44.429  11.551  1.00  0.00     0.151 C 
HETATM   29  O   UNL     1     -41.147 -43.143  10.915  1.00  0.00    -0.383 OA
HETATM   30  C   UNL     1     -40.527 -42.148  11.753  1.00  0.00     0.168 C 
HETATM   31  C   UNL     1     -39.857 -42.879  12.903  1.00  0.00     0.029 C 
HETATM   32  C   UNL     1     -39.697 -44.285  12.364  1.00  0.00     0.036 C 
ENDBRANCH  27  28
BRANCH  27  33
HETATM   33  O   UNL     1     -40.154 -45.169   9.432  1.00  0.00    -0.391 OA
HETATM   34  H   UNL     1     -39.587 -45.946   9.245  1.00  0.00     0.210 HD
ENDBRANCH  27  33
ENDBRANCH  26  27
ENDBRANCH   2  26
TORSDOF 13
ENDMDL
MODEL 6
REMARK VINA RESULT:      -6.6      2.867      6.881
REMARK  13 active torsions:
REMARK  status: ('A' for Active; 'I' for Inactive)
REMARK    1  A    between atoms: N_2  and  C_13 
REMARK    2  A    between atoms: C_6  and  N_8 
REMARK    3  A    between atoms: N_8  and  C_20 
REMARK    4  A    between atoms: N_8  and  C_25 
REMARK    5  A    between atoms: C_13  and  C_17 
REMARK    6  A    between atoms: N_14  and  C_18 
REMARK    7  A    between atoms: C_17  and  C_21 
REMARK    8  A    between atoms: C_17  and  O_24 
REMARK    9  A    between atoms: C_18  and  C_23 
REMARK   10  A    between atoms: C_20  and  C_26 
REMARK   11  A    between atoms: C_23  and  C_25 
REMARK   12  A    between atoms: C_26  and  C_29 
REMARK   13  A    between atoms: C_26  and  C_30 
ROOT
HETATM    1  C   UNL     1     -41.843 -50.527  12.279  1.00  0.00     0.117 A 
HETATM    2  N   UNL     1     -41.703 -52.536  13.185  1.00  0.00    -0.325 N 
HETATM    3  C   UNL     1     -42.197 -51.272  13.405  1.00  0.00     0.140 A 
HETATM    4  N   UNL     1     -41.053 -51.300  11.447  1.00  0.00    -0.346 N 
ATOM      5  HN  UNL     1     -40.618 -51.014  10.570  1.00  0.00     0.167 HD
HETATM    6  C   UNL     1     -42.350 -49.194  12.178  1.00  0.00     0.114 A 
HETATM    7  C   UNL     1     -40.981 -52.482  12.021  1.00  0.00     0.185 A 
HETATM    8  N   UNL     1     -42.926 -50.865  14.457  1.00  0.00    -0.336 N 
ATOM      9  HN  UNL     1     -43.175 -51.452  15.253  1.00  0.00     0.168 HD
HETATM   10  N   UNL     1     -43.053 -48.749  13.276  1.00  0.00    -0.341 N 
ATOM     11  HN  UNL     1     -43.401 -47.791  13.303  1.00  0.00     0.167 HD
HETATM   12  C   UNL     1     -43.282 -49.578  14.316  1.00  0.00     0.183 A 
ENDROOT
BRANCH   6  13
HETATM   13  N   UNL     1     -42.185 -48.302  11.071  1.00  0.00    -0.266 NA
BRANCH  13  14
HETATM   14  C   UNL     1     -43.326 -47.376  10.885  1.00  0.00     0.101 C 
BRANCH  14  15
HETATM   15  C   UNL     1     -44.038 -47.519   9.511  1.00  0.00    -0.002 C 
BRANCH  15  16
HETATM   16  C   UNL     1     -45.568 -47.703   9.623  1.00  0.00     0.001 C 
HETATM   17  C   UNL     1     -46.260 -48.315   8.414  1.00  0.00     0.005 C 
ENDBRANCH  15  16
BRANCH  15  18
HETATM   18  C   UNL     1     -43.685 -46.343   8.570  1.00  0.00     0.001 C 
HETATM   19  C   UNL     1     -43.996 -44.980   9.182  1.00  0.00     0.005 C 
ENDBRANCH  15  18
ENDBRANCH  14  15
ENDBRANCH  13  14
BRANCH  13  20
HETATM   20  C   UNL     1     -40.820 -47.703  10.999  1.00  0.00     0.110 C 
BRANCH  20  21
HETATM   21  C   UNL     1     -40.909 -46.189  11.077  1.00  0.00     0.118 C 
BRANCH  21  22
HETATM   22  C   UNL     1     -39.940 -45.435  10.180  1.00  0.00    -0.077 C 
BRANCH  22  23
HETATM   23  N   UNL     1     -39.136 -44.810   9.436  1.00  0.00    -0.370 N 
ATOM     24  HN2 UNL     1     -39.810 -45.288  10.035  1.00  0.00     0.165 HD
ATOM     25  HN1 UNL     1     -38.485 -44.306   8.834  1.00  0.00     0.165 HD
ENDBRANCH  22  23
ENDBRANCH  21  22
ENDBRANCH  20  21
ENDBRANCH  13  20
ENDBRANCH   6  13
BRANCH   2  26
HETATM   26  C   UNL     1     -42.110 -53.759  13.867  1.00  0.00     0.165 C 
BRANCH  26  27
HETATM   27  C   UNL     1     -43.456 -54.362  13.426  1.00  0.00     0.165 C 
BRANCH  27  28
HETATM   28  C   UNL     1     -44.660 -53.905  14.280  1.00  0.00     0.151 C 
HETATM   29  O   UNL     1     -45.441 -55.050  14.691  1.00  0.00    -0.383 OA
HETATM   30  C   UNL     1     -46.782 -54.594  14.959  1.00  0.00     0.168 C 
HETATM   31  C   UNL     1     -46.838 -53.119  14.601  1.00  0.00     0.029 C 
HETATM   32  C   UNL     1     -45.663 -52.954  13.660  1.00  0.00     0.036 C 
ENDBRANCH  27  28
BRANCH  27  33
HETATM   33  O   UNL     1     -43.748 -53.958  12.074  1.00  0.00    -0.391 OA
HETATM   34  H   UNL     1     -44.720 -53.864  12.016  1.00  0.00     0.210 HD
ENDBRANCH  27  33
ENDBRANCH  26  27
ENDBRANCH   2  26
TORSDOF 13
ENDMDL
MODEL 7
REMARK VINA RESULT:      -6.6      2.287      3.772
REMARK  13 active torsions:
REMARK  status: ('A' for Active; 'I' for Inactive)
REMARK    1  A    between atoms: N_2  and  C_13 
REMARK    2  A    between atoms: C_6  and  N_8 
REMARK    3  A    between atoms: N_8  and  C_20 
REMARK    4  A    between atoms: N_8  and  C_25 
REMARK    5  A    between atoms: C_13  and  C_17 
REMARK    6  A    between atoms: N_14  and  C_18 
REMARK    7  A    between atoms: C_17  and  C_21 
REMARK    8  A    between atoms: C_17  and  O_24 
REMARK    9  A    between atoms: C_18  and  C_23 
REMARK   10  A    between atoms: C_20  and  C_26 
REMARK   11  A    between atoms: C_23  and  C_25 
REMARK   12  A    between atoms: C_26  and  C_29 
REMARK   13  A    between atoms: C_26  and  C_30 
ROOT
HETATM    1  C   UNL     1     -42.172 -49.622  12.156  1.00  0.00     0.117 A 
HETATM    2  N   UNL     1     -42.144 -47.656  11.153  1.00  0.00    -0.325 N 
HETATM    3  C   UNL     1     -41.367 -48.759  11.409  1.00  0.00     0.140 A 
HETATM    4  N   UNL     1     -43.374 -48.999  12.437  1.00  0.00    -0.346 N 
ATOM      5  HN  UNL     1     -44.144 -49.369  12.995  1.00  0.00     0.167 HD
HETATM    6  C   UNL     1     -41.656 -50.923  12.452  1.00  0.00     0.114 A 
HETATM    7  C   UNL     1     -43.319 -47.830  11.837  1.00  0.00     0.185 A 
HETATM    8  N   UNL     1     -40.117 -48.984  10.972  1.00  0.00    -0.336 N 
ATOM      9  HN  UNL     1     -39.571 -48.329  10.412  1.00  0.00     0.168 HD
HETATM   10  N   UNL     1     -40.355 -51.142  12.055  1.00  0.00    -0.341 N 
ATOM     11  HN  UNL     1     -39.898 -52.025  12.278  1.00  0.00     0.167 HD
HETATM   12  C   UNL     1     -39.685 -50.190  11.372  1.00  0.00     0.183 A 
ENDROOT
BRANCH   6  13
HETATM   13  N   UNL     1     -42.350 -51.982  13.118  1.00  0.00    -0.266 NA
BRANCH  13  14
HETATM   14  C   UNL     1     -43.069 -52.889  12.193  1.00  0.00     0.101 C 
BRANCH  14  15
HETATM   15  C   UNL     1     -44.570 -53.084  12.541  1.00  0.00    -0.002 C 
BRANCH  15  16
HETATM   16  C   UNL     1     -44.882 -54.454  13.186  1.00  0.00     0.001 C 
HETATM   17  C   UNL     1     -44.885 -54.494  14.708  1.00  0.00     0.005 C 
ENDBRANCH  15  16
BRANCH  15  18
HETATM   18  C   UNL     1     -45.100 -51.923  13.415  1.00  0.00     0.001 C 
HETATM   19  C   UNL     1     -46.532 -51.526  13.069  1.00  0.00     0.005 C 
ENDBRANCH  15  18
ENDBRANCH  14  15
ENDBRANCH  13  14
BRANCH  13  20
HETATM   20  C   UNL     1     -41.541 -52.628  14.193  1.00  0.00     0.110 C 
BRANCH  20  21
HETATM   21  C   UNL     1     -41.326 -54.098  13.873  1.00  0.00     0.118 C 
BRANCH  21  22
HETATM   22  C   UNL     1     -39.874 -54.543  13.808  1.00  0.00    -0.077 C 
BRANCH  22  23
HETATM   23  N   UNL     1     -38.669 -54.911  13.755  1.00  0.00    -0.370 N 
ATOM     24  HN2 UNL     1     -39.638 -54.599  13.831  1.00  0.00     0.165 HD
ATOM     25  HN1 UNL     1     -37.695 -55.209  13.710  1.00  0.00     0.165 HD
ENDBRANCH  22  23
ENDBRANCH  21  22
ENDBRANCH  20  21
ENDBRANCH  13  20
ENDBRANCH   6  13
BRANCH   2  26
HETATM   26  C   UNL     1     -41.911 -46.650  10.122  1.00  0.00     0.165 C 
BRANCH  26  27
HETATM   27  C   UNL     1     -40.875 -45.564  10.460  1.00  0.00     0.165 C 
BRANCH  27  28
HETATM   28  C   UNL     1     -40.788 -45.225  11.965  1.00  0.00     0.151 C 
HETATM   29  O   UNL     1     -40.876 -43.795  12.158  1.00  0.00    -0.383 OA
HETATM   30  C   UNL     1     -40.242 -43.482  13.415  1.00  0.00     0.168 C 
HETATM   31  C   UNL     1     -39.657 -44.772  13.960  1.00  0.00     0.029 C 
HETATM   32  C   UNL     1     -39.546 -45.643  12.726  1.00  0.00     0.036 C 
ENDBRANCH  27  28
BRANCH  27  33
HETATM   33  O   UNL     1     -39.561 -46.011  10.073  1.00  0.00    -0.391 OA
HETATM   34  H   UNL     1     -39.528 -46.971  10.262  1.00  0.00     0.210 HD
ENDBRANCH  27  33
ENDBRANCH  26  27
ENDBRANCH   2  26
TORSDOF 13
ENDMDL
MODEL 8
REMARK VINA RESULT:      -6.4      3.668      6.625
REMARK  13 active torsions:
REMARK  status: ('A' for Active; 'I' for Inactive)
REMARK    1  A    between atoms: N_2  and  C_13 
REMARK    2  A    between atoms: C_6  and  N_8 
REMARK    3  A    between atoms: N_8  and  C_20 
REMARK    4  A    between atoms: N_8  and  C_25 
REMARK    5  A    between atoms: C_13  and  C_17 
REMARK    6  A    between atoms: N_14  and  C_18 
REMARK    7  A    between atoms: C_17  and  C_21 
REMARK    8  A    between atoms: C_17  and  O_24 
REMARK    9  A    between atoms: C_18  and  C_23 
REMARK   10  A    between atoms: C_20  and  C_26 
REMARK   11  A    between atoms: C_23  and  C_25 
REMARK   12  A    between atoms: C_26  and  C_29 
REMARK   13  A    between atoms: C_26  and  C_30 
ROOT
HETATM    1  C   UNL     1     -41.912 -52.800  13.153  1.00  0.00     0.117 A 
HETATM    2  N   UNL     1     -43.707 -54.073  13.324  1.00  0.00    -0.325 N 
HETATM    3  C   UNL     1     -42.563 -53.707  13.991  1.00  0.00     0.140 A 
HETATM    4  N   UNL     1     -42.597 -52.709  11.955  1.00  0.00    -0.346 N 
ATOM      5  HN  UNL     1     -42.340 -52.154  11.139  1.00  0.00     0.167 HD
HETATM    6  C   UNL     1     -40.744 -52.146  13.659  1.00  0.00     0.114 A 
HETATM    7  C   UNL     1     -43.650 -53.486  12.087  1.00  0.00     0.185 A 
HETATM    8  N   UNL     1     -42.189 -54.092  15.222  1.00  0.00    -0.336 N 
ATOM      9  HN  UNL     1     -42.708 -54.748  15.807  1.00  0.00     0.168 HD
HETATM   10  N   UNL     1     -40.324 -52.576  14.898  1.00  0.00    -0.341 N 
ATOM     11  HN  UNL     1     -39.468 -52.197  15.304  1.00  0.00     0.167 HD
HETATM   12  C   UNL     1     -41.040 -53.497  15.576  1.00  0.00     0.183 A 
ENDROOT
BRANCH   6  13
HETATM   13  N   UNL     1     -39.990 -51.122  13.003  1.00  0.00    -0.266 NA
BRANCH  13  14
HETATM   14  C   UNL     1     -40.563 -49.767  13.172  1.00  0.00     0.101 C 
BRANCH  14  15
HETATM   15  C   UNL     1     -41.483 -49.322  12.002  1.00  0.00    -0.002 C 
BRANCH  15  16
HETATM   16  C   UNL     1     -42.921 -48.970  12.445  1.00  0.00     0.001 C 
HETATM   17  C   UNL     1     -43.347 -49.485  13.812  1.00  0.00     0.005 C 
ENDBRANCH  15  16
BRANCH  15  18
HETATM   18  C   UNL     1     -40.848 -48.162  11.199  1.00  0.00     0.001 C 
HETATM   19  C   UNL     1     -40.137 -47.144  12.088  1.00  0.00     0.005 C 
ENDBRANCH  15  18
ENDBRANCH  14  15
ENDBRANCH  13  14
BRANCH  13  20
HETATM   20  C   UNL     1     -38.518 -51.256  13.211  1.00  0.00     0.110 C 
BRANCH  20  21
HETATM   21  C   UNL     1     -37.803 -50.017  12.698  1.00  0.00     0.118 C 
BRANCH  21  22
HETATM   22  C   UNL     1     -37.427 -50.047  11.226  1.00  0.00    -0.077 C 
BRANCH  22  23
HETATM   23  N   UNL     1     -37.115 -50.072  10.004  1.00  0.00    -0.370 N 
ATOM     24  HN2 UNL     1     -37.394 -50.028  10.985  1.00  0.00     0.165 HD
ATOM     25  HN1 UNL     1     -36.862 -50.094   9.016  1.00  0.00     0.165 HD
ENDBRANCH  22  23
ENDBRANCH  21  22
ENDBRANCH  20  21
ENDBRANCH  13  20
ENDBRANCH   6  13
BRANCH   2  26
HETATM   26  C   UNL     1     -44.890 -54.697  13.907  1.00  0.00     0.165 C 
BRANCH  26  27
HETATM   27  C   UNL     1     -46.072 -53.757  14.203  1.00  0.00     0.165 C 
BRANCH  27  28
HETATM   28  C   UNL     1     -45.690 -52.505  15.024  1.00  0.00     0.151 C 
HETATM   29  O   UNL     1     -45.024 -52.896  16.246  1.00  0.00    -0.383 OA
HETATM   30  C   UNL     1     -45.197 -51.830  17.201  1.00  0.00     0.168 C 
HETATM   31  C   UNL     1     -46.093 -50.787  16.557  1.00  0.00     0.029 C 
HETATM   32  C   UNL     1     -46.796 -51.569  15.468  1.00  0.00     0.036 C 
ENDBRANCH  27  28
BRANCH  27  33
HETATM   33  O   UNL     1     -46.626 -53.271  12.965  1.00  0.00    -0.391 OA
HETATM   34  H   UNL     1     -46.933 -52.358  13.138  1.00  0.00     0.210 HD
ENDBRANCH  27  33
ENDBRANCH  26  27
ENDBRANCH   2  26
TORSDOF 13
ENDMDL
MODEL 9
REMARK VINA RESULT:      -6.4      3.561      6.793
REMARK  13 active torsions:
REMARK  status: ('A' for Active; 'I' for Inactive)
REMARK    1  A    between atoms: N_2  and  C_13 
REMARK    2  A    between atoms: C_6  and  N_8 
REMARK    3  A    between atoms: N_8  and  C_20 
REMARK    4  A    between atoms: N_8  and  C_25 
REMARK    5  A    between atoms: C_13  and  C_17 
REMARK    6  A    between atoms: N_14  and  C_18 
REMARK    7  A    between atoms: C_17  and  C_21 
REMARK    8  A    between atoms: C_17  and  O_24 
REMARK    9  A    between atoms: C_18  and  C_23 
REMARK   10  A    between atoms: C_20  and  C_26 
REMARK   11  A    between atoms: C_23  and  C_25 
REMARK   12  A    between atoms: C_26  and  C_29 
REMARK   13  A    between atoms: C_26  and  C_30 
ROOT
HETATM    1  C   UNL     1     -42.461 -51.104  12.529  1.00  0.00     0.117 A 
HETATM    2  N   UNL     1     -44.210 -52.188  13.328  1.00  0.00    -0.325 N 
HETATM    3  C   UNL     1     -42.956 -52.381  12.802  1.00  0.00     0.140 A 
HETATM    4  N   UNL     1     -43.446 -50.167  12.784  1.00  0.00    -0.346 N 
ATOM      5  HN  UNL     1     -43.387 -49.158  12.643  1.00  0.00     0.167 HD
HETATM    6  C   UNL     1     -41.103 -50.996  12.092  1.00  0.00     0.114 A 
HETATM    7  C   UNL     1     -44.474 -50.846  13.245  1.00  0.00     0.185 A 
HETATM    8  N   UNL     1     -42.318 -53.553  12.649  1.00  0.00    -0.336 N 
ATOM      9  HN  UNL     1     -42.714 -54.464  12.878  1.00  0.00     0.168 HD
HETATM   10  N   UNL     1     -40.460 -52.196  11.880  1.00  0.00    -0.341 N 
ATOM     11  HN  UNL     1     -39.507 -52.204  11.516  1.00  0.00     0.167 HD
HETATM   12  C   UNL     1     -41.086 -53.360  12.151  1.00  0.00     0.183 A 
ENDROOT
BRANCH   6  13
HETATM   13  N   UNL     1     -40.380 -49.785  11.851  1.00  0.00    -0.266 NA
BRANCH  13  14
HETATM   14  C   UNL     1     -41.123 -48.811  11.017  1.00  0.00     0.101 C 
BRANCH  14  15
HETATM   15  C   UNL     1     -41.136 -47.369  11.595  1.00  0.00    -0.002 C 
BRANCH  15  16
HETATM   16  C   UNL     1     -40.095 -46.432  10.942  1.00  0.00     0.001 C 
HETATM   17  C   UNL     1     -40.566 -45.019  10.631  1.00  0.00     0.005 C 
ENDBRANCH  15  16
BRANCH  15  18
HETATM   18  C   UNL     1     -42.554 -46.753  11.536  1.00  0.00     0.001 C 
HETATM   19  C   UNL     1     -43.463 -47.452  10.529  1.00  0.00     0.005 C 
ENDBRANCH  15  18
ENDBRANCH  14  15
ENDBRANCH  13  14
BRANCH  13  20
HETATM   20  C   UNL     1     -39.713 -49.248  13.073  1.00  0.00     0.110 C 
BRANCH  20  21
HETATM   21  C   UNL     1     -38.204 -49.283  12.903  1.00  0.00     0.118 C 
BRANCH  21  22
HETATM   22  C   UNL     1     -37.715 -49.724  11.532  1.00  0.00    -0.077 C 
BRANCH  22  23
HETATM   23  N   UNL     1     -37.309 -50.089  10.396  1.00  0.00    -0.370 N 
ATOM     24  HN2 UNL     1     -37.617 -49.763  11.312  1.00  0.00     0.165 HD
ATOM     25  HN1 UNL     1     -36.982 -50.385   9.477  1.00  0.00     0.165 HD
ENDBRANCH  22  23
ENDBRANCH  21  22
ENDBRANCH  20  21
ENDBRANCH  13  20
ENDBRANCH   6  13
BRANCH   2  26
HETATM   26  C   UNL     1     -44.984 -53.152  14.104  1.00  0.00     0.165 C 
BRANCH  26  27
HETATM   27  C   UNL     1     -44.813 -53.083  15.631  1.00  0.00     0.165 C 
BRANCH  27  28
HETATM   28  C   UNL     1     -45.764 -52.083  16.327  1.00  0.00     0.151 C 
HETATM   29  O   UNL     1     -46.064 -52.533  17.668  1.00  0.00    -0.383 OA
HETATM   30  C   UNL     1     -47.323 -51.948  18.055  1.00  0.00     0.168 C 
HETATM   31  C   UNL     1     -47.856 -51.186  16.855  1.00  0.00     0.029 C 
HETATM   32  C   UNL     1     -47.115 -51.817  15.696  1.00  0.00     0.036 C 
ENDBRANCH  27  28
BRANCH  27  33
HETATM   33  O   UNL     1     -45.096 -54.373  16.209  1.00  0.00    -0.391 OA
HETATM   34  H   UNL     1     -44.619 -55.031  15.663  1.00  0.00     0.210 HD
ENDBRANCH  27  33
ENDBRANCH  26  27
ENDBRANCH   2  26
TORSDOF 13
ENDMDL
