MODEL 1
REMARK VINA RESULT:      -5.9      0.000      0.000
REMARK  6 active torsions:
REMARK  status: ('A' for Active; 'I' for Inactive)
REMARK    1  A    between atoms: C_2  and  C_3 
REMARK    2  A    between atoms: C_6  and  C_7 
REMARK    3  A    between atoms: C_7  and  C_8 
REMARK    4  A    between atoms: C_8  and  N_9 
REMARK       I    between atoms: N_9  and  C_10 
REMARK    5  A    between atoms: C_10  and  C_12 
REMARK    6  A    between atoms: C_12  and  C_13 
ROOT
HETATM    1  C   UNL     1     -41.137 -52.192  11.705  1.00  0.00     0.129 C 
ENDROOT
BRANCH   1   2
HETATM    2  C   UNL     1     -40.779 -51.009  12.603  1.00  0.00     0.084 C 
BRANCH   2   3
HETATM    3  C   UNL     1     -40.943 -49.692  11.908  1.00  0.00     0.053 A 
HETATM    4  N   UNL     1     -41.884 -49.420  11.030  1.00  0.00    -0.356 N 
HETATM    5  C   UNL     1     -41.766 -48.116  10.580  1.00  0.00     0.022 A 
ATOM      6  HN  UNL     1     -42.600 -50.079  10.723  1.00  0.00     0.166 HD
HETATM    7  C   UNL     1     -40.702 -47.412  11.120  1.00  0.00     0.003 A 
HETATM    8  S   UNL     1     -39.855 -48.404  12.231  1.00  0.00    -0.080 SA
HETATM    9  C   UNL     1     -40.265 -46.014  10.858  1.00  0.00     0.058 C 
BRANCH   5  10
HETATM   10  C   UNL     1     -42.770 -47.625   9.586  1.00  0.00     0.054 C 
HETATM   11  C   UNL     1     -44.149 -47.448  10.202  1.00  0.00     0.011 C 
ENDBRANCH   5  10
ENDBRANCH   2   3
ENDBRANCH   1   2
BRANCH   1  12
HETATM   12  N   UNL     1     -42.540 -52.565  11.796  1.00  0.00    -0.361 N 
HETATM   13  C   UNL     1     -42.948 -53.521  12.699  1.00  0.00     0.217 C 
HETATM   14  O   UNL     1     -42.175 -54.205  13.362  1.00  0.00    -0.274 OA
HETATM   15  H   UNL     1     -43.211 -51.840  11.565  1.00  0.00     0.162 HD
BRANCH  13  16
HETATM   16  C   UNL     1     -44.450 -53.712  12.768  1.00  0.00     0.107 C 
BRANCH  16  17
HETATM   17  C   UNL     1     -45.048 -53.006  13.984  1.00  0.00    -0.006 C 
HETATM   18  C   UNL     1     -46.326 -53.686  14.490  1.00  0.00     0.005 C 
HETATM   19  C   UNL     1     -47.212 -52.570  15.048  1.00  0.00     0.000 C 
HETATM   20  C   UNL     1     -46.435 -51.274  14.854  1.00  0.00     0.000 C 
HETATM   21  C   UNL     1     -45.495 -51.572  13.700  1.00  0.00     0.005 C 
ENDBRANCH  16  17
ENDBRANCH  13  16
ENDBRANCH   1  12
TORSDOF 6
ENDMDL
MODEL 2
REMARK VINA RESULT:      -5.9      1.257      1.468
REMARK  6 active torsions:
REMARK  status: ('A' for Active; 'I' for Inactive)
REMARK    1  A    between atoms: C_2  and  C_3 
REMARK    2  A    between atoms: C_6  and  C_7 
REMARK    3  A    between atoms: C_7  and  C_8 
REMARK    4  A    between atoms: C_8  and  N_9 
REMARK       I    between atoms: N_9  and  C_10 
REMARK    5  A    between atoms: C_10  and  C_12 
REMARK    6  A    between atoms: C_12  and  C_13 
ROOT
HETATM    1  C   UNL     1     -41.003 -50.500  12.265  1.00  0.00     0.129 C 
ENDROOT
BRANCH   1   2
HETATM    2  C   UNL     1     -40.510 -49.780  11.011  1.00  0.00     0.084 C 
BRANCH   2   3
HETATM    3  C   UNL     1     -41.285 -48.529  10.727  1.00  0.00     0.053 A 
HETATM    4  N   UNL     1     -42.251 -48.432   9.839  1.00  0.00    -0.356 N 
HETATM    5  C   UNL     1     -42.769 -47.148   9.825  1.00  0.00     0.022 A 
ATOM      6  HN  UNL     1     -42.574 -49.196   9.245  1.00  0.00     0.166 HD
HETATM    7  C   UNL     1     -42.160 -46.268  10.706  1.00  0.00     0.003 A 
HETATM    8  S   UNL     1     -40.933 -47.083  11.582  1.00  0.00    -0.080 SA
HETATM    9  C   UNL     1     -42.438 -44.826  10.944  1.00  0.00     0.058 C 
BRANCH   5  10
HETATM   10  C   UNL     1     -43.894 -46.857   8.885  1.00  0.00     0.054 C 
HETATM   11  C   UNL     1     -45.219 -47.413   9.384  1.00  0.00     0.011 C 
ENDBRANCH   5  10
ENDBRANCH   2   3
ENDBRANCH   1   2
BRANCH   1  12
HETATM   12  N   UNL     1     -42.291 -51.150  12.075  1.00  0.00    -0.361 N 
HETATM   13  C   UNL     1     -42.489 -52.440  12.511  1.00  0.00     0.217 C 
HETATM   14  O   UNL     1     -41.592 -53.159  12.940  1.00  0.00    -0.274 OA
HETATM   15  H   UNL     1     -43.102 -50.541  12.069  1.00  0.00     0.162 HD
BRANCH  13  16
HETATM   16  C   UNL     1     -43.912 -52.938  12.360  1.00  0.00     0.107 C 
BRANCH  16  17
HETATM   17  C   UNL     1     -44.762 -52.579  13.577  1.00  0.00    -0.006 C 
HETATM   18  C   UNL     1     -45.650 -53.742  14.038  1.00  0.00     0.005 C 
HETATM   19  C   UNL     1     -46.925 -53.109  14.602  1.00  0.00     0.000 C 
HETATM   20  C   UNL     1     -46.751 -51.602  14.456  1.00  0.00     0.000 C 
HETATM   21  C   UNL     1     -45.759 -51.450  13.317  1.00  0.00     0.005 C 
ENDBRANCH  16  17
ENDBRANCH  13  16
ENDBRANCH   1  12
TORSDOF 6
ENDMDL
MODEL 3
REMARK VINA RESULT:      -5.7      2.424      6.435
REMARK  6 active torsions:
REMARK  status: ('A' for Active; 'I' for Inactive)
REMARK    1  A    between atoms: C_2  and  C_3 
REMARK    2  A    between atoms: C_6  and  C_7 
REMARK    3  A    between atoms: C_7  and  C_8 
REMARK    4  A    between atoms: C_8  and  N_9 
REMARK       I    between atoms: N_9  and  C_10 
REMARK    5  A    between atoms: C_10  and  C_12 
REMARK    6  A    between atoms: C_12  and  C_13 
ROOT
HETATM    1  C   UNL     1     -41.243 -50.670  12.891  1.00  0.00     0.129 C 
ENDROOT
BRANCH   1   2
HETATM    2  C   UNL     1     -41.649 -51.911  12.099  1.00  0.00     0.084 C 
BRANCH   2   3
HETATM    3  C   UNL     1     -42.968 -52.468  12.542  1.00  0.00     0.053 A 
HETATM    4  N   UNL     1     -44.114 -51.825  12.473  1.00  0.00    -0.356 N 
HETATM    5  C   UNL     1     -45.143 -52.616  12.954  1.00  0.00     0.022 A 
ATOM      6  HN  UNL     1     -44.227 -50.876  12.117  1.00  0.00     0.166 HD
HETATM    7  C   UNL     1     -44.750 -53.865  13.407  1.00  0.00     0.003 A 
HETATM    8  S   UNL     1     -43.059 -54.051  13.200  1.00  0.00    -0.080 SA
HETATM    9  C   UNL     1     -45.570 -54.957  13.998  1.00  0.00     0.058 C 
BRANCH   5  10
HETATM   10  C   UNL     1     -46.527 -52.052  12.934  1.00  0.00     0.054 C 
HETATM   11  C   UNL     1     -47.011 -51.766  11.521  1.00  0.00     0.011 C 
ENDBRANCH   5  10
ENDBRANCH   2   3
ENDBRANCH   1   2
BRANCH   1  12
HETATM   12  N   UNL     1     -41.684 -49.432  12.267  1.00  0.00    -0.361 N 
HETATM   13  C   UNL     1     -42.696 -48.690  12.832  1.00  0.00     0.217 C 
HETATM   14  O   UNL     1     -43.373 -49.074  13.781  1.00  0.00    -0.274 OA
HETATM   15  H   UNL     1     -40.981 -48.920  11.744  1.00  0.00     0.162 HD
BRANCH  13  16
HETATM   16  C   UNL     1     -42.959 -47.366  12.143  1.00  0.00     0.107 C 
BRANCH  16  17
HETATM   17  C   UNL     1     -43.110 -47.543  10.633  1.00  0.00    -0.006 C 
HETATM   18  C   UNL     1     -42.582 -46.338   9.844  1.00  0.00     0.005 C 
HETATM   19  C   UNL     1     -43.461 -46.227   8.596  1.00  0.00     0.000 C 
HETATM   20  C   UNL     1     -44.475 -47.361   8.688  1.00  0.00     0.000 C 
HETATM   21  C   UNL     1     -44.562 -47.663  10.173  1.00  0.00     0.005 C 
ENDBRANCH  16  17
ENDBRANCH  13  16
ENDBRANCH   1  12
TORSDOF 6
ENDMDL
MODEL 4
REMARK VINA RESULT:      -5.6      2.769      3.549
REMARK  6 active torsions:
REMARK  status: ('A' for Active; 'I' for Inactive)
REMARK    1  A    between atoms: C_2  and  C_3 
REMARK    2  A    between atoms: C_6  and  C_7 
REMARK    3  A    between atoms: C_7  and  C_8 
REMARK    4  A    between atoms: C_8  and  N_9 
REMARK       I    between atoms: N_9  and  C_10 
REMARK    5  A    between atoms: C_10  and  C_12 
REMARK    6  A    between atoms: C_12  and  C_13 
ROOT
HETATM    1  C   UNL     1     -42.548 -54.011  13.561  1.00  0.00     0.129 C 
ENDROOT
BRANCH   1   2
HETATM    2  C   UNL     1     -41.231 -53.897  12.796  1.00  0.00     0.084 C 
BRANCH   2   3
HETATM    3  C   UNL     1     -40.545 -52.585  13.027  1.00  0.00     0.053 A 
HETATM    4  N   UNL     1     -40.104 -51.793  12.075  1.00  0.00    -0.356 N 
HETATM    5  C   UNL     1     -39.528 -50.656  12.617  1.00  0.00     0.022 A 
ATOM      6  HN  UNL     1     -40.175 -51.988  11.076  1.00  0.00     0.166 HD
HETATM    7  C   UNL     1     -39.524 -50.615  14.002  1.00  0.00     0.003 A 
HETATM    8  S   UNL     1     -40.282 -52.019  14.626  1.00  0.00    -0.080 SA
HETATM    9  C   UNL     1     -38.982 -49.571  14.914  1.00  0.00     0.058 C 
BRANCH   5  10
HETATM   10  C   UNL     1     -38.986 -49.629  11.676  1.00  0.00     0.054 C 
HETATM   11  C   UNL     1     -37.546 -49.913  11.281  1.00  0.00     0.011 C 
ENDBRANCH   5  10
ENDBRANCH   2   3
ENDBRANCH   1   2
BRANCH   1  12
HETATM   12  N   UNL     1     -43.580 -53.125  13.044  1.00  0.00    -0.361 N 
HETATM   13  C   UNL     1     -44.876 -53.572  12.909  1.00  0.00     0.217 C 
HETATM   14  O   UNL     1     -45.213 -54.740  13.068  1.00  0.00    -0.274 OA
HETATM   15  H   UNL     1     -43.456 -52.136  13.233  1.00  0.00     0.162 HD
BRANCH  13  16
HETATM   16  C   UNL     1     -45.861 -52.504  12.480  1.00  0.00     0.107 C 
BRANCH  16  17
HETATM   17  C   UNL     1     -46.412 -51.736  13.681  1.00  0.00    -0.006 C 
HETATM   18  C   UNL     1     -45.312 -51.019  14.475  1.00  0.00     0.005 C 
HETATM   19  C   UNL     1     -45.766 -51.030  15.937  1.00  0.00     0.000 C 
HETATM   20  C   UNL     1     -47.109 -51.749  15.960  1.00  0.00     0.000 C 
HETATM   21  C   UNL     1     -47.081 -52.630  14.724  1.00  0.00     0.005 C 
ENDBRANCH  16  17
ENDBRANCH  13  16
ENDBRANCH   1  12
TORSDOF 6
ENDMDL
MODEL 5
REMARK VINA RESULT:      -5.6      1.494      2.467
REMARK  6 active torsions:
REMARK  status: ('A' for Active; 'I' for Inactive)
REMARK    1  A    between atoms: C_2  and  C_3 
REMARK    2  A    between atoms: C_6  and  C_7 
REMARK    3  A    between atoms: C_7  and  C_8 
REMARK    4  A    between atoms: C_8  and  N_9 
REMARK       I    between atoms: N_9  and  C_10 
REMARK    5  A    between atoms: C_10  and  C_12 
REMARK    6  A    between atoms: C_12  and  C_13 
ROOT
HETATM    1  C   UNL     1     -41.529 -50.483  12.510  1.00  0.00     0.129 C 
ENDROOT
BRANCH   1   2
HETATM    2  C   UNL     1     -40.633 -49.946  11.395  1.00  0.00     0.084 C 
BRANCH   2   3
HETATM    3  C   UNL     1     -40.923 -48.513  11.068  1.00  0.00     0.053 A 
HETATM    4  N   UNL     1     -40.024 -47.553  11.046  1.00  0.00    -0.356 N 
HETATM    5  C   UNL     1     -40.610 -46.347  10.700  1.00  0.00     0.022 A 
ATOM      6  HN  UNL     1     -39.033 -47.679  11.254  1.00  0.00     0.166 HD
HETATM    7  C   UNL     1     -41.977 -46.410  10.482  1.00  0.00     0.003 A 
HETATM    8  S   UNL     1     -42.523 -48.020  10.691  1.00  0.00    -0.080 SA
HETATM    9  C   UNL     1     -42.926 -45.323  10.117  1.00  0.00     0.058 C 
BRANCH   5  10
HETATM   10  C   UNL     1     -39.730 -45.142  10.606  1.00  0.00     0.054 C 
HETATM   11  C   UNL     1     -39.484 -44.502  11.963  1.00  0.00     0.011 C 
ENDBRANCH   5  10
ENDBRANCH   2   3
ENDBRANCH   1   2
BRANCH   1  12
HETATM   12  N   UNL     1     -42.459 -51.502  12.045  1.00  0.00    -0.361 N 
HETATM   13  C   UNL     1     -43.009 -52.399  12.934  1.00  0.00     0.217 C 
HETATM   14  O   UNL     1     -42.659 -52.496  14.106  1.00  0.00    -0.274 OA
HETATM   15  H   UNL     1     -43.021 -51.259  11.237  1.00  0.00     0.162 HD
BRANCH  13  16
HETATM   16  C   UNL     1     -44.052 -53.315  12.329  1.00  0.00     0.107 C 
BRANCH  16  17
HETATM   17  C   UNL     1     -45.452 -52.987  12.845  1.00  0.00    -0.006 C 
HETATM   18  C   UNL     1     -45.624 -51.497  13.171  1.00  0.00     0.005 C 
HETATM   19  C   UNL     1     -46.601 -51.428  14.348  1.00  0.00     0.000 C 
HETATM   20  C   UNL     1     -46.970 -52.869  14.679  1.00  0.00     0.000 C 
HETATM   21  C   UNL     1     -45.798 -53.683  14.161  1.00  0.00     0.005 C 
ENDBRANCH  16  17
ENDBRANCH  13  16
ENDBRANCH   1  12
TORSDOF 6
ENDMDL
MODEL 6
REMARK VINA RESULT:      -5.5      2.380      7.004
REMARK  6 active torsions:
REMARK  status: ('A' for Active; 'I' for Inactive)
REMARK    1  A    between atoms: C_2  and  C_3 
REMARK    2  A    between atoms: C_6  and  C_7 
REMARK    3  A    between atoms: C_7  and  C_8 
REMARK    4  A    between atoms: C_8  and  N_9 
REMARK       I    between atoms: N_9  and  C_10 
REMARK    5  A    between atoms: C_10  and  C_12 
REMARK    6  A    between atoms: C_12  and  C_13 
ROOT
HETATM    1  C   UNL     1     -41.146 -50.891  12.569  1.00  0.00     0.129 C 
ENDROOT
BRANCH   1   2
HETATM    2  C   UNL     1     -41.647 -52.209  11.981  1.00  0.00     0.084 C 
BRANCH   2   3
HETATM    3  C   UNL     1     -42.998 -52.593  12.503  1.00  0.00     0.053 A 
HETATM    4  N   UNL     1     -44.066 -51.827  12.453  1.00  0.00    -0.356 N 
HETATM    5  C   UNL     1     -45.155 -52.475  13.011  1.00  0.00     0.022 A 
ATOM      6  HN  UNL     1     -44.089 -50.887  12.058  1.00  0.00     0.166 HD
HETATM    7  C   UNL     1     -44.884 -53.741  13.505  1.00  0.00     0.003 A 
HETATM    8  S   UNL     1     -43.236 -54.127  13.236  1.00  0.00    -0.080 SA
HETATM    9  C   UNL     1     -45.794 -54.707  14.179  1.00  0.00     0.058 C 
BRANCH   5  10
HETATM   10  C   UNL     1     -46.466 -51.757  13.023  1.00  0.00     0.054 C 
HETATM   11  C   UNL     1     -47.113 -51.717  11.647  1.00  0.00     0.011 C 
ENDBRANCH   5  10
ENDBRANCH   2   3
ENDBRANCH   1   2
BRANCH   1  12
HETATM   12  N   UNL     1     -41.098 -49.818  11.588  1.00  0.00    -0.361 N 
HETATM   13  C   UNL     1     -42.091 -48.865  11.550  1.00  0.00     0.217 C 
HETATM   14  O   UNL     1     -43.122 -48.930  12.212  1.00  0.00    -0.274 OA
HETATM   15  H   UNL     1     -40.173 -49.524  11.293  1.00  0.00     0.162 HD
BRANCH  13  16
HETATM   16  C   UNL     1     -41.841 -47.742  10.564  1.00  0.00     0.107 C 
BRANCH  16  17
HETATM   17  C   UNL     1     -41.297 -46.497  11.261  1.00  0.00    -0.006 C 
HETATM   18  C   UNL     1     -42.235 -45.290  11.127  1.00  0.00     0.005 C 
HETATM   19  C   UNL     1     -41.335 -44.053  11.079  1.00  0.00     0.000 C 
HETATM   20  C   UNL     1     -39.904 -44.564  11.184  1.00  0.00     0.000 C 
HETATM   21  C   UNL     1     -39.980 -45.992  10.674  1.00  0.00     0.005 C 
ENDBRANCH  16  17
ENDBRANCH  13  16
ENDBRANCH   1  12
TORSDOF 6
ENDMDL
MODEL 7
REMARK VINA RESULT:      -5.5      2.395      3.327
REMARK  6 active torsions:
REMARK  status: ('A' for Active; 'I' for Inactive)
REMARK    1  A    between atoms: C_2  and  C_3 
REMARK    2  A    between atoms: C_6  and  C_7 
REMARK    3  A    between atoms: C_7  and  C_8 
REMARK    4  A    between atoms: C_8  and  N_9 
REMARK       I    between atoms: N_9  and  C_10 
REMARK    5  A    between atoms: C_10  and  C_12 
REMARK    6  A    between atoms: C_12  and  C_13 
ROOT
HETATM    1  C   UNL     1     -41.323 -49.892  11.671  1.00  0.00     0.129 C 
ENDROOT
BRANCH   1   2
HETATM    2  C   UNL     1     -42.410 -49.014  12.289  1.00  0.00     0.084 C 
BRANCH   2   3
HETATM    3  C   UNL     1     -43.091 -48.147  11.275  1.00  0.00     0.053 A 
HETATM    4  N   UNL     1     -44.331 -48.305  10.864  1.00  0.00    -0.356 N 
HETATM    5  C   UNL     1     -44.661 -47.337   9.931  1.00  0.00     0.022 A 
ATOM      6  HN  UNL     1     -44.961 -49.039  11.188  1.00  0.00     0.166 HD
HETATM    7  C   UNL     1     -43.637 -46.453   9.628  1.00  0.00     0.003 A 
HETATM    8  S   UNL     1     -42.248 -46.837  10.553  1.00  0.00    -0.080 SA
HETATM    9  C   UNL     1     -43.626 -45.314   8.671  1.00  0.00     0.058 C 
BRANCH   5  10
HETATM   10  C   UNL     1     -46.045 -47.351   9.368  1.00  0.00     0.054 C 
HETATM   11  C   UNL     1     -46.285 -48.549   8.461  1.00  0.00     0.011 C 
ENDBRANCH   5  10
ENDBRANCH   2   3
ENDBRANCH   1   2
BRANCH   1  12
HETATM   12  N   UNL     1     -41.608 -51.314  11.796  1.00  0.00    -0.361 N 
HETATM   13  C   UNL     1     -40.675 -52.164  12.347  1.00  0.00     0.217 C 
HETATM   14  O   UNL     1     -39.528 -51.827  12.625  1.00  0.00    -0.274 OA
HETATM   15  H   UNL     1     -42.583 -51.566  11.920  1.00  0.00     0.162 HD
BRANCH  13  16
HETATM   16  C   UNL     1     -41.159 -53.588  12.527  1.00  0.00     0.107 C 
BRANCH  16  17
HETATM   17  C   UNL     1     -42.216 -53.684  13.626  1.00  0.00    -0.006 C 
HETATM   18  C   UNL     1     -41.820 -54.662  14.740  1.00  0.00     0.005 C 
HETATM   19  C   UNL     1     -43.125 -55.280  15.248  1.00  0.00     0.000 C 
HETATM   20  C   UNL     1     -44.242 -54.653  14.424  1.00  0.00     0.000 C 
HETATM   21  C   UNL     1     -43.560 -54.223  13.137  1.00  0.00     0.005 C 
ENDBRANCH  16  17
ENDBRANCH  13  16
ENDBRANCH   1  12
TORSDOF 6
ENDMDL
MODEL 8
REMARK VINA RESULT:      -5.4      2.319      3.465
REMARK  6 active torsions:
REMARK  status: ('A' for Active; 'I' for Inactive)
REMARK    1  A    between atoms: C_2  and  C_3 
REMARK    2  A    between atoms: C_6  and  C_7 
REMARK    3  A    between atoms: C_7  and  C_8 
REMARK    4  A    between atoms: C_8  and  N_9 
REMARK       I    between atoms: N_9  and  C_10 
REMARK    5  A    between atoms: C_10  and  C_12 
REMARK    6  A    between atoms: C_12  and  C_13 
ROOT
HETATM    1  C   UNL     1     -41.824 -53.658  14.694  1.00  0.00     0.129 C 
ENDROOT
BRANCH   1   2
HETATM    2  C   UNL     1     -40.614 -53.705  13.763  1.00  0.00     0.084 C 
BRANCH   2   3
HETATM    3  C   UNL     1     -40.341 -52.384  13.111  1.00  0.00     0.053 A 
HETATM    4  N   UNL     1     -39.191 -51.748  13.160  1.00  0.00    -0.356 N 
HETATM    5  C   UNL     1     -39.262 -50.560  12.451  1.00  0.00     0.022 A 
ATOM      6  HN  UNL     1     -38.362 -52.083  13.650  1.00  0.00     0.166 HD
HETATM    7  C   UNL     1     -40.499 -50.300  11.883  1.00  0.00     0.003 A 
HETATM    8  S   UNL     1     -41.578 -51.586  12.228  1.00  0.00    -0.080 SA
HETATM    9  C   UNL     1     -40.941 -49.128  11.080  1.00  0.00     0.058 C 
BRANCH   5  10
HETATM   10  C   UNL     1     -38.034 -49.712  12.382  1.00  0.00     0.054 C 
HETATM   11  C   UNL     1     -37.277 -49.901  11.076  1.00  0.00     0.011 C 
ENDBRANCH   5  10
ENDBRANCH   2   3
ENDBRANCH   1   2
BRANCH   1  12
HETATM   12  N   UNL     1     -43.052 -54.097  14.048  1.00  0.00    -0.361 N 
HETATM   13  C   UNL     1     -44.068 -54.654  14.791  1.00  0.00     0.217 C 
HETATM   14  O   UNL     1     -43.962 -54.947  15.977  1.00  0.00    -0.274 OA
HETATM   15  H   UNL     1     -43.324 -53.587  13.214  1.00  0.00     0.162 HD
BRANCH  13  16
HETATM   16  C   UNL     1     -45.329 -54.944  14.003  1.00  0.00     0.107 C 
BRANCH  16  17
HETATM   17  C   UNL     1     -46.224 -53.710  13.908  1.00  0.00    -0.006 C 
HETATM   18  C   UNL     1     -45.852 -52.803  12.727  1.00  0.00     0.005 C 
HETATM   19  C   UNL     1     -46.157 -51.371  13.176  1.00  0.00     0.000 C 
HETATM   20  C   UNL     1     -46.694 -51.477  14.598  1.00  0.00     0.000 C 
HETATM   21  C   UNL     1     -46.119 -52.782  15.118  1.00  0.00     0.005 C 
ENDBRANCH  16  17
ENDBRANCH  13  16
ENDBRANCH   1  12
TORSDOF 6
ENDMDL
MODEL 9
REMARK VINA RESULT:      -5.4      2.024      3.026
REMARK  6 active torsions:
REMARK  status: ('A' for Active; 'I' for Inactive)
REMARK    1  A    between atoms: C_2  and  C_3 
REMARK    2  A    between atoms: C_6  and  C_7 
REMARK    3  A    between atoms: C_7  and  C_8 
REMARK    4  A    between atoms: C_8  and  N_9 
REMARK       I    between atoms: N_9  and  C_10 
REMARK    5  A    between atoms: C_10  and  C_12 
REMARK    6  A    between atoms: C_12  and  C_13 
ROOT
HETATM    1  C   UNL     1     -40.369 -50.228  13.113  1.00  0.00     0.129 C 
ENDROOT
BRANCH   1   2
HETATM    2  C   UNL     1     -39.612 -49.670  11.909  1.00  0.00     0.084 C 
BRANCH   2   3
HETATM    3  C   UNL     1     -40.229 -48.413  11.377  1.00  0.00     0.053 A 
HETATM    4  N   UNL     1     -39.581 -47.285  11.180  1.00  0.00    -0.356 N 
HETATM    5  C   UNL     1     -40.432 -46.318  10.673  1.00  0.00     0.022 A 
ATOM      6  HN  UNL     1     -38.589 -47.144  11.373  1.00  0.00     0.166 HD
HETATM    7  C   UNL     1     -41.745 -46.731  10.511  1.00  0.00     0.003 A 
HETATM    8  S   UNL     1     -41.899 -48.372  10.980  1.00  0.00    -0.080 SA
HETATM    9  C   UNL     1     -42.921 -45.966  10.015  1.00  0.00     0.058 C 
BRANCH   5  10
HETATM   10  C   UNL     1     -39.860 -44.971  10.368  1.00  0.00     0.054 C 
HETATM   11  C   UNL     1     -40.022 -44.001  11.529  1.00  0.00     0.011 C 
ENDBRANCH   5  10
ENDBRANCH   2   3
ENDBRANCH   1   2
BRANCH   1  12
HETATM   12  N   UNL     1     -41.047 -51.483  12.822  1.00  0.00    -0.361 N 
HETATM   13  C   UNL     1     -40.448 -52.684  13.129  1.00  0.00     0.217 C 
HETATM   14  O   UNL     1     -39.289 -52.787  13.516  1.00  0.00    -0.274 OA
HETATM   15  H   UNL     1     -42.061 -51.459  12.848  1.00  0.00     0.162 HD
BRANCH  13  16
HETATM   16  C   UNL     1     -41.324 -53.897  12.886  1.00  0.00     0.107 C 
BRANCH  16  17
HETATM   17  C   UNL     1     -42.711 -53.715  13.499  1.00  0.00    -0.006 C 
HETATM   18  C   UNL     1     -43.061 -54.823  14.502  1.00  0.00     0.005 C 
HETATM   19  C   UNL     1     -44.574 -55.031  14.397  1.00  0.00     0.000 C 
HETATM   20  C   UNL     1     -45.066 -54.049  13.342  1.00  0.00     0.000 C 
HETATM   21  C   UNL     1     -43.846 -53.787  12.478  1.00  0.00     0.005 C 
ENDBRANCH  16  17
ENDBRANCH  13  16
ENDBRANCH   1  12
TORSDOF 6
ENDMDL
