MODEL 1
REMARK VINA RESULT:      -6.0      0.000      0.000
REMARK  7 active torsions:
REMARK  status: ('A' for Active; 'I' for Inactive)
REMARK    1  A    between atoms: O_2  and  C_3 
REMARK    2  A    between atoms: C_6  and  O_7 
REMARK    3  A    between atoms: O_7  and  C_8 
REMARK    4  A    between atoms: C_8  and  C_9 
REMARK    5  A    between atoms: C_9  and  O_10 
REMARK    6  A    between atoms: C_9  and  C_11 
REMARK    7  A    between atoms: C_11  and  N_12 
ROOT
HETATM    1  C   UNL     1     -41.239 -52.809  12.428  1.00  0.00     0.161 C 
ENDROOT
BRANCH   1   2
HETATM    2  C   UNL     1     -40.138 -52.014  13.153  1.00  0.00     0.209 C 
BRANCH   2   3
HETATM    3  O   UNL     1     -40.697 -50.776  13.596  1.00  0.00    -0.349 OA
BRANCH   3   4
HETATM    4  C   UNL     1     -41.249 -49.949  12.663  1.00  0.00     0.069 A 
HETATM    5  C   UNL     1     -42.549 -49.539  12.964  1.00  0.00     0.039 A 
HETATM    6  C   UNL     1     -43.228 -48.642  12.138  1.00  0.00     0.039 A 
HETATM    7  C   UNL     1     -42.595 -48.124  11.011  1.00  0.00     0.068 A 
HETATM    8  C   UNL     1     -41.306 -48.554  10.690  1.00  0.00     0.039 A 
HETATM    9  C   UNL     1     -40.627 -49.461  11.517  1.00  0.00     0.039 A 
BRANCH   7  10
HETATM   10  O   UNL     1     -43.151 -47.213  10.155  1.00  0.00    -0.356 OA
HETATM   11  C   UNL     1     -44.513 -47.464   9.814  1.00  0.00     0.210 C 
ENDBRANCH   7  10
ENDBRANCH   3   4
ENDBRANCH   2   3
ENDBRANCH   1   2
BRANCH   1  12
HETATM   12  O   UNL     1     -40.652 -53.513  11.323  1.00  0.00    -0.392 OA
HETATM   13  H   UNL     1     -40.722 -54.472  11.505  1.00  0.00     0.210 HD
ENDBRANCH   1  12
BRANCH   1  14
HETATM   14  C   UNL     1     -41.963 -53.767  13.393  1.00  0.00     0.168 C 
BRANCH  14  15
HETATM   15  N   UNL     1     -42.891 -53.093  14.269  1.00  0.00    -0.295 N 
HETATM   16  C   UNL     1     -42.644 -52.822  15.633  1.00  0.00     0.329 A 
HETATM   17  O   UNL     1     -41.637 -53.127  16.255  1.00  0.00    -0.246 OA
HETATM   18  N   UNL     1     -43.777 -52.133  16.111  1.00  0.00    -0.302 N 
HETATM   19  C   UNL     1     -43.950 -51.622  17.440  1.00  0.00     0.161 C 
HETATM   20  C   UNL     1     -44.708 -52.014  15.070  1.00  0.00     0.065 A 
HETATM   21  C   UNL     1     -45.956 -51.428  15.059  1.00  0.00     0.032 A 
HETATM   22  C   UNL     1     -44.163 -52.615  13.932  1.00  0.00     0.066 A 
HETATM   23  C   UNL     1     -46.665 -51.459  13.854  1.00  0.00     0.002 A 
HETATM   24  C   UNL     1     -46.117 -52.069  12.706  1.00  0.00     0.002 A 
HETATM   25  C   UNL     1     -44.850 -52.660  12.736  1.00  0.00     0.032 A 
ENDBRANCH  14  15
ENDBRANCH   1  14
TORSDOF 7
ENDMDL
MODEL 2
REMARK VINA RESULT:      -5.9      3.002      6.539
REMARK  7 active torsions:
REMARK  status: ('A' for Active; 'I' for Inactive)
REMARK    1  A    between atoms: O_2  and  C_3 
REMARK    2  A    between atoms: C_6  and  O_7 
REMARK    3  A    between atoms: O_7  and  C_8 
REMARK    4  A    between atoms: C_8  and  C_9 
REMARK    5  A    between atoms: C_9  and  O_10 
REMARK    6  A    between atoms: C_9  and  C_11 
REMARK    7  A    between atoms: C_11  and  N_12 
ROOT
HETATM    1  C   UNL     1     -40.328 -49.904  11.706  1.00  0.00     0.161 C 
ENDROOT
BRANCH   1   2
HETATM    2  C   UNL     1     -40.259 -51.270  12.413  1.00  0.00     0.209 C 
BRANCH   2   3
HETATM    3  O   UNL     1     -41.185 -52.152  11.775  1.00  0.00    -0.349 OA
BRANCH   3   4
HETATM    4  C   UNL     1     -42.027 -52.880  12.560  1.00  0.00     0.069 A 
HETATM    5  C   UNL     1     -43.379 -52.717  12.250  1.00  0.00     0.039 A 
HETATM    6  C   UNL     1     -44.362 -53.442  12.924  1.00  0.00     0.039 A 
HETATM    7  C   UNL     1     -43.995 -54.363  13.902  1.00  0.00     0.068 A 
HETATM    8  C   UNL     1     -42.647 -54.508  14.236  1.00  0.00     0.039 A 
HETATM    9  C   UNL     1     -41.660 -53.774  13.564  1.00  0.00     0.039 A 
BRANCH   7  10
HETATM   10  O   UNL     1     -44.871 -55.152  14.597  1.00  0.00    -0.356 OA
HETATM   11  C   UNL     1     -46.212 -54.668  14.638  1.00  0.00     0.210 C 
ENDBRANCH   7  10
ENDBRANCH   3   4
ENDBRANCH   2   3
ENDBRANCH   1   2
BRANCH   1  12
HETATM   12  O   UNL     1     -40.502 -50.119  10.298  1.00  0.00    -0.392 OA
HETATM   13  H   UNL     1     -40.804 -49.278   9.898  1.00  0.00     0.210 HD
ENDBRANCH   1  12
BRANCH   1  14
HETATM   14  C   UNL     1     -41.453 -49.029  12.291  1.00  0.00     0.168 C 
BRANCH  14  15
HETATM   15  N   UNL     1     -41.560 -47.741  11.649  1.00  0.00    -0.295 N 
HETATM   16  C   UNL     1     -40.614 -46.701  11.789  1.00  0.00     0.329 A 
HETATM   17  O   UNL     1     -39.600 -46.739  12.472  1.00  0.00    -0.246 OA
HETATM   18  N   UNL     1     -41.073 -45.638  10.986  1.00  0.00    -0.302 N 
HETATM   19  C   UNL     1     -40.405 -44.384  10.791  1.00  0.00     0.161 C 
HETATM   20  C   UNL     1     -42.288 -46.009  10.393  1.00  0.00     0.065 A 
HETATM   21  C   UNL     1     -43.110 -45.305   9.538  1.00  0.00     0.032 A 
HETATM   22  C   UNL     1     -42.593 -47.308  10.810  1.00  0.00     0.066 A 
HETATM   23  C   UNL     1     -44.273 -45.945   9.099  1.00  0.00     0.002 A 
HETATM   24  C   UNL     1     -44.584 -47.255   9.523  1.00  0.00     0.002 A 
HETATM   25  C   UNL     1     -43.739 -47.953  10.392  1.00  0.00     0.032 A 
ENDBRANCH  14  15
ENDBRANCH   1  14
TORSDOF 7
ENDMDL
MODEL 3
REMARK VINA RESULT:      -5.9      2.417      4.869
REMARK  7 active torsions:
REMARK  status: ('A' for Active; 'I' for Inactive)
REMARK    1  A    between atoms: O_2  and  C_3 
REMARK    2  A    between atoms: C_6  and  O_7 
REMARK    3  A    between atoms: O_7  and  C_8 
REMARK    4  A    between atoms: C_8  and  C_9 
REMARK    5  A    between atoms: C_9  and  O_10 
REMARK    6  A    between atoms: C_9  and  C_11 
REMARK    7  A    between atoms: C_11  and  N_12 
ROOT
HETATM    1  C   UNL     1     -41.306 -50.557  12.167  1.00  0.00     0.161 C 
ENDROOT
BRANCH   1   2
HETATM    2  C   UNL     1     -42.262 -50.346  13.356  1.00  0.00     0.209 C 
BRANCH   2   3
HETATM    3  O   UNL     1     -43.602 -50.368  12.862  1.00  0.00    -0.349 OA
BRANCH   3   4
HETATM    4  C   UNL     1     -44.587 -50.821  13.689  1.00  0.00     0.069 A 
HETATM    5  C   UNL     1     -44.272 -50.740  15.047  1.00  0.00     0.039 A 
HETATM    6  C   UNL     1     -45.200 -51.107  16.022  1.00  0.00     0.039 A 
HETATM    7  C   UNL     1     -46.469 -51.537  15.642  1.00  0.00     0.068 A 
HETATM    8  C   UNL     1     -46.778 -51.649  14.285  1.00  0.00     0.039 A 
HETATM    9  C   UNL     1     -45.843 -51.285  13.305  1.00  0.00     0.039 A 
BRANCH   7  10
HETATM   10  O   UNL     1     -47.466 -51.886  16.512  1.00  0.00    -0.356 OA
HETATM   11  C   UNL     1     -47.955 -50.820  17.323  1.00  0.00     0.210 C 
ENDBRANCH   7  10
ENDBRANCH   3   4
ENDBRANCH   2   3
ENDBRANCH   1   2
BRANCH   1  12
HETATM   12  O   UNL     1     -40.056 -49.914  12.456  1.00  0.00    -0.392 OA
HETATM   13  H   UNL     1     -40.201 -49.295  13.202  1.00  0.00     0.210 HD
ENDBRANCH   1  12
BRANCH   1  14
HETATM   14  C   UNL     1     -41.118 -52.055  11.861  1.00  0.00     0.168 C 
BRANCH  14  15
HETATM   15  N   UNL     1     -40.937 -52.856  13.048  1.00  0.00    -0.295 N 
HETATM   16  C   UNL     1     -39.727 -52.944  13.773  1.00  0.00     0.329 A 
HETATM   17  O   UNL     1     -38.680 -52.377  13.493  1.00  0.00    -0.246 OA
HETATM   18  N   UNL     1     -39.981 -53.797  14.865  1.00  0.00    -0.302 N 
HETATM   19  C   UNL     1     -39.045 -54.143  15.895  1.00  0.00     0.161 C 
HETATM   20  C   UNL     1     -41.307 -54.245  14.792  1.00  0.00     0.065 A 
HETATM   21  C   UNL     1     -42.004 -55.092  15.627  1.00  0.00     0.032 A 
HETATM   22  C   UNL     1     -41.896 -53.669  13.664  1.00  0.00     0.066 A 
HETATM   23  C   UNL     1     -43.337 -55.358  15.299  1.00  0.00     0.002 A 
HETATM   24  C   UNL     1     -43.931 -54.780  14.156  1.00  0.00     0.002 A 
HETATM   25  C   UNL     1     -43.208 -53.924  13.320  1.00  0.00     0.032 A 
ENDBRANCH  14  15
ENDBRANCH   1  14
TORSDOF 7
ENDMDL
MODEL 4
REMARK VINA RESULT:      -5.8      2.024      4.962
REMARK  7 active torsions:
REMARK  status: ('A' for Active; 'I' for Inactive)
REMARK    1  A    between atoms: O_2  and  C_3 
REMARK    2  A    between atoms: C_6  and  O_7 
REMARK    3  A    between atoms: O_7  and  C_8 
REMARK    4  A    between atoms: C_8  and  C_9 
REMARK    5  A    between atoms: C_9  and  O_10 
REMARK    6  A    between atoms: C_9  and  C_11 
REMARK    7  A    between atoms: C_11  and  N_12 
ROOT
HETATM    1  C   UNL     1     -41.014 -50.958  12.030  1.00  0.00     0.161 C 
ENDROOT
BRANCH   1   2
HETATM    2  C   UNL     1     -41.513 -52.390  11.757  1.00  0.00     0.209 C 
BRANCH   2   3
HETATM    3  O   UNL     1     -40.676 -53.299  12.473  1.00  0.00    -0.349 OA
BRANCH   3   4
HETATM    4  C   UNL     1     -41.172 -53.878  13.603  1.00  0.00     0.069 A 
HETATM    5  C   UNL     1     -42.528 -54.202  13.528  1.00  0.00     0.039 A 
HETATM    6  C   UNL     1     -43.168 -54.856  14.581  1.00  0.00     0.039 A 
HETATM    7  C   UNL     1     -42.444 -55.218  15.714  1.00  0.00     0.068 A 
HETATM    8  C   UNL     1     -41.095 -54.870  15.806  1.00  0.00     0.039 A 
HETATM    9  C   UNL     1     -40.453 -54.206  14.750  1.00  0.00     0.039 A 
BRANCH   7  10
HETATM   10  O   UNL     1     -42.960 -55.893  16.787  1.00  0.00    -0.356 OA
HETATM   11  C   UNL     1     -42.133 -55.896  17.949  1.00  0.00     0.210 C 
ENDBRANCH   7  10
ENDBRANCH   3   4
ENDBRANCH   2   3
ENDBRANCH   1   2
BRANCH   1  12
HETATM   12  O   UNL     1     -40.477 -50.415  10.814  1.00  0.00    -0.392 OA
HETATM   13  H   UNL     1     -40.901 -49.546  10.659  1.00  0.00     0.210 HD
ENDBRANCH   1  12
BRANCH   1  14
HETATM   14  C   UNL     1     -42.139 -50.074  12.600  1.00  0.00     0.168 C 
BRANCH  14  15
HETATM   15  N   UNL     1     -42.691 -50.587  13.831  1.00  0.00    -0.295 N 
HETATM   16  C   UNL     1     -41.954 -50.757  15.024  1.00  0.00     0.329 A 
HETATM   17  O   UNL     1     -40.765 -50.514  15.175  1.00  0.00    -0.246 OA
HETATM   18  N   UNL     1     -42.861 -51.248  15.984  1.00  0.00    -0.302 N 
HETATM   19  C   UNL     1     -42.560 -51.531  17.357  1.00  0.00     0.161 C 
HETATM   20  C   UNL     1     -44.117 -51.404  15.382  1.00  0.00     0.065 A 
HETATM   21  C   UNL     1     -45.307 -51.854  15.915  1.00  0.00     0.032 A 
HETATM   22  C   UNL     1     -44.010 -51.002  14.048  1.00  0.00     0.066 A 
HETATM   23  C   UNL     1     -46.414 -51.897  15.061  1.00  0.00     0.002 A 
HETATM   24  C   UNL     1     -46.305 -51.495  13.712  1.00  0.00     0.002 A 
HETATM   25  C   UNL     1     -45.090 -51.042  13.189  1.00  0.00     0.032 A 
ENDBRANCH  14  15
ENDBRANCH   1  14
TORSDOF 7
ENDMDL
MODEL 5
REMARK VINA RESULT:      -5.8      3.183      4.789
REMARK  7 active torsions:
REMARK  status: ('A' for Active; 'I' for Inactive)
REMARK    1  A    between atoms: O_2  and  C_3 
REMARK    2  A    between atoms: C_6  and  O_7 
REMARK    3  A    between atoms: O_7  and  C_8 
REMARK    4  A    between atoms: C_8  and  C_9 
REMARK    5  A    between atoms: C_9  and  O_10 
REMARK    6  A    between atoms: C_9  and  C_11 
REMARK    7  A    between atoms: C_11  and  N_12 
ROOT
HETATM    1  C   UNL     1     -41.091 -50.738  12.132  1.00  0.00     0.161 C 
ENDROOT
BRANCH   1   2
HETATM    2  C   UNL     1     -39.910 -49.936  11.555  1.00  0.00     0.209 C 
BRANCH   2   3
HETATM    3  O   UNL     1     -38.700 -50.467  12.100  1.00  0.00    -0.349 OA
BRANCH   3   4
HETATM    4  C   UNL     1     -38.135 -49.825  13.160  1.00  0.00     0.069 A 
HETATM    5  C   UNL     1     -38.370 -48.449  13.184  1.00  0.00     0.039 A 
HETATM    6  C   UNL     1     -37.910 -47.660  14.239  1.00  0.00     0.039 A 
HETATM    7  C   UNL     1     -37.227 -48.252  15.299  1.00  0.00     0.068 A 
HETATM    8  C   UNL     1     -36.963 -49.622  15.265  1.00  0.00     0.039 A 
HETATM    9  C   UNL     1     -37.421 -50.414  14.201  1.00  0.00     0.039 A 
BRANCH   7  10
HETATM   10  O   UNL     1     -36.765 -47.582  16.399  1.00  0.00    -0.356 OA
HETATM   11  C   UNL     1     -35.453 -47.951  16.818  1.00  0.00     0.210 C 
ENDBRANCH   7  10
ENDBRANCH   3   4
ENDBRANCH   2   3
ENDBRANCH   1   2
BRANCH   1  12
HETATM   12  O   UNL     1     -42.318 -50.135  11.694  1.00  0.00    -0.392 OA
HETATM   13  H   UNL     1     -42.106 -49.254  11.321  1.00  0.00     0.210 HD
ENDBRANCH   1  12
BRANCH   1  14
HETATM   14  C   UNL     1     -41.010 -52.221  11.727  1.00  0.00     0.168 C 
BRANCH  14  15
HETATM   15  N   UNL     1     -41.281 -53.122  12.821  1.00  0.00    -0.295 N 
HETATM   16  C   UNL     1     -40.300 -53.612  13.711  1.00  0.00     0.329 A 
HETATM   17  O   UNL     1     -39.104 -53.360  13.671  1.00  0.00    -0.246 OA
HETATM   18  N   UNL     1     -40.978 -54.429  14.637  1.00  0.00    -0.302 N 
HETATM   19  C   UNL     1     -40.383 -55.107  15.752  1.00  0.00     0.161 C 
HETATM   20  C   UNL     1     -42.339 -54.462  14.302  1.00  0.00     0.065 A 
HETATM   21  C   UNL     1     -43.386 -55.124  14.908  1.00  0.00     0.032 A 
HETATM   22  C   UNL     1     -42.525 -53.660  13.174  1.00  0.00     0.066 A 
HETATM   23  C   UNL     1     -44.655 -54.963  14.343  1.00  0.00     0.002 A 
HETATM   24  C   UNL     1     -44.843 -54.157  13.200  1.00  0.00     0.002 A 
HETATM   25  C   UNL     1     -43.769 -53.493  12.599  1.00  0.00     0.032 A 
ENDBRANCH  14  15
ENDBRANCH   1  14
TORSDOF 7
ENDMDL
MODEL 6
REMARK VINA RESULT:      -5.8      2.396      5.641
REMARK  7 active torsions:
REMARK  status: ('A' for Active; 'I' for Inactive)
REMARK    1  A    between atoms: O_2  and  C_3 
REMARK    2  A    between atoms: C_6  and  O_7 
REMARK    3  A    between atoms: O_7  and  C_8 
REMARK    4  A    between atoms: C_8  and  C_9 
REMARK    5  A    between atoms: C_9  and  O_10 
REMARK    6  A    between atoms: C_9  and  C_11 
REMARK    7  A    between atoms: C_11  and  N_12 
ROOT
HETATM    1  C   UNL     1     -42.233 -53.707  13.110  1.00  0.00     0.161 C 
ENDROOT
BRANCH   1   2
HETATM    2  C   UNL     1     -43.348 -53.277  12.137  1.00  0.00     0.209 C 
BRANCH   2   3
HETATM    3  O   UNL     1     -44.565 -53.902  12.548  1.00  0.00    -0.349 OA
BRANCH   3   4
HETATM    4  C   UNL     1     -45.393 -53.215  13.383  1.00  0.00     0.069 A 
HETATM    5  C   UNL     1     -45.574 -53.817  14.629  1.00  0.00     0.039 A 
HETATM    6  C   UNL     1     -46.345 -53.205  15.618  1.00  0.00     0.039 A 
HETATM    7  C   UNL     1     -46.924 -51.961  15.373  1.00  0.00     0.068 A 
HETATM    8  C   UNL     1     -46.771 -51.369  14.118  1.00  0.00     0.039 A 
HETATM    9  C   UNL     1     -46.001 -51.988  13.122  1.00  0.00     0.039 A 
BRANCH   7  10
HETATM   10  O   UNL     1     -47.666 -51.255  16.280  1.00  0.00    -0.356 OA
HETATM   11  C   UNL     1     -47.504 -51.665  17.636  1.00  0.00     0.210 C 
ENDBRANCH   7  10
ENDBRANCH   3   4
ENDBRANCH   2   3
ENDBRANCH   1   2
BRANCH   1  12
HETATM   12  O   UNL     1     -41.145 -54.257  12.352  1.00  0.00    -0.392 OA
HETATM   13  H   UNL     1     -40.794 -55.028  12.843  1.00  0.00     0.210 HD
ENDBRANCH   1  12
BRANCH   1  14
HETATM   14  C   UNL     1     -41.776 -52.529  13.991  1.00  0.00     0.168 C 
BRANCH  14  15
HETATM   15  N   UNL     1     -41.057 -51.518  13.254  1.00  0.00    -0.295 N 
HETATM   16  C   UNL     1     -39.676 -51.577  12.961  1.00  0.00     0.329 A 
HETATM   17  O   UNL     1     -38.908 -52.468  13.296  1.00  0.00    -0.246 OA
HETATM   18  N   UNL     1     -39.381 -50.422  12.211  1.00  0.00    -0.302 N 
HETATM   19  C   UNL     1     -38.101 -50.083  11.660  1.00  0.00     0.161 C 
HETATM   20  C   UNL     1     -40.548 -49.658  12.076  1.00  0.00     0.065 A 
HETATM   21  C   UNL     1     -40.752 -48.454  11.434  1.00  0.00     0.032 A 
HETATM   22  C   UNL     1     -41.584 -50.332  12.728  1.00  0.00     0.066 A 
HETATM   23  C   UNL     1     -42.046 -47.926  11.463  1.00  0.00     0.002 A 
HETATM   24  C   UNL     1     -43.092 -48.605  12.126  1.00  0.00     0.002 A 
HETATM   25  C   UNL     1     -42.866 -49.824  12.772  1.00  0.00     0.032 A 
ENDBRANCH  14  15
ENDBRANCH   1  14
TORSDOF 7
ENDMDL
MODEL 7
REMARK VINA RESULT:      -5.8      2.820      4.776
REMARK  7 active torsions:
REMARK  status: ('A' for Active; 'I' for Inactive)
REMARK    1  A    between atoms: O_2  and  C_3 
REMARK    2  A    between atoms: C_6  and  O_7 
REMARK    3  A    between atoms: O_7  and  C_8 
REMARK    4  A    between atoms: C_8  and  C_9 
REMARK    5  A    between atoms: C_9  and  O_10 
REMARK    6  A    between atoms: C_9  and  C_11 
REMARK    7  A    between atoms: C_11  and  N_12 
ROOT
HETATM    1  C   UNL     1     -46.811 -53.392  14.068  1.00  0.00     0.161 C 
ENDROOT
BRANCH   1   2
HETATM    2  C   UNL     1     -45.826 -53.042  12.937  1.00  0.00     0.209 C 
BRANCH   2   3
HETATM    3  O   UNL     1     -44.907 -54.126  12.793  1.00  0.00    -0.349 OA
BRANCH   3   4
HETATM    4  C   UNL     1     -43.573 -53.856  12.878  1.00  0.00     0.069 A 
HETATM    5  C   UNL     1     -43.178 -52.715  12.178  1.00  0.00     0.039 A 
HETATM    6  C   UNL     1     -41.856 -52.271  12.218  1.00  0.00     0.039 A 
HETATM    7  C   UNL     1     -40.918 -52.957  12.986  1.00  0.00     0.068 A 
HETATM    8  C   UNL     1     -41.302 -54.116  13.663  1.00  0.00     0.039 A 
HETATM    9  C   UNL     1     -42.629 -54.566  13.618  1.00  0.00     0.039 A 
BRANCH   7  10
HETATM   10  O   UNL     1     -39.607 -52.590  13.126  1.00  0.00    -0.356 OA
HETATM   11  C   UNL     1     -39.342 -51.209  12.891  1.00  0.00     0.210 C 
ENDBRANCH   7  10
ENDBRANCH   3   4
ENDBRANCH   2   3
ENDBRANCH   1   2
BRANCH   1  12
HETATM   12  O   UNL     1     -46.674 -54.785  14.388  1.00  0.00    -0.392 OA
HETATM   13  H   UNL     1     -47.548 -55.210  14.270  1.00  0.00     0.210 HD
ENDBRANCH   1  12
BRANCH   1  14
HETATM   14  C   UNL     1     -46.584 -52.499  15.303  1.00  0.00     0.168 C 
BRANCH  14  15
HETATM   15  N   UNL     1     -45.236 -52.574  15.813  1.00  0.00    -0.295 N 
HETATM   16  C   UNL     1     -44.751 -53.620  16.629  1.00  0.00     0.329 A 
HETATM   17  O   UNL     1     -45.394 -54.583  17.022  1.00  0.00    -0.246 OA
HETATM   18  N   UNL     1     -43.395 -53.328  16.881  1.00  0.00    -0.302 N 
HETATM   19  C   UNL     1     -42.489 -54.142  17.637  1.00  0.00     0.161 C 
HETATM   20  C   UNL     1     -43.069 -52.115  16.260  1.00  0.00     0.065 A 
HETATM   21  C   UNL     1     -41.874 -51.427  16.230  1.00  0.00     0.032 A 
HETATM   22  C   UNL     1     -44.210 -51.644  15.606  1.00  0.00     0.066 A 
HETATM   23  C   UNL     1     -41.847 -50.226  15.514  1.00  0.00     0.002 A 
HETATM   24  C   UNL     1     -43.001 -49.748  14.857  1.00  0.00     0.002 A 
HETATM   25  C   UNL     1     -44.204 -50.459  14.899  1.00  0.00     0.032 A 
ENDBRANCH  14  15
ENDBRANCH   1  14
TORSDOF 7
ENDMDL
MODEL 8
REMARK VINA RESULT:      -5.8      2.726      3.662
REMARK  7 active torsions:
REMARK  status: ('A' for Active; 'I' for Inactive)
REMARK    1  A    between atoms: O_2  and  C_3 
REMARK    2  A    between atoms: C_6  and  O_7 
REMARK    3  A    between atoms: O_7  and  C_8 
REMARK    4  A    between atoms: C_8  and  C_9 
REMARK    5  A    between atoms: C_9  and  O_10 
REMARK    6  A    between atoms: C_9  and  C_11 
REMARK    7  A    between atoms: C_11  and  N_12 
ROOT
HETATM    1  C   UNL     1     -41.273 -50.624  12.101  1.00  0.00     0.161 C 
ENDROOT
BRANCH   1   2
HETATM    2  C   UNL     1     -40.302 -49.703  11.337  1.00  0.00     0.209 C 
BRANCH   2   3
HETATM    3  O   UNL     1     -39.936 -48.625  12.201  1.00  0.00    -0.349 OA
BRANCH   3   4
HETATM    4  C   UNL     1     -40.210 -47.353  11.796  1.00  0.00     0.069 A 
HETATM    5  C   UNL     1     -39.554 -46.366  12.534  1.00  0.00     0.039 A 
HETATM    6  C   UNL     1     -39.682 -45.017  12.202  1.00  0.00     0.039 A 
HETATM    7  C   UNL     1     -40.454 -44.645  11.104  1.00  0.00     0.068 A 
HETATM    8  C   UNL     1     -41.136 -45.626  10.381  1.00  0.00     0.039 A 
HETATM    9  C   UNL     1     -41.012 -46.981  10.719  1.00  0.00     0.039 A 
BRANCH   7  10
HETATM   10  O   UNL     1     -40.619 -43.359  10.668  1.00  0.00    -0.356 OA
HETATM   11  C   UNL     1     -41.515 -42.571  11.449  1.00  0.00     0.210 C 
ENDBRANCH   7  10
ENDBRANCH   3   4
ENDBRANCH   2   3
ENDBRANCH   1   2
BRANCH   1  12
HETATM   12  O   UNL     1     -42.616 -50.178  11.865  1.00  0.00    -0.392 OA
HETATM   13  H   UNL     1     -43.218 -50.933  12.029  1.00  0.00     0.210 HD
ENDBRANCH   1  12
BRANCH   1  14
HETATM   14  C   UNL     1     -41.082 -52.097  11.692  1.00  0.00     0.168 C 
BRANCH  14  15
HETATM   15  N   UNL     1     -41.285 -53.017  12.785  1.00  0.00    -0.295 N 
HETATM   16  C   UNL     1     -40.260 -53.469  13.647  1.00  0.00     0.329 A 
HETATM   17  O   UNL     1     -39.079 -53.161  13.581  1.00  0.00    -0.246 OA
HETATM   18  N   UNL     1     -40.878 -54.323  14.582  1.00  0.00    -0.302 N 
HETATM   19  C   UNL     1     -40.225 -54.981  15.676  1.00  0.00     0.161 C 
HETATM   20  C   UNL     1     -42.243 -54.416  14.279  1.00  0.00     0.065 A 
HETATM   21  C   UNL     1     -43.244 -55.131  14.903  1.00  0.00     0.032 A 
HETATM   22  C   UNL     1     -42.494 -53.614  13.162  1.00  0.00     0.066 A 
HETATM   23  C   UNL     1     -44.532 -55.024  14.371  1.00  0.00     0.002 A 
HETATM   24  C   UNL     1     -44.785 -54.218  13.240  1.00  0.00     0.002 A 
HETATM   25  C   UNL     1     -43.757 -53.501  12.619  1.00  0.00     0.032 A 
ENDBRANCH  14  15
ENDBRANCH   1  14
TORSDOF 7
ENDMDL
MODEL 9
REMARK VINA RESULT:      -5.7      2.582      4.969
REMARK  7 active torsions:
REMARK  status: ('A' for Active; 'I' for Inactive)
REMARK    1  A    between atoms: O_2  and  C_3 
REMARK    2  A    between atoms: C_6  and  O_7 
REMARK    3  A    between atoms: O_7  and  C_8 
REMARK    4  A    between atoms: C_8  and  C_9 
REMARK    5  A    between atoms: C_9  and  O_10 
REMARK    6  A    between atoms: C_9  and  C_11 
REMARK    7  A    between atoms: C_11  and  N_12 
ROOT
HETATM    1  C   UNL     1     -39.130 -53.848  14.779  1.00  0.00     0.161 C 
ENDROOT
BRANCH   1   2
HETATM    2  C   UNL     1     -40.435 -54.427  15.356  1.00  0.00     0.209 C 
BRANCH   2   3
HETATM    3  O   UNL     1     -41.230 -54.906  14.270  1.00  0.00    -0.349 OA
BRANCH   3   4
HETATM    4  C   UNL     1     -42.489 -54.403  14.122  1.00  0.00     0.069 A 
HETATM    5  C   UNL     1     -42.708 -53.767  12.898  1.00  0.00     0.039 A 
HETATM    6  C   UNL     1     -43.963 -53.255  12.570  1.00  0.00     0.039 A 
HETATM    7  C   UNL     1     -45.024 -53.399  13.461  1.00  0.00     0.068 A 
HETATM    8  C   UNL     1     -44.802 -54.006  14.699  1.00  0.00     0.039 A 
HETATM    9  C   UNL     1     -43.538 -54.516  15.031  1.00  0.00     0.039 A 
BRANCH   7  10
HETATM   10  O   UNL     1     -46.301 -52.968  13.228  1.00  0.00    -0.356 OA
HETATM   11  C   UNL     1     -46.413 -51.597  12.853  1.00  0.00     0.210 C 
ENDBRANCH   7  10
ENDBRANCH   3   4
ENDBRANCH   2   3
ENDBRANCH   1   2
BRANCH   1  12
HETATM   12  O   UNL     1     -39.088 -54.114  13.370  1.00  0.00    -0.392 OA
HETATM   13  H   UNL     1     -39.852 -53.665  12.955  1.00  0.00     0.210 HD
ENDBRANCH   1  12
BRANCH   1  14
HETATM   14  C   UNL     1     -39.007 -52.342  15.079  1.00  0.00     0.168 C 
BRANCH  14  15
HETATM   15  N   UNL     1     -39.800 -51.524  14.193  1.00  0.00    -0.295 N 
HETATM   16  C   UNL     1     -39.376 -51.091  12.916  1.00  0.00     0.329 A 
HETATM   17  O   UNL     1     -38.295 -51.333  12.398  1.00  0.00    -0.246 OA
HETATM   18  N   UNL     1     -40.444 -50.348  12.376  1.00  0.00    -0.302 N 
HETATM   19  C   UNL     1     -40.474 -49.747  11.074  1.00  0.00     0.161 C 
HETATM   20  C   UNL     1     -41.484 -50.300  13.314  1.00  0.00     0.065 A 
HETATM   21  C   UNL     1     -42.719 -49.690  13.240  1.00  0.00     0.032 A 
HETATM   22  C   UNL     1     -41.083 -51.021  14.441  1.00  0.00     0.066 A 
HETATM   23  C   UNL     1     -43.562 -49.818  14.347  1.00  0.00     0.002 A 
HETATM   24  C   UNL     1     -43.155 -50.543  15.488  1.00  0.00     0.002 A 
HETATM   25  C   UNL     1     -41.899 -51.154  15.546  1.00  0.00     0.032 A 
ENDBRANCH  14  15
ENDBRANCH   1  14
TORSDOF 7
ENDMDL
