MODEL 1
REMARK VINA RESULT:      -6.0      0.000      0.000
REMARK  4 active torsions:
REMARK  status: ('A' for Active; 'I' for Inactive)
REMARK    1  A    between atoms: C_2  and  C_3 
REMARK    2  A    between atoms: C_3  and  N_5 
REMARK       I    between atoms: N_5  and  C_6 
REMARK       I    between atoms: C_6  and  N_8 
REMARK    3  A    between atoms: N_8  and  C_9 
REMARK    4  A    between atoms: C_15  and  N_16 
ROOT
HETATM    1  C   UNL     1     -41.695 -48.173  11.031  1.00  0.00     0.060 A 
HETATM    2  C   UNL     1     -40.466 -47.873  11.644  1.00  0.00     0.029 A 
HETATM    3  C   UNL     1     -39.829 -46.674  11.375  1.00  0.00     0.019 A 
HETATM    4  C   UNL     1     -40.419 -45.832  10.463  1.00  0.00     0.090 A 
HETATM    5  N   UNL     1     -41.572 -46.113   9.821  1.00  0.00    -0.351 N 
ATOM      6  HN  UNL     1     -41.943 -45.458   9.132  1.00  0.00     0.166 HD
HETATM    7  C   UNL     1     -42.242 -47.268  10.091  1.00  0.00     0.125 A 
ENDROOT
BRANCH   1   8
HETATM    8  N   UNL     1     -42.280 -49.426  11.373  1.00  0.00    -0.207 NA
HETATM    9  C   UNL     1     -43.027 -49.506  12.543  1.00  0.00     0.299 C 
HETATM   10  N   UNL     1     -43.437 -50.809  12.759  1.00  0.00    -0.343 N 
HETATM   11  O   UNL     1     -43.274 -48.581  13.304  1.00  0.00    -0.254 OA
HETATM   12  H   UNL     1     -43.548 -51.359  11.919  1.00  0.00     0.164 HD
HETATM   13  H   UNL     1     -41.606 -50.180  11.398  1.00  0.00     0.138 HD
BRANCH  10  14
HETATM   14  C   UNL     1     -44.296 -51.148  13.891  1.00  0.00     0.081 C 
HETATM   15  C   UNL     1     -43.685 -52.290  14.701  1.00  0.00     0.032 C 
BRANCH  14  16
HETATM   16  C   UNL     1     -45.741 -51.445  13.448  1.00  0.00     0.020 C 
HETATM   17  C   UNL     1     -46.775 -51.426  14.567  1.00  0.00     0.007 C 
ENDBRANCH  14  16
ENDBRANCH  10  14
ENDBRANCH   1   8
BRANCH   7  18
HETATM   18  N   UNL     1     -43.399 -47.448   9.380  1.00  0.00    -0.366 N 
HETATM   19  C   UNL     1     -43.550 -47.795   7.983  1.00  0.00     0.124 C 
HETATM   20  C   UNL     1     -45.036 -48.138   7.824  1.00  0.00     0.021 C 
HETATM   21  C   UNL     1     -45.653 -47.978   9.206  1.00  0.00     0.021 C 
HETATM   22  C   UNL     1     -44.684 -47.081   9.959  1.00  0.00     0.124 C 
ENDBRANCH   7  18
TORSDOF 4
ENDMDL
MODEL 2
REMARK VINA RESULT:      -5.9      2.590      5.660
REMARK  4 active torsions:
REMARK  status: ('A' for Active; 'I' for Inactive)
REMARK    1  A    between atoms: C_2  and  C_3 
REMARK    2  A    between atoms: C_3  and  N_5 
REMARK       I    between atoms: N_5  and  C_6 
REMARK       I    between atoms: C_6  and  N_8 
REMARK    3  A    between atoms: N_8  and  C_9 
REMARK    4  A    between atoms: C_15  and  N_16 
ROOT
HETATM    1  C   UNL     1     -39.567 -50.299  11.586  1.00  0.00     0.060 A 
HETATM    2  C   UNL     1     -38.235 -49.860  11.492  1.00  0.00     0.029 A 
HETATM    3  C   UNL     1     -37.303 -50.259  12.434  1.00  0.00     0.019 A 
HETATM    4  C   UNL     1     -37.744 -51.047  13.469  1.00  0.00     0.090 A 
HETATM    5  N   UNL     1     -39.025 -51.445  13.615  1.00  0.00    -0.351 N 
ATOM      6  HN  UNL     1     -39.295 -52.006  14.423  1.00  0.00     0.166 HD
HETATM    7  C   UNL     1     -39.959 -51.099  12.685  1.00  0.00     0.125 A 
ENDROOT
BRANCH   1   8
HETATM    8  N   UNL     1     -40.454 -49.844  10.568  1.00  0.00    -0.207 NA
HETATM    9  C   UNL     1     -41.210 -48.704  10.815  1.00  0.00     0.299 C 
HETATM   10  N   UNL     1     -42.073 -48.466   9.760  1.00  0.00    -0.343 N 
HETATM   11  O   UNL     1     -41.162 -48.012  11.822  1.00  0.00    -0.254 OA
HETATM   12  H   UNL     1     -41.748 -48.808   8.867  1.00  0.00     0.164 HD
HETATM   13  H   UNL     1     -41.092 -50.562  10.255  1.00  0.00     0.138 HD
BRANCH  10  14
HETATM   14  C   UNL     1     -42.933 -47.286   9.746  1.00  0.00     0.081 C 
HETATM   15  C   UNL     1     -44.110 -47.471  10.702  1.00  0.00     0.032 C 
BRANCH  14  16
HETATM   16  C   UNL     1     -43.384 -46.921   8.319  1.00  0.00     0.020 C 
HETATM   17  C   UNL     1     -43.409 -48.084   7.335  1.00  0.00     0.007 C 
ENDBRANCH  14  16
ENDBRANCH  10  14
ENDBRANCH   1   8
BRANCH   7  18
HETATM   18  N   UNL     1     -41.225 -51.557  12.936  1.00  0.00    -0.366 N 
HETATM   19  C   UNL     1     -42.280 -50.917  13.692  1.00  0.00     0.124 C 
HETATM   20  C   UNL     1     -43.535 -51.744  13.392  1.00  0.00     0.021 C 
HETATM   21  C   UNL     1     -43.096 -52.835  12.425  1.00  0.00     0.021 C 
HETATM   22  C   UNL     1     -41.590 -52.929  12.609  1.00  0.00     0.124 C 
ENDBRANCH   7  18
TORSDOF 4
ENDMDL
MODEL 3
REMARK VINA RESULT:      -5.9      3.071      4.098
REMARK  4 active torsions:
REMARK  status: ('A' for Active; 'I' for Inactive)
REMARK    1  A    between atoms: C_2  and  C_3 
REMARK    2  A    between atoms: C_3  and  N_5 
REMARK       I    between atoms: N_5  and  C_6 
REMARK       I    between atoms: C_6  and  N_8 
REMARK    3  A    between atoms: N_8  and  C_9 
REMARK    4  A    between atoms: C_15  and  N_16 
ROOT
HETATM    1  C   UNL     1     -40.871 -45.335  10.821  1.00  0.00     0.060 A 
HETATM    2  C   UNL     1     -40.071 -44.259  11.244  1.00  0.00     0.029 A 
HETATM    3  C   UNL     1     -40.651 -43.039  11.547  1.00  0.00     0.019 A 
HETATM    4  C   UNL     1     -42.008 -42.920  11.371  1.00  0.00     0.090 A 
HETATM    5  N   UNL     1     -42.796 -43.919  10.920  1.00  0.00    -0.351 N 
ATOM      6  HN  UNL     1     -43.793 -43.757  10.782  1.00  0.00     0.166 HD
HETATM    7  C   UNL     1     -42.261 -45.142  10.648  1.00  0.00     0.125 A 
ENDROOT
BRANCH   1   8
HETATM    8  N   UNL     1     -40.188 -46.554  10.539  1.00  0.00    -0.207 NA
HETATM    9  C   UNL     1     -39.946 -47.430  11.590  1.00  0.00     0.299 C 
HETATM   10  N   UNL     1     -39.200 -48.509  11.149  1.00  0.00    -0.343 N 
HETATM   11  O   UNL     1     -40.302 -47.280  12.749  1.00  0.00    -0.254 OA
HETATM   12  H   UNL     1     -39.327 -48.737  10.173  1.00  0.00     0.164 HD
HETATM   13  H   UNL     1     -39.308 -46.409  10.063  1.00  0.00     0.138 HD
BRANCH  10  14
HETATM   14  C   UNL     1     -38.866 -49.609  12.050  1.00  0.00     0.081 C 
HETATM   15  C   UNL     1     -37.502 -50.196  11.693  1.00  0.00     0.032 C 
BRANCH  14  16
HETATM   16  C   UNL     1     -39.976 -50.677  12.088  1.00  0.00     0.020 C 
HETATM   17  C   UNL     1     -39.845 -51.703  13.207  1.00  0.00     0.007 C 
ENDBRANCH  14  16
ENDBRANCH  10  14
ENDBRANCH   1   8
BRANCH   7  18
HETATM   18  N   UNL     1     -43.154 -46.077  10.195  1.00  0.00    -0.366 N 
HETATM   19  C   UNL     1     -43.578 -47.301  10.842  1.00  0.00     0.124 C 
HETATM   20  C   UNL     1     -44.779 -47.781  10.020  1.00  0.00     0.021 C 
HETATM   21  C   UNL     1     -44.980 -46.742   8.925  1.00  0.00     0.021 C 
HETATM   22  C   UNL     1     -43.644 -46.025   8.825  1.00  0.00     0.124 C 
ENDBRANCH   7  18
TORSDOF 4
ENDMDL
MODEL 4
REMARK VINA RESULT:      -5.7      2.522      4.631
REMARK  4 active torsions:
REMARK  status: ('A' for Active; 'I' for Inactive)
REMARK    1  A    between atoms: C_2  and  C_3 
REMARK    2  A    between atoms: C_3  and  N_5 
REMARK       I    between atoms: N_5  and  C_6 
REMARK       I    between atoms: C_6  and  N_8 
REMARK    3  A    between atoms: N_8  and  C_9 
REMARK    4  A    between atoms: C_15  and  N_16 
ROOT
HETATM    1  C   UNL     1     -40.991 -48.830  11.117  1.00  0.00     0.060 A 
HETATM    2  C   UNL     1     -41.927 -47.955  10.538  1.00  0.00     0.029 A 
HETATM    3  C   UNL     1     -41.689 -46.592  10.524  1.00  0.00     0.019 A 
HETATM    4  C   UNL     1     -40.542 -46.141  11.132  1.00  0.00     0.090 A 
HETATM    5  N   UNL     1     -39.648 -46.950  11.738  1.00  0.00    -0.351 N 
ATOM      6  HN  UNL     1     -38.830 -46.550  12.197  1.00  0.00     0.166 HD
HETATM    7  C   UNL     1     -39.836 -48.299  11.737  1.00  0.00     0.125 A 
ENDROOT
BRANCH   1   8
HETATM    8  N   UNL     1     -41.317 -50.216  11.078  1.00  0.00    -0.207 NA
HETATM    9  C   UNL     1     -41.972 -50.768  12.173  1.00  0.00     0.299 C 
HETATM   10  N   UNL     1     -42.125 -52.132  11.999  1.00  0.00    -0.343 N 
HETATM   11  O   UNL     1     -42.344 -50.165  13.169  1.00  0.00    -0.254 OA
HETATM   12  H   UNL     1     -42.177 -52.429  11.036  1.00  0.00     0.164 HD
HETATM   13  H   UNL     1     -40.516 -50.802  10.885  1.00  0.00     0.138 HD
BRANCH  10  14
HETATM   14  C   UNL     1     -42.845 -52.938  12.982  1.00  0.00     0.081 C 
HETATM   15  C   UNL     1     -41.987 -54.117  13.437  1.00  0.00     0.032 C 
BRANCH  14  16
HETATM   16  C   UNL     1     -44.226 -53.379  12.463  1.00  0.00     0.020 C 
HETATM   17  C   UNL     1     -44.910 -54.460  13.291  1.00  0.00     0.007 C 
ENDBRANCH  14  16
ENDBRANCH  10  14
ENDBRANCH   1   8
BRANCH   7  18
HETATM   18  N   UNL     1     -38.866 -49.020  12.382  1.00  0.00    -0.366 N 
HETATM   19  C   UNL     1     -38.594 -49.093  13.802  1.00  0.00     0.124 C 
HETATM   20  C   UNL     1     -37.607 -50.255  13.953  1.00  0.00     0.021 C 
HETATM   21  C   UNL     1     -37.390 -50.806  12.550  1.00  0.00     0.021 C 
HETATM   22  C   UNL     1     -37.808 -49.675  11.624  1.00  0.00     0.124 C 
ENDBRANCH   7  18
TORSDOF 4
ENDMDL
MODEL 5
REMARK VINA RESULT:      -5.7      2.048      6.390
REMARK  4 active torsions:
REMARK  status: ('A' for Active; 'I' for Inactive)
REMARK    1  A    between atoms: C_2  and  C_3 
REMARK    2  A    between atoms: C_3  and  N_5 
REMARK       I    between atoms: N_5  and  C_6 
REMARK       I    between atoms: C_6  and  N_8 
REMARK    3  A    between atoms: N_8  and  C_9 
REMARK    4  A    between atoms: C_15  and  N_16 
ROOT
HETATM    1  C   UNL     1     -42.137 -52.612  12.939  1.00  0.00     0.060 A 
HETATM    2  C   UNL     1     -40.854 -53.154  13.132  1.00  0.00     0.029 A 
HETATM    3  C   UNL     1     -40.661 -54.176  14.045  1.00  0.00     0.019 A 
HETATM    4  C   UNL     1     -41.750 -54.593  14.770  1.00  0.00     0.090 A 
HETATM    5  N   UNL     1     -42.984 -54.061  14.644  1.00  0.00    -0.351 N 
ATOM      6  HN  UNL     1     -43.745 -54.395  15.234  1.00  0.00     0.166 HD
HETATM    7  C   UNL     1     -43.214 -53.078  13.729  1.00  0.00     0.125 A 
ENDROOT
BRANCH   1   8
HETATM    8  N   UNL     1     -42.241 -51.569  11.974  1.00  0.00    -0.207 NA
HETATM    9  C   UNL     1     -42.142 -50.254  12.414  1.00  0.00     0.299 C 
HETATM   10  N   UNL     1     -42.356 -49.382  11.362  1.00  0.00    -0.343 N 
HETATM   11  O   UNL     1     -41.928 -49.893  13.562  1.00  0.00    -0.254 OA
HETATM   12  H   UNL     1     -42.106 -49.749  10.455  1.00  0.00     0.164 HD
HETATM   13  H   UNL     1     -43.082 -51.633  11.417  1.00  0.00     0.138 HD
BRANCH  10  14
HETATM   14  C   UNL     1     -42.241 -47.938  11.549  1.00  0.00     0.081 C 
HETATM   15  C   UNL     1     -43.459 -47.225  10.966  1.00  0.00     0.032 C 
BRANCH  14  16
HETATM   16  C   UNL     1     -40.914 -47.391  10.990  1.00  0.00     0.020 C 
HETATM   17  C   UNL     1     -39.723 -47.501  11.935  1.00  0.00     0.007 C 
ENDBRANCH  14  16
ENDBRANCH  10  14
ENDBRANCH   1   8
BRANCH   7  18
HETATM   18  N   UNL     1     -44.501 -52.613  13.688  1.00  0.00    -0.366 N 
HETATM   19  C   UNL     1     -45.189 -51.785  14.656  1.00  0.00     0.124 C 
HETATM   20  C   UNL     1     -46.480 -51.352  13.954  1.00  0.00     0.021 C 
HETATM   21  C   UNL     1     -46.429 -51.971  12.564  1.00  0.00     0.021 C 
HETATM   22  C   UNL     1     -45.434 -53.113  12.688  1.00  0.00     0.124 C 
ENDBRANCH   7  18
TORSDOF 4
ENDMDL
MODEL 6
REMARK VINA RESULT:      -5.5      2.980      7.710
REMARK  4 active torsions:
REMARK  status: ('A' for Active; 'I' for Inactive)
REMARK    1  A    between atoms: C_2  and  C_3 
REMARK    2  A    between atoms: C_3  and  N_5 
REMARK       I    between atoms: N_5  and  C_6 
REMARK       I    between atoms: C_6  and  N_8 
REMARK    3  A    between atoms: N_8  and  C_9 
REMARK    4  A    between atoms: C_15  and  N_16 
ROOT
HETATM    1  C   UNL     1     -43.022 -53.229  12.804  1.00  0.00     0.060 A 
HETATM    2  C   UNL     1     -44.360 -53.505  12.471  1.00  0.00     0.029 A 
HETATM    3  C   UNL     1     -45.103 -54.378  13.246  1.00  0.00     0.019 A 
HETATM    4  C   UNL     1     -44.470 -54.984  14.304  1.00  0.00     0.090 A 
HETATM    5  N   UNL     1     -43.174 -54.778  14.621  1.00  0.00    -0.351 N 
ATOM      6  HN  UNL     1     -42.755 -55.281  15.402  1.00  0.00     0.166 HD
HETATM    7  C   UNL     1     -42.426 -53.897  13.899  1.00  0.00     0.125 A 
ENDROOT
BRANCH   1   8
HETATM    8  N   UNL     1     -42.338 -52.313  11.954  1.00  0.00    -0.207 NA
HETATM    9  C   UNL     1     -42.222 -50.991  12.368  1.00  0.00     0.299 C 
HETATM   10  N   UNL     1     -41.613 -50.234  11.383  1.00  0.00    -0.343 N 
HETATM   11  O   UNL     1     -42.619 -50.532  13.430  1.00  0.00    -0.254 OA
HETATM   12  H   UNL     1     -40.983 -50.750  10.787  1.00  0.00     0.164 HD
HETATM   13  H   UNL     1     -42.710 -52.298  11.013  1.00  0.00     0.138 HD
BRANCH  10  14
HETATM   14  C   UNL     1     -41.314 -48.820  11.600  1.00  0.00     0.081 C 
HETATM   15  C   UNL     1     -41.698 -47.999  10.371  1.00  0.00     0.032 C 
BRANCH  14  16
HETATM   16  C   UNL     1     -39.849 -48.602  12.023  1.00  0.00     0.020 C 
HETATM   17  C   UNL     1     -38.879 -49.684  11.565  1.00  0.00     0.007 C 
ENDBRANCH  14  16
ENDBRANCH  10  14
ENDBRANCH   1   8
BRANCH   7  18
HETATM   18  N   UNL     1     -41.126 -53.768  14.309  1.00  0.00    -0.366 N 
HETATM   19  C   UNL     1     -40.583 -52.873  15.309  1.00  0.00     0.124 C 
HETATM   20  C   UNL     1     -39.152 -53.370  15.543  1.00  0.00     0.021 C 
HETATM   21  C   UNL     1     -38.975 -54.580  14.637  1.00  0.00     0.021 C 
HETATM   22  C   UNL     1     -40.054 -54.428  13.577  1.00  0.00     0.124 C 
ENDBRANCH   7  18
TORSDOF 4
ENDMDL
MODEL 7
REMARK VINA RESULT:      -5.4      2.245      3.090
REMARK  4 active torsions:
REMARK  status: ('A' for Active; 'I' for Inactive)
REMARK    1  A    between atoms: C_2  and  C_3 
REMARK    2  A    between atoms: C_3  and  N_5 
REMARK       I    between atoms: N_5  and  C_6 
REMARK       I    between atoms: C_6  and  N_8 
REMARK    3  A    between atoms: N_8  and  C_9 
REMARK    4  A    between atoms: C_15  and  N_16 
ROOT
HETATM    1  C   UNL     1     -40.450 -50.450  12.013  1.00  0.00     0.060 A 
HETATM    2  C   UNL     1     -39.321 -51.223  12.337  1.00  0.00     0.029 A 
HETATM    3  C   UNL     1     -38.110 -50.608  12.601  1.00  0.00     0.019 A 
HETATM    4  C   UNL     1     -38.055 -49.240  12.486  1.00  0.00     0.090 A 
HETATM    5  N   UNL     1     -39.107 -48.474  12.130  1.00  0.00    -0.351 N 
ATOM      6  HN  UNL     1     -38.993 -47.465  12.034  1.00  0.00     0.166 HD
HETATM    7  C   UNL     1     -40.322 -49.046  11.899  1.00  0.00     0.125 A 
ENDROOT
BRANCH   1   8
HETATM    8  N   UNL     1     -41.655 -51.169  11.764  1.00  0.00    -0.207 NA
HETATM    9  C   UNL     1     -42.520 -51.391  12.829  1.00  0.00     0.299 C 
HETATM   10  N   UNL     1     -43.585 -52.176  12.424  1.00  0.00    -0.343 N 
HETATM   11  O   UNL     1     -42.372 -50.988  13.974  1.00  0.00    -0.254 OA
HETATM   12  H   UNL     1     -43.821 -52.090  11.446  1.00  0.00     0.164 HD
HETATM   13  H   UNL     1     -41.494 -52.063  11.321  1.00  0.00     0.138 HD
BRANCH  10  14
HETATM   14  C   UNL     1     -44.673 -52.500  13.343  1.00  0.00     0.081 C 
HETATM   15  C   UNL     1     -45.102 -53.955  13.171  1.00  0.00     0.032 C 
BRANCH  14  16
HETATM   16  C   UNL     1     -45.851 -51.516  13.207  1.00  0.00     0.020 C 
HETATM   17  C   UNL     1     -46.804 -51.810  12.055  1.00  0.00     0.007 C 
ENDBRANCH  14  16
ENDBRANCH  10  14
ENDBRANCH   1   8
BRANCH   7  18
HETATM   18  N   UNL     1     -41.316 -48.173  11.544  1.00  0.00    -0.366 N 
HETATM   19  C   UNL     1     -41.978 -48.038  10.264  1.00  0.00     0.124 C 
HETATM   20  C   UNL     1     -43.176 -47.121  10.537  1.00  0.00     0.021 C 
HETATM   21  C   UNL     1     -43.126 -46.800  12.025  1.00  0.00     0.021 C 
HETATM   22  C   UNL     1     -41.688 -47.080  12.431  1.00  0.00     0.124 C 
ENDBRANCH   7  18
TORSDOF 4
ENDMDL
MODEL 8
REMARK VINA RESULT:      -5.3      2.635      6.306
REMARK  4 active torsions:
REMARK  status: ('A' for Active; 'I' for Inactive)
REMARK    1  A    between atoms: C_2  and  C_3 
REMARK    2  A    between atoms: C_3  and  N_5 
REMARK       I    between atoms: N_5  and  C_6 
REMARK       I    between atoms: C_6  and  N_8 
REMARK    3  A    between atoms: N_8  and  C_9 
REMARK    4  A    between atoms: C_15  and  N_16 
ROOT
HETATM    1  C   UNL     1     -43.327 -46.190   9.854  1.00  0.00     0.060 A 
HETATM    2  C   UNL     1     -44.293 -45.626   9.003  1.00  0.00     0.029 A 
HETATM    3  C   UNL     1     -45.486 -46.288   8.771  1.00  0.00     0.019 A 
HETATM    4  C   UNL     1     -45.656 -47.516   9.362  1.00  0.00     0.090 A 
HETATM    5  N   UNL     1     -44.729 -48.107  10.145  1.00  0.00    -0.351 N 
ATOM      6  HN  UNL     1     -44.905 -49.034  10.530  1.00  0.00     0.166 HD
HETATM    7  C   UNL     1     -43.559 -47.465  10.421  1.00  0.00     0.125 A 
ENDROOT
BRANCH   1   8
HETATM    8  N   UNL     1     -42.133 -45.435  10.040  1.00  0.00    -0.207 NA
HETATM    9  C   UNL     1     -41.945 -44.789  11.256  1.00  0.00     0.299 C 
HETATM   10  N   UNL     1     -40.784 -44.037  11.223  1.00  0.00    -0.343 N 
HETATM   11  O   UNL     1     -42.694 -44.837  12.220  1.00  0.00    -0.254 OA
HETATM   12  H   UNL     1     -40.075 -44.388  10.595  1.00  0.00     0.164 HD
HETATM   13  H   UNL     1     -41.987 -44.748   9.313  1.00  0.00     0.138 HD
BRANCH  10  14
HETATM   14  C   UNL     1     -40.325 -43.312  12.405  1.00  0.00     0.081 C 
HETATM   15  C   UNL     1     -40.293 -41.810  12.131  1.00  0.00     0.032 C 
BRANCH  14  16
HETATM   16  C   UNL     1     -38.974 -43.847  12.918  1.00  0.00     0.020 C 
HETATM   17  C   UNL     1     -39.067 -45.085  13.802  1.00  0.00     0.007 C 
ENDBRANCH  14  16
ENDBRANCH  10  14
ENDBRANCH   1   8
BRANCH   7  18
HETATM   18  N   UNL     1     -42.693 -48.159  11.225  1.00  0.00    -0.366 N 
HETATM   19  C   UNL     1     -42.769 -48.374  12.654  1.00  0.00     0.124 C 
HETATM   20  C   UNL     1     -41.710 -49.442  12.946  1.00  0.00     0.021 C 
HETATM   21  C   UNL     1     -41.089 -49.795  11.601  1.00  0.00     0.021 C 
HETATM   22  C   UNL     1     -41.408 -48.608  10.707  1.00  0.00     0.124 C 
ENDBRANCH   7  18
TORSDOF 4
ENDMDL
MODEL 9
REMARK VINA RESULT:      -5.2      2.581      7.557
REMARK  4 active torsions:
REMARK  status: ('A' for Active; 'I' for Inactive)
REMARK    1  A    between atoms: C_2  and  C_3 
REMARK    2  A    between atoms: C_3  and  N_5 
REMARK       I    between atoms: N_5  and  C_6 
REMARK       I    between atoms: C_6  and  N_8 
REMARK    3  A    between atoms: N_8  and  C_9 
REMARK    4  A    between atoms: C_15  and  N_16 
ROOT
HETATM    1  C   UNL     1     -44.639 -51.917  13.747  1.00  0.00     0.060 A 
HETATM    2  C   UNL     1     -45.889 -51.310  13.532  1.00  0.00     0.029 A 
HETATM    3  C   UNL     1     -46.913 -51.483  14.446  1.00  0.00     0.019 A 
HETATM    4  C   UNL     1     -46.670 -52.298  15.524  1.00  0.00     0.090 A 
HETATM    5  N   UNL     1     -45.498 -52.935  15.734  1.00  0.00    -0.351 N 
ATOM      6  HN  UNL     1     -45.391 -53.551  16.540  1.00  0.00     0.166 HD
HETATM    7  C   UNL     1     -44.459 -52.756  14.872  1.00  0.00     0.125 A 
ENDROOT
BRANCH   1   8
HETATM    8  N   UNL     1     -43.643 -51.677  12.757  1.00  0.00    -0.207 NA
HETATM    9  C   UNL     1     -42.869 -50.528  12.868  1.00  0.00     0.299 C 
HETATM   10  N   UNL     1     -42.024 -50.415  11.778  1.00  0.00    -0.343 N 
HETATM   11  O   UNL     1     -42.926 -49.706  13.771  1.00  0.00    -0.254 OA
HETATM   12  H   UNL     1     -41.764 -51.295  11.356  1.00  0.00     0.164 HD
HETATM   13  H   UNL     1     -44.013 -51.696  11.816  1.00  0.00     0.138 HD
BRANCH  10  14
HETATM   14  C   UNL     1     -41.056 -49.325  11.689  1.00  0.00     0.081 C 
HETATM   15  C   UNL     1     -41.505 -48.298  10.651  1.00  0.00     0.032 C 
BRANCH  14  16
HETATM   16  C   UNL     1     -39.629 -49.843  11.428  1.00  0.00     0.020 C 
HETATM   17  C   UNL     1     -38.548 -49.214  12.298  1.00  0.00     0.007 C 
ENDBRANCH  14  16
ENDBRANCH  10  14
ENDBRANCH   1   8
BRANCH   7  18
HETATM   18  N   UNL     1     -43.321 -53.451  15.183  1.00  0.00    -0.366 N 
HETATM   19  C   UNL     1     -42.067 -52.941  15.695  1.00  0.00     0.124 C 
HETATM   20  C   UNL     1     -41.281 -54.186  16.118  1.00  0.00     0.021 C 
HETATM   21  C   UNL     1     -42.188 -55.374  15.826  1.00  0.00     0.021 C 
HETATM   22  C   UNL     1     -43.188 -54.853  14.807  1.00  0.00     0.124 C 
ENDBRANCH   7  18
TORSDOF 4
ENDMDL
