MODEL 1
REMARK VINA RESULT:      -6.2      0.000      0.000
REMARK  4 active torsions:
REMARK  status: ('A' for Active; 'I' for Inactive)
REMARK    1  A    between atoms: C_2  and  C_3 
REMARK    2  A    between atoms: C_3  and  C_4 
REMARK    3  A    between atoms: C_4  and  N_5 
REMARK       I    between atoms: N_5  and  C_6 
REMARK       I    between atoms: C_6  and  N_8 
REMARK    4  A    between atoms: N_8  and  C_9 
ROOT
HETATM    1  N   UNL     1     -40.453 -49.750  10.668  1.00  0.00    -0.342 N 
HETATM    2  C   UNL     1     -41.507 -48.867  10.797  1.00  0.00     0.320 C 
HETATM    3  O   UNL     1     -42.036 -48.656  11.883  1.00  0.00    -0.247 OA
HETATM    4  N   UNL     1     -41.891 -48.308   9.601  1.00  0.00    -0.306 N 
HETATM    5  H   UNL     1     -39.787 -49.507   9.944  1.00  0.00     0.164 HD
HETATM    6  H   UNL     1     -41.646 -48.823   8.765  1.00  0.00     0.171 HD
ENDROOT
BRANCH   1   7
HETATM    7  C   UNL     1     -39.960 -50.342  11.899  1.00  0.00     0.133 C 
BRANCH   7   8
HETATM    8  C   UNL     1     -38.625 -49.726  12.328  1.00  0.00    -0.025 C 
HETATM    9  C   UNL     1     -37.792 -50.728  13.194  1.00  0.00     0.011 C 
HETATM   10  C   UNL     1     -37.030 -51.149  11.929  1.00  0.00     0.002 C 
HETATM   11  C   UNL     1     -37.489 -49.841  11.261  1.00  0.00     0.011 C 
BRANCH   8  12
HETATM   12  C   UNL     1     -38.726 -48.338  12.982  1.00  0.00     0.006 C 
HETATM   13  C   UNL     1     -37.927 -48.239  14.275  1.00  0.00     0.006 C 
ENDBRANCH   8  12
ENDBRANCH   7   8
ENDBRANCH   1   7
BRANCH   4  14
HETATM   14  C   UNL     1     -42.936 -47.355   9.468  1.00  0.00     0.077 A 
HETATM   15  C   UNL     1     -44.241 -47.701   9.113  1.00  0.00     0.050 A 
HETATM   16  C   UNL     1     -45.177 -46.692   8.933  1.00  0.00     0.090 A 
HETATM   17  N   UNL     1     -44.911 -45.381   9.104  1.00  0.00    -0.372 N 
HETATM   18  C   UNL     1     -43.650 -45.068   9.481  1.00  0.00     0.132 A 
ATOM     19  HN  UNL     1     -45.622 -44.664   8.957  1.00  0.00     0.164 HD
HETATM   20  C   UNL     1     -42.652 -46.008   9.683  1.00  0.00     0.158 A 
HETATM   21  F   UNL     1     -41.422 -45.619  10.048  1.00  0.00    -0.202 F 
ENDBRANCH   4  14
TORSDOF 4
ENDMDL
MODEL 2
REMARK VINA RESULT:      -6.0      4.289      5.800
REMARK  4 active torsions:
REMARK  status: ('A' for Active; 'I' for Inactive)
REMARK    1  A    between atoms: C_2  and  C_3 
REMARK    2  A    between atoms: C_3  and  C_4 
REMARK    3  A    between atoms: C_4  and  N_5 
REMARK       I    between atoms: N_5  and  C_6 
REMARK       I    between atoms: C_6  and  N_8 
REMARK    4  A    between atoms: N_8  and  C_9 
ROOT
HETATM    1  N   UNL     1     -43.155 -51.100  12.688  1.00  0.00    -0.342 N 
HETATM    2  C   UNL     1     -42.840 -49.766  12.529  1.00  0.00     0.320 C 
HETATM    3  O   UNL     1     -43.169 -48.926  13.359  1.00  0.00    -0.247 OA
HETATM    4  N   UNL     1     -42.169 -49.506  11.356  1.00  0.00    -0.306 N 
HETATM    5  H   UNL     1     -42.476 -51.743  12.298  1.00  0.00     0.164 HD
HETATM    6  H   UNL     1     -42.288 -50.182  10.612  1.00  0.00     0.171 HD
ENDROOT
BRANCH   1   7
HETATM    7  C   UNL     1     -43.821 -51.456  13.929  1.00  0.00     0.133 C 
BRANCH   7   8
HETATM    8  C   UNL     1     -45.042 -52.345  13.681  1.00  0.00    -0.025 C 
HETATM    9  C   UNL     1     -45.880 -52.534  14.988  1.00  0.00     0.011 C 
HETATM   10  C   UNL     1     -46.798 -51.389  14.536  1.00  0.00     0.002 C 
HETATM   11  C   UNL     1     -46.282 -51.592  13.101  1.00  0.00     0.011 C 
BRANCH   8  12
HETATM   12  C   UNL     1     -44.745 -53.683  12.982  1.00  0.00     0.006 C 
HETATM   13  C   UNL     1     -45.324 -54.877  13.732  1.00  0.00     0.006 C 
ENDBRANCH   8  12
ENDBRANCH   7   8
ENDBRANCH   1   7
BRANCH   4  14
HETATM   14  C   UNL     1     -41.715 -48.218  10.968  1.00  0.00     0.077 A 
HETATM   15  C   UNL     1     -40.465 -47.711  11.327  1.00  0.00     0.050 A 
HETATM   16  C   UNL     1     -40.138 -46.412  10.965  1.00  0.00     0.090 A 
HETATM   17  N   UNL     1     -40.952 -45.601  10.258  1.00  0.00    -0.372 N 
HETATM   18  C   UNL     1     -42.146 -46.122   9.889  1.00  0.00     0.132 A 
ATOM     19  HN  UNL     1     -40.683 -44.648  10.014  1.00  0.00     0.164 HD
HETATM   20  C   UNL     1     -42.554 -47.407  10.206  1.00  0.00     0.158 A 
HETATM   21  F   UNL     1     -43.758 -47.850   9.812  1.00  0.00    -0.202 F 
ENDBRANCH   4  14
TORSDOF 4
ENDMDL
MODEL 3
REMARK VINA RESULT:      -5.9      4.032      5.537
REMARK  4 active torsions:
REMARK  status: ('A' for Active; 'I' for Inactive)
REMARK    1  A    between atoms: C_2  and  C_3 
REMARK    2  A    between atoms: C_3  and  C_4 
REMARK    3  A    between atoms: C_4  and  N_5 
REMARK       I    between atoms: N_5  and  C_6 
REMARK       I    between atoms: C_6  and  N_8 
REMARK    4  A    between atoms: N_8  and  C_9 
ROOT
HETATM    1  N   UNL     1     -43.056 -51.098  12.708  1.00  0.00    -0.342 N 
HETATM    2  C   UNL     1     -42.790 -49.756  12.526  1.00  0.00     0.320 C 
HETATM    3  O   UNL     1     -43.173 -48.911  13.328  1.00  0.00    -0.247 OA
HETATM    4  N   UNL     1     -42.101 -49.496  11.364  1.00  0.00    -0.306 N 
HETATM    5  H   UNL     1     -42.343 -51.721  12.350  1.00  0.00     0.164 HD
HETATM    6  H   UNL     1     -42.174 -50.193  10.633  1.00  0.00     0.171 HD
ENDROOT
BRANCH   1   7
HETATM    7  C   UNL     1     -43.737 -51.453  13.941  1.00  0.00     0.133 C 
BRANCH   7   8
HETATM    8  C   UNL     1     -44.988 -52.296  13.674  1.00  0.00    -0.025 C 
HETATM    9  C   UNL     1     -44.721 -53.370  12.569  1.00  0.00     0.011 C 
HETATM   10  C   UNL     1     -44.435 -54.399  13.672  1.00  0.00     0.002 C 
HETATM   11  C   UNL     1     -45.184 -53.490  14.662  1.00  0.00     0.011 C 
BRANCH   8  12
HETATM   12  C   UNL     1     -46.272 -51.492  13.407  1.00  0.00     0.006 C 
HETATM   13  C   UNL     1     -46.830 -51.728  12.009  1.00  0.00     0.006 C 
ENDBRANCH   8  12
ENDBRANCH   7   8
ENDBRANCH   1   7
BRANCH   4  14
HETATM   14  C   UNL     1     -41.689 -48.199  10.956  1.00  0.00     0.077 A 
HETATM   15  C   UNL     1     -40.458 -47.646  11.310  1.00  0.00     0.050 A 
HETATM   16  C   UNL     1     -40.173 -46.342  10.929  1.00  0.00     0.090 A 
HETATM   17  N   UNL     1     -41.012 -45.570  10.206  1.00  0.00    -0.372 N 
HETATM   18  C   UNL     1     -42.186 -46.137   9.843  1.00  0.00     0.132 A 
ATOM     19  HN  UNL     1     -40.774 -44.613   9.948  1.00  0.00     0.164 HD
HETATM   20  C   UNL     1     -42.553 -47.430  10.179  1.00  0.00     0.158 A 
HETATM   21  F   UNL     1     -43.739 -47.918   9.789  1.00  0.00    -0.202 F 
ENDBRANCH   4  14
TORSDOF 4
ENDMDL
MODEL 4
REMARK VINA RESULT:      -5.7      4.145      5.387
REMARK  4 active torsions:
REMARK  status: ('A' for Active; 'I' for Inactive)
REMARK    1  A    between atoms: C_2  and  C_3 
REMARK    2  A    between atoms: C_3  and  C_4 
REMARK    3  A    between atoms: C_4  and  N_5 
REMARK       I    between atoms: N_5  and  C_6 
REMARK       I    between atoms: C_6  and  N_8 
REMARK    4  A    between atoms: N_8  and  C_9 
ROOT
HETATM    1  N   UNL     1     -42.875 -51.212  12.636  1.00  0.00    -0.342 N 
HETATM    2  C   UNL     1     -42.667 -49.852  12.525  1.00  0.00     0.320 C 
HETATM    3  O   UNL     1     -42.970 -49.081  13.429  1.00  0.00    -0.247 OA
HETATM    4  N   UNL     1     -42.132 -49.486  11.312  1.00  0.00    -0.306 N 
HETATM    5  H   UNL     1     -42.196 -51.783  12.149  1.00  0.00     0.164 HD
HETATM    6  H   UNL     1     -42.277 -50.130  10.545  1.00  0.00     0.171 HD
ENDROOT
BRANCH   1   7
HETATM    7  C   UNL     1     -43.391 -51.677  13.912  1.00  0.00     0.133 C 
BRANCH   7   8
HETATM    8  C   UNL     1     -44.733 -52.397  13.750  1.00  0.00    -0.025 C 
HETATM    9  C   UNL     1     -44.647 -53.519  12.664  1.00  0.00     0.011 C 
HETATM   10  C   UNL     1     -44.392 -54.544  13.779  1.00  0.00     0.002 C 
HETATM   11  C   UNL     1     -44.982 -53.541  14.786  1.00  0.00     0.011 C 
BRANCH   8  12
HETATM   12  C   UNL     1     -45.947 -51.475  13.539  1.00  0.00     0.006 C 
HETATM   13  C   UNL     1     -46.868 -51.433  14.751  1.00  0.00     0.006 C 
ENDBRANCH   8  12
ENDBRANCH   7   8
ENDBRANCH   1   7
BRANCH   4  14
HETATM   14  C   UNL     1     -41.806 -48.150  10.957  1.00  0.00     0.077 A 
HETATM   15  C   UNL     1     -42.687 -47.305  10.280  1.00  0.00     0.050 A 
HETATM   16  C   UNL     1     -42.252 -46.040   9.909  1.00  0.00     0.090 A 
HETATM   17  N   UNL     1     -41.023 -45.557  10.183  1.00  0.00    -0.372 N 
HETATM   18  C   UNL     1     -40.194 -46.379  10.870  1.00  0.00     0.132 A 
ATOM     19  HN  UNL     1     -40.733 -44.625   9.889  1.00  0.00     0.164 HD
HETATM   20  C   UNL     1     -40.544 -47.655  11.280  1.00  0.00     0.158 A 
HETATM   21  F   UNL     1     -39.664 -48.414  11.950  1.00  0.00    -0.202 F 
ENDBRANCH   4  14
TORSDOF 4
ENDMDL
MODEL 5
REMARK VINA RESULT:      -5.5      5.106      6.398
REMARK  4 active torsions:
REMARK  status: ('A' for Active; 'I' for Inactive)
REMARK    1  A    between atoms: C_2  and  C_3 
REMARK    2  A    between atoms: C_3  and  C_4 
REMARK    3  A    between atoms: C_4  and  N_5 
REMARK       I    between atoms: N_5  and  C_6 
REMARK       I    between atoms: C_6  and  N_8 
REMARK    4  A    between atoms: N_8  and  C_9 
ROOT
HETATM    1  N   UNL     1     -43.312 -49.659  12.279  1.00  0.00    -0.342 N 
HETATM    2  C   UNL     1     -43.648 -50.732  13.080  1.00  0.00     0.320 C 
HETATM    3  O   UNL     1     -42.970 -51.044  14.053  1.00  0.00    -0.247 OA
HETATM    4  N   UNL     1     -44.771 -51.398  12.646  1.00  0.00    -0.306 N 
HETATM    5  H   UNL     1     -44.102 -49.178  11.867  1.00  0.00     0.164 HD
HETATM    6  H   UNL     1     -45.008 -51.288  11.668  1.00  0.00     0.171 HD
ENDROOT
BRANCH   1   7
HETATM    7  C   UNL     1     -42.164 -48.878  12.706  1.00  0.00     0.133 C 
BRANCH   7   8
HETATM    8  C   UNL     1     -41.199 -48.611  11.548  1.00  0.00    -0.025 C 
HETATM    9  C   UNL     1     -39.971 -47.763  12.018  1.00  0.00     0.011 C 
HETATM   10  C   UNL     1     -39.173 -49.062  12.198  1.00  0.00     0.002 C 
HETATM   11  C   UNL     1     -40.183 -49.767  11.275  1.00  0.00     0.011 C 
BRANCH   8  12
HETATM   12  C   UNL     1     -41.848 -48.040  10.276  1.00  0.00     0.006 C 
HETATM   13  C   UNL     1     -42.297 -46.594  10.446  1.00  0.00     0.006 C 
ENDBRANCH   8  12
ENDBRANCH   7   8
ENDBRANCH   1   7
BRANCH   4  14
HETATM   14  C   UNL     1     -45.334 -52.522  13.306  1.00  0.00     0.077 A 
HETATM   15  C   UNL     1     -44.844 -53.820  13.153  1.00  0.00     0.050 A 
HETATM   16  C   UNL     1     -45.507 -54.866  13.779  1.00  0.00     0.090 A 
HETATM   17  N   UNL     1     -46.597 -54.707  14.557  1.00  0.00    -0.372 N 
HETATM   18  C   UNL     1     -47.037 -53.437  14.721  1.00  0.00     0.132 A 
ATOM     19  HN  UNL     1     -47.065 -55.499  14.997  1.00  0.00     0.164 HD
HETATM   20  C   UNL     1     -46.438 -52.334  14.135  1.00  0.00     0.158 A 
HETATM   21  F   UNL     1     -46.939 -51.106  14.339  1.00  0.00    -0.202 F 
ENDBRANCH   4  14
TORSDOF 4
ENDMDL
MODEL 6
REMARK VINA RESULT:      -5.3      5.036      6.139
REMARK  4 active torsions:
REMARK  status: ('A' for Active; 'I' for Inactive)
REMARK    1  A    between atoms: C_2  and  C_3 
REMARK    2  A    between atoms: C_3  and  C_4 
REMARK    3  A    between atoms: C_4  and  N_5 
REMARK       I    between atoms: N_5  and  C_6 
REMARK       I    between atoms: C_6  and  N_8 
REMARK    4  A    between atoms: N_8  and  C_9 
ROOT
HETATM    1  N   UNL     1     -42.330 -50.659  12.200  1.00  0.00    -0.342 N 
HETATM    2  C   UNL     1     -43.082 -51.390  13.099  1.00  0.00     0.320 C 
HETATM    3  O   UNL     1     -42.905 -51.297  14.308  1.00  0.00    -0.247 OA
HETATM    4  N   UNL     1     -43.989 -52.224  12.489  1.00  0.00    -0.306 N 
HETATM    5  H   UNL     1     -42.821 -50.399  11.354  1.00  0.00     0.164 HD
HETATM    6  H   UNL     1     -43.788 -52.484  11.532  1.00  0.00     0.171 HD
ENDROOT
BRANCH   1   7
HETATM    7  C   UNL     1     -41.384 -49.719  12.775  1.00  0.00     0.133 C 
BRANCH   7   8
HETATM    8  C   UNL     1     -39.939 -50.200  12.615  1.00  0.00    -0.025 C 
HETATM    9  C   UNL     1     -39.157 -50.103  13.967  1.00  0.00     0.011 C 
HETATM   10  C   UNL     1     -39.473 -51.583  14.227  1.00  0.00     0.002 C 
HETATM   11  C   UNL     1     -39.759 -51.749  12.724  1.00  0.00     0.011 C 
BRANCH   8  12
HETATM   12  C   UNL     1     -39.165 -49.565  11.448  1.00  0.00     0.006 C 
HETATM   13  C   UNL     1     -37.664 -49.809  11.539  1.00  0.00     0.006 C 
ENDBRANCH   8  12
ENDBRANCH   7   8
ENDBRANCH   1   7
BRANCH   4  14
HETATM   14  C   UNL     1     -44.895 -53.064  13.190  1.00  0.00     0.077 A 
HETATM   15  C   UNL     1     -44.699 -54.438  13.338  1.00  0.00     0.050 A 
HETATM   16  C   UNL     1     -45.676 -55.191  13.976  1.00  0.00     0.090 A 
HETATM   17  N   UNL     1     -46.809 -54.670  14.490  1.00  0.00    -0.372 N 
HETATM   18  C   UNL     1     -46.965 -53.331  14.366  1.00  0.00     0.132 A 
ATOM     19  HN  UNL     1     -47.510 -55.253  14.946  1.00  0.00     0.164 HD
HETATM   20  C   UNL     1     -46.043 -52.504  13.746  1.00  0.00     0.158 A 
HETATM   21  F   UNL     1     -46.272 -51.185  13.655  1.00  0.00    -0.202 F 
ENDBRANCH   4  14
TORSDOF 4
ENDMDL
MODEL 7
REMARK VINA RESULT:      -5.2      4.646      6.919
REMARK  4 active torsions:
REMARK  status: ('A' for Active; 'I' for Inactive)
REMARK    1  A    between atoms: C_2  and  C_3 
REMARK    2  A    between atoms: C_3  and  C_4 
REMARK    3  A    between atoms: C_4  and  N_5 
REMARK       I    between atoms: N_5  and  C_6 
REMARK       I    between atoms: C_6  and  N_8 
REMARK    4  A    between atoms: N_8  and  C_9 
ROOT
HETATM    1  N   UNL     1     -43.677 -51.693  12.536  1.00  0.00    -0.342 N 
HETATM    2  C   UNL     1     -42.302 -51.627  12.646  1.00  0.00     0.320 C 
HETATM    3  O   UNL     1     -41.612 -52.640  12.687  1.00  0.00    -0.247 OA
HETATM    4  N   UNL     1     -41.830 -50.338  12.734  1.00  0.00    -0.306 N 
HETATM    5  H   UNL     1     -44.096 -50.926  12.025  1.00  0.00     0.164 HD
HETATM    6  H   UNL     1     -42.487 -49.640  13.059  1.00  0.00     0.171 HD
ENDROOT
BRANCH   1   7
HETATM    7  C   UNL     1     -44.243 -53.023  12.388  1.00  0.00     0.133 C 
BRANCH   7   8
HETATM    8  C   UNL     1     -45.147 -53.387  13.569  1.00  0.00    -0.025 C 
HETATM    9  C   UNL     1     -45.327 -54.936  13.688  1.00  0.00     0.011 C 
HETATM   10  C   UNL     1     -44.197 -54.963  14.728  1.00  0.00     0.002 C 
HETATM   11  C   UNL     1     -44.414 -53.455  14.947  1.00  0.00     0.011 C 
BRANCH   8  12
HETATM   12  C   UNL     1     -46.492 -52.640  13.616  1.00  0.00     0.006 C 
HETATM   13  C   UNL     1     -46.534 -51.578  14.707  1.00  0.00     0.006 C 
ENDBRANCH   8  12
ENDBRANCH   7   8
ENDBRANCH   1   7
BRANCH   4  14
HETATM   14  C   UNL     1     -40.454 -50.000  12.833  1.00  0.00     0.077 A 
HETATM   15  C   UNL     1     -39.791 -49.860  14.053  1.00  0.00     0.050 A 
HETATM   16  C   UNL     1     -38.464 -49.453  14.053  1.00  0.00     0.090 A 
HETATM   17  N   UNL     1     -37.754 -49.202  12.932  1.00  0.00    -0.372 N 
HETATM   18  C   UNL     1     -38.405 -49.377  11.758  1.00  0.00     0.132 A 
ATOM     19  HN  UNL     1     -36.782 -48.898  12.968  1.00  0.00     0.164 HD
HETATM   20  C   UNL     1     -39.727 -49.780  11.665  1.00  0.00     0.158 A 
HETATM   21  F   UNL     1     -40.306 -49.923  10.463  1.00  0.00    -0.202 F 
ENDBRANCH   4  14
TORSDOF 4
ENDMDL
MODEL 8
REMARK VINA RESULT:      -5.1      5.143      6.403
REMARK  4 active torsions:
REMARK  status: ('A' for Active; 'I' for Inactive)
REMARK    1  A    between atoms: C_2  and  C_3 
REMARK    2  A    between atoms: C_3  and  C_4 
REMARK    3  A    between atoms: C_4  and  N_5 
REMARK       I    between atoms: N_5  and  C_6 
REMARK       I    between atoms: C_6  and  N_8 
REMARK    4  A    between atoms: N_8  and  C_9 
ROOT
HETATM    1  N   UNL     1     -43.049 -49.780  12.313  1.00  0.00    -0.342 N 
HETATM    2  C   UNL     1     -43.625 -50.688  13.179  1.00  0.00     0.320 C 
HETATM    3  O   UNL     1     -43.303 -50.741  14.361  1.00  0.00    -0.247 OA
HETATM    4  N   UNL     1     -44.539 -51.513  12.565  1.00  0.00    -0.306 N 
HETATM    5  H   UNL     1     -43.662 -49.456  11.574  1.00  0.00     0.164 HD
HETATM    6  H   UNL     1     -44.442 -51.625  11.564  1.00  0.00     0.171 HD
ENDROOT
BRANCH   1   7
HETATM    7  C   UNL     1     -42.110 -48.842  12.903  1.00  0.00     0.133 C 
BRANCH   7   8
HETATM    8  C   UNL     1     -40.863 -48.666  12.030  1.00  0.00    -0.025 C 
HETATM    9  C   UNL     1     -41.075 -47.545  10.960  1.00  0.00     0.011 C 
HETATM   10  C   UNL     1     -40.383 -46.549  11.903  1.00  0.00     0.002 C 
HETATM   11  C   UNL     1     -39.766 -47.744  12.651  1.00  0.00     0.011 C 
BRANCH   8  12
HETATM   12  C   UNL     1     -40.310 -49.962  11.413  1.00  0.00     0.006 C 
HETATM   13  C   UNL     1     -39.144 -50.537  12.206  1.00  0.00     0.006 C 
ENDBRANCH   8  12
ENDBRANCH   7   8
ENDBRANCH   1   7
BRANCH   4  14
HETATM   14  C   UNL     1     -45.283 -52.517  13.240  1.00  0.00     0.077 A 
HETATM   15  C   UNL     1     -46.397 -52.235  14.032  1.00  0.00     0.050 A 
HETATM   16  C   UNL     1     -47.016 -53.274  14.714  1.00  0.00     0.090 A 
HETATM   17  N   UNL     1     -46.620 -54.562  14.642  1.00  0.00    -0.372 N 
HETATM   18  C   UNL     1     -45.559 -54.820  13.842  1.00  0.00     0.132 A 
ATOM     19  HN  UNL     1     -47.093 -55.300  15.162  1.00  0.00     0.164 HD
HETATM   20  C   UNL     1     -44.881 -53.846  13.126  1.00  0.00     0.158 A 
HETATM   21  F   UNL     1     -43.832 -54.179  12.360  1.00  0.00    -0.202 F 
ENDBRANCH   4  14
TORSDOF 4
ENDMDL
MODEL 9
REMARK VINA RESULT:      -5.1      4.497      5.787
REMARK  4 active torsions:
REMARK  status: ('A' for Active; 'I' for Inactive)
REMARK    1  A    between atoms: C_2  and  C_3 
REMARK    2  A    between atoms: C_3  and  C_4 
REMARK    3  A    between atoms: C_4  and  N_5 
REMARK       I    between atoms: N_5  and  C_6 
REMARK       I    between atoms: C_6  and  N_8 
REMARK    4  A    between atoms: N_8  and  C_9 
ROOT
HETATM    1  N   UNL     1     -43.174 -51.890  12.816  1.00  0.00    -0.342 N 
HETATM    2  C   UNL     1     -42.897 -50.546  12.663  1.00  0.00     0.320 C 
HETATM    3  O   UNL     1     -43.456 -49.694  13.345  1.00  0.00    -0.247 OA
HETATM    4  N   UNL     1     -41.982 -50.294  11.668  1.00  0.00    -0.306 N 
HETATM    5  H   UNL     1     -42.390 -52.504  12.632  1.00  0.00     0.164 HD
HETATM    6  H   UNL     1     -41.886 -51.006  10.955  1.00  0.00     0.171 HD
ENDROOT
BRANCH   1   7
HETATM    7  C   UNL     1     -44.096 -52.235  13.884  1.00  0.00     0.133 C 
BRANCH   7   8
HETATM    8  C   UNL     1     -44.024 -53.723  14.235  1.00  0.00    -0.025 C 
HETATM    9  C   UNL     1     -44.951 -54.065  15.448  1.00  0.00     0.011 C 
HETATM   10  C   UNL     1     -46.044 -54.496  14.459  1.00  0.00     0.002 C 
HETATM   11  C   UNL     1     -44.958 -54.635  13.377  1.00  0.00     0.011 C 
BRANCH   8  12
HETATM   12  C   UNL     1     -42.602 -54.283  14.415  1.00  0.00     0.006 C 
HETATM   13  C   UNL     1     -42.514 -55.308  15.539  1.00  0.00     0.006 C 
ENDBRANCH   8  12
ENDBRANCH   7   8
ENDBRANCH   1   7
BRANCH   4  14
HETATM   14  C   UNL     1     -41.514 -48.997  11.327  1.00  0.00     0.077 A 
HETATM   15  C   UNL     1     -42.256 -48.098  10.559  1.00  0.00     0.050 A 
HETATM   16  C   UNL     1     -41.686 -46.881  10.213  1.00  0.00     0.090 A 
HETATM   17  N   UNL     1     -40.450 -46.494  10.594  1.00  0.00    -0.372 N 
HETATM   18  C   UNL     1     -39.760 -47.365  11.366  1.00  0.00     0.132 A 
ATOM     19  HN  UNL     1     -40.059 -45.594  10.316  1.00  0.00     0.164 HD
HETATM   20  C   UNL     1     -40.251 -48.600  11.759  1.00  0.00     0.158 A 
HETATM   21  F   UNL     1     -39.502 -49.413  12.519  1.00  0.00    -0.202 F 
ENDBRANCH   4  14
TORSDOF 4
ENDMDL
