MODEL 1
REMARK VINA RESULT:      -6.2      0.000      0.000
REMARK  4 active torsions:
REMARK  status: ('A' for Active; 'I' for Inactive)
REMARK    1  A    between atoms: N_2  and  C_4 
REMARK    2  A    between atoms: N_9  and  C_10 
REMARK    3  A    between atoms: C_10  and  C_11 
REMARK       I    between atoms: C_11  and  N_13 
REMARK    4  A    between atoms: N_13  and  C_14 
ROOT
HETATM    1  C   UNL     1     -41.049 -50.743  11.778  1.00  0.00     0.234 C 
ENDROOT
BRANCH   1   2
HETATM    2  N   UNL     1     -41.512 -51.989  12.386  1.00  0.00    -0.314 N 
HETATM    3  C   UNL     1     -40.575 -52.777  13.052  1.00  0.00     0.247 A 
HETATM    4  C   UNL     1     -41.077 -54.077  13.586  1.00  0.00     0.077 A 
HETATM    5  O   UNL     1     -39.399 -52.465  13.211  1.00  0.00    -0.268 OA
HETATM    6  C   UNL     1     -42.374 -54.400  13.483  1.00  0.00     0.043 A 
HETATM    7  C   UNL     1     -43.296 -53.493  12.839  1.00  0.00     0.118 A 
HETATM    8  C   UNL     1     -42.861 -52.339  12.308  1.00  0.00     0.130 A 
BRANCH   7   9
HETATM    9  N   UNL     1     -44.720 -53.803  12.736  1.00  0.00    -0.114 N 
HETATM   10  O   UNL     1     -45.457 -52.985  12.169  1.00  0.00    -0.532 OA
HETATM   11  O   UNL     1     -45.094 -54.886  13.205  1.00  0.00    -0.532 OA
ENDBRANCH   7   9
ENDBRANCH   1   2
BRANCH   1  12
HETATM   12  C   UNL     1     -41.950 -49.567  12.146  1.00  0.00     0.236 C 
HETATM   13  O   UNL     1     -42.093 -49.208  13.314  1.00  0.00    -0.272 OA
HETATM   14  N   UNL     1     -42.542 -48.927  11.076  1.00  0.00    -0.355 N 
HETATM   15  H   UNL     1     -42.128 -49.076  10.158  1.00  0.00     0.162 HD
BRANCH  14  16
HETATM   16  C   UNL     1     -43.418 -47.773  11.272  1.00  0.00     0.084 C 
HETATM   17  C   UNL     1     -44.544 -47.736  10.231  1.00  0.00     0.025 C 
HETATM   18  C   UNL     1     -44.068 -47.313   8.842  1.00  0.00     0.002 C 
HETATM   19  C   UNL     1     -43.278 -46.008   8.881  1.00  0.00     0.000 C 
HETATM   20  C   UNL     1     -42.134 -46.068   9.888  1.00  0.00     0.002 C 
HETATM   21  C   UNL     1     -42.632 -46.454  11.278  1.00  0.00     0.025 C 
ENDBRANCH  14  16
ENDBRANCH   1  12
TORSDOF 4
ENDMDL
MODEL 2
REMARK VINA RESULT:      -6.2      4.340      6.459
REMARK  4 active torsions:
REMARK  status: ('A' for Active; 'I' for Inactive)
REMARK    1  A    between atoms: N_2  and  C_4 
REMARK    2  A    between atoms: N_9  and  C_10 
REMARK    3  A    between atoms: C_10  and  C_11 
REMARK       I    between atoms: C_11  and  N_13 
REMARK    4  A    between atoms: N_13  and  C_14 
ROOT
HETATM    1  C   UNL     1     -45.276 -55.066  14.070  1.00  0.00     0.234 C 
ENDROOT
BRANCH   1   2
HETATM    2  N   UNL     1     -45.865 -53.752  14.323  1.00  0.00    -0.314 N 
HETATM    3  C   UNL     1     -45.971 -52.868  13.251  1.00  0.00     0.247 A 
HETATM    4  C   UNL     1     -46.504 -51.512  13.574  1.00  0.00     0.077 A 
HETATM    5  O   UNL     1     -45.656 -53.141  12.097  1.00  0.00    -0.268 OA
HETATM    6  C   UNL     1     -46.920 -51.222  14.816  1.00  0.00     0.043 A 
HETATM    7  C   UNL     1     -46.842 -52.221  15.856  1.00  0.00     0.118 A 
HETATM    8  C   UNL     1     -46.322 -53.433  15.602  1.00  0.00     0.130 A 
BRANCH   7   9
HETATM    9  N   UNL     1     -47.312 -51.945  17.212  1.00  0.00    -0.114 N 
HETATM   10  O   UNL     1     -46.530 -52.138  18.152  1.00  0.00    -0.532 OA
HETATM   11  O   UNL     1     -48.465 -51.509  17.328  1.00  0.00    -0.532 OA
ENDBRANCH   7   9
ENDBRANCH   1   2
BRANCH   1  12
HETATM   12  C   UNL     1     -43.810 -55.118  14.493  1.00  0.00     0.236 C 
HETATM   13  O   UNL     1     -43.410 -55.928  15.328  1.00  0.00    -0.272 OA
HETATM   14  N   UNL     1     -42.981 -54.228  13.838  1.00  0.00    -0.355 N 
HETATM   15  H   UNL     1     -43.319 -53.836  12.962  1.00  0.00     0.162 HD
BRANCH  14  16
HETATM   16  C   UNL     1     -41.549 -54.174  14.126  1.00  0.00     0.084 C 
HETATM   17  C   UNL     1     -41.219 -53.072  15.142  1.00  0.00     0.025 C 
HETATM   18  C   UNL     1     -41.295 -51.665  14.550  1.00  0.00     0.002 C 
HETATM   19  C   UNL     1     -40.469 -51.536  13.274  1.00  0.00     0.000 C 
HETATM   20  C   UNL     1     -40.833 -52.609  12.253  1.00  0.00     0.002 C 
HETATM   21  C   UNL     1     -40.715 -54.010  12.848  1.00  0.00     0.025 C 
ENDBRANCH  14  16
ENDBRANCH   1  12
TORSDOF 4
ENDMDL
MODEL 3
REMARK VINA RESULT:      -5.9      2.781      6.640
REMARK  4 active torsions:
REMARK  status: ('A' for Active; 'I' for Inactive)
REMARK    1  A    between atoms: N_2  and  C_4 
REMARK    2  A    between atoms: N_9  and  C_10 
REMARK    3  A    between atoms: C_10  and  C_11 
REMARK       I    between atoms: C_11  and  N_13 
REMARK    4  A    between atoms: N_13  and  C_14 
ROOT
HETATM    1  C   UNL     1     -41.509 -49.599  11.485  1.00  0.00     0.234 C 
ENDROOT
BRANCH   1   2
HETATM    2  N   UNL     1     -41.471 -48.199  11.066  1.00  0.00    -0.314 N 
HETATM    3  C   UNL     1     -40.347 -47.447  11.403  1.00  0.00     0.247 A 
HETATM    4  C   UNL     1     -40.390 -46.005  11.024  1.00  0.00     0.077 A 
HETATM    5  O   UNL     1     -39.362 -47.898  11.980  1.00  0.00    -0.268 OA
HETATM    6  C   UNL     1     -41.427 -45.513  10.331  1.00  0.00     0.043 A 
HETATM    7  C   UNL     1     -42.522 -46.378   9.957  1.00  0.00     0.118 A 
HETATM    8  C   UNL     1     -42.530 -47.669  10.327  1.00  0.00     0.130 A 
BRANCH   7   9
HETATM    9  N   UNL     1     -43.653 -45.879   9.179  1.00  0.00    -0.114 N 
HETATM   10  O   UNL     1     -43.811 -44.653   9.099  1.00  0.00    -0.532 OA
HETATM   11  O   UNL     1     -44.370 -46.723   8.626  1.00  0.00    -0.532 OA
ENDBRANCH   7   9
ENDBRANCH   1   2
BRANCH   1  12
HETATM   12  C   UNL     1     -42.375 -49.792  12.727  1.00  0.00     0.236 C 
HETATM   13  O   UNL     1     -42.260 -49.062  13.711  1.00  0.00    -0.272 OA
HETATM   14  N   UNL     1     -43.308 -50.806  12.637  1.00  0.00    -0.355 N 
HETATM   15  H   UNL     1     -43.550 -51.134  11.705  1.00  0.00     0.162 HD
BRANCH  14  16
HETATM   16  C   UNL     1     -44.220 -51.098  13.742  1.00  0.00     0.084 C 
HETATM   17  C   UNL     1     -43.733 -52.291  14.574  1.00  0.00     0.025 C 
HETATM   18  C   UNL     1     -43.930 -53.635  13.874  1.00  0.00     0.002 C 
HETATM   19  C   UNL     1     -45.364 -53.821  13.386  1.00  0.00     0.000 C 
HETATM   20  C   UNL     1     -45.825 -52.650  12.524  1.00  0.00     0.002 C 
HETATM   21  C   UNL     1     -45.658 -51.319  13.253  1.00  0.00     0.025 C 
ENDBRANCH  14  16
ENDBRANCH   1  12
TORSDOF 4
ENDMDL
MODEL 4
REMARK VINA RESULT:      -5.9      3.287      6.382
REMARK  4 active torsions:
REMARK  status: ('A' for Active; 'I' for Inactive)
REMARK    1  A    between atoms: N_2  and  C_4 
REMARK    2  A    between atoms: N_9  and  C_10 
REMARK    3  A    between atoms: C_10  and  C_11 
REMARK       I    between atoms: C_11  and  N_13 
REMARK    4  A    between atoms: N_13  and  C_14 
ROOT
HETATM    1  C   UNL     1     -41.225 -52.065  14.446  1.00  0.00     0.234 C 
ENDROOT
BRANCH   1   2
HETATM    2  N   UNL     1     -40.510 -51.001  13.744  1.00  0.00    -0.314 N 
HETATM    3  C   UNL     1     -41.043 -49.714  13.794  1.00  0.00     0.247 A 
HETATM    4  C   UNL     1     -40.323 -48.679  12.996  1.00  0.00     0.077 A 
HETATM    5  O   UNL     1     -42.041 -49.404  14.437  1.00  0.00    -0.268 OA
HETATM    6  C   UNL     1     -39.191 -48.986  12.346  1.00  0.00     0.043 A 
HETATM    7  C   UNL     1     -38.666 -50.330  12.404  1.00  0.00     0.118 A 
HETATM    8  C   UNL     1     -39.320 -51.291  13.076  1.00  0.00     0.130 A 
BRANCH   7   9
HETATM    9  N   UNL     1     -37.420 -50.689  11.729  1.00  0.00    -0.114 N 
HETATM   10  O   UNL     1     -36.800 -51.680  12.137  1.00  0.00    -0.532 OA
HETATM   11  O   UNL     1     -37.078 -49.985  10.771  1.00  0.00    -0.532 OA
ENDBRANCH   7   9
ENDBRANCH   1   2
BRANCH   1  12
HETATM   12  C   UNL     1     -42.332 -52.667  13.583  1.00  0.00     0.236 C 
HETATM   13  O   UNL     1     -42.099 -53.561  12.771  1.00  0.00    -0.272 OA
HETATM   14  N   UNL     1     -43.596 -52.164  13.820  1.00  0.00    -0.355 N 
HETATM   15  H   UNL     1     -43.747 -51.681  14.703  1.00  0.00     0.162 HD
BRANCH  14  16
HETATM   16  C   UNL     1     -44.758 -52.656  13.081  1.00  0.00     0.084 C 
HETATM   17  C   UNL     1     -45.866 -51.598  13.003  1.00  0.00     0.025 C 
HETATM   18  C   UNL     1     -46.611 -51.408  14.323  1.00  0.00     0.002 C 
HETATM   19  C   UNL     1     -47.119 -52.730  14.890  1.00  0.00     0.000 C 
HETATM   20  C   UNL     1     -46.002 -53.763  15.003  1.00  0.00     0.002 C 
HETATM   21  C   UNL     1     -45.293 -53.970  13.668  1.00  0.00     0.025 C 
ENDBRANCH  14  16
ENDBRANCH   1  12
TORSDOF 4
ENDMDL
MODEL 5
REMARK VINA RESULT:      -5.8      3.167      6.117
REMARK  4 active torsions:
REMARK  status: ('A' for Active; 'I' for Inactive)
REMARK    1  A    between atoms: N_2  and  C_4 
REMARK    2  A    between atoms: N_9  and  C_10 
REMARK    3  A    between atoms: C_10  and  C_11 
REMARK       I    between atoms: C_11  and  N_13 
REMARK    4  A    between atoms: N_13  and  C_14 
ROOT
HETATM    1  C   UNL     1     -41.218 -51.538  13.935  1.00  0.00     0.234 C 
ENDROOT
BRANCH   1   2
HETATM    2  N   UNL     1     -40.277 -50.732  13.159  1.00  0.00    -0.314 N 
HETATM    3  C   UNL     1     -38.984 -51.223  12.988  1.00  0.00     0.247 A 
HETATM    4  C   UNL     1     -38.038 -50.328  12.259  1.00  0.00     0.077 A 
HETATM    5  O   UNL     1     -38.600 -52.314  13.397  1.00  0.00    -0.268 OA
HETATM    6  C   UNL     1     -38.460 -49.164  11.745  1.00  0.00     0.043 A 
HETATM    7  C   UNL     1     -39.838 -48.761  11.905  1.00  0.00     0.118 A 
HETATM    8  C   UNL     1     -40.698 -49.525  12.598  1.00  0.00     0.130 A 
BRANCH   7   9
HETATM    9  N   UNL     1     -40.336 -47.512  11.333  1.00  0.00    -0.114 N 
HETATM   10  O   UNL     1     -41.285 -47.571  10.539  1.00  0.00    -0.532 OA
HETATM   11  O   UNL     1     -39.786 -46.467  11.702  1.00  0.00    -0.532 OA
ENDBRANCH   7   9
ENDBRANCH   1   2
BRANCH   1  12
HETATM   12  C   UNL     1     -42.354 -52.072  13.066  1.00  0.00     0.236 C 
HETATM   13  O   UNL     1     -42.138 -52.575  11.964  1.00  0.00    -0.272 OA
HETATM   14  N   UNL     1     -43.611 -51.985  13.629  1.00  0.00    -0.355 N 
HETATM   15  H   UNL     1     -43.661 -51.861  14.638  1.00  0.00     0.162 HD
BRANCH  14  16
HETATM   16  C   UNL     1     -44.794 -52.471  12.922  1.00  0.00     0.084 C 
HETATM   17  C   UNL     1     -45.959 -51.477  13.022  1.00  0.00     0.025 C 
HETATM   18  C   UNL     1     -46.619 -51.459  14.399  1.00  0.00     0.002 C 
HETATM   19  C   UNL     1     -47.016 -52.858  14.862  1.00  0.00     0.000 C 
HETATM   20  C   UNL     1     -45.842 -53.829  14.800  1.00  0.00     0.002 C 
HETATM   21  C   UNL     1     -45.217 -53.864  13.407  1.00  0.00     0.025 C 
ENDBRANCH  14  16
ENDBRANCH   1  12
TORSDOF 4
ENDMDL
MODEL 6
REMARK VINA RESULT:      -5.8      4.685      6.399
REMARK  4 active torsions:
REMARK  status: ('A' for Active; 'I' for Inactive)
REMARK    1  A    between atoms: N_2  and  C_4 
REMARK    2  A    between atoms: N_9  and  C_10 
REMARK    3  A    between atoms: C_10  and  C_11 
REMARK       I    between atoms: C_11  and  N_13 
REMARK    4  A    between atoms: N_13  and  C_14 
ROOT
HETATM    1  C   UNL     1     -42.331 -53.188  16.835  1.00  0.00     0.234 C 
ENDROOT
BRANCH   1   2
HETATM    2  N   UNL     1     -41.185 -53.658  16.059  1.00  0.00    -0.314 N 
HETATM    3  C   UNL     1     -40.947 -53.063  14.822  1.00  0.00     0.247 A 
HETATM    4  C   UNL     1     -39.816 -53.631  14.032  1.00  0.00     0.077 A 
HETATM    5  O   UNL     1     -41.603 -52.132  14.366  1.00  0.00    -0.268 OA
HETATM    6  C   UNL     1     -39.045 -54.601  14.546  1.00  0.00     0.043 A 
HETATM    7  C   UNL     1     -39.315 -55.114  15.869  1.00  0.00     0.118 A 
HETATM    8  C   UNL     1     -40.357 -54.653  16.581  1.00  0.00     0.130 A 
BRANCH   7   9
HETATM    9  N   UNL     1     -38.478 -56.150  16.468  1.00  0.00    -0.114 N 
HETATM   10  O   UNL     1     -39.035 -57.144  16.952  1.00  0.00    -0.532 OA
HETATM   11  O   UNL     1     -37.253 -55.974  16.428  1.00  0.00    -0.532 OA
ENDBRANCH   7   9
ENDBRANCH   1   2
BRANCH   1  12
HETATM   12  C   UNL     1     -43.631 -53.842  16.373  1.00  0.00     0.236 C 
HETATM   13  O   UNL     1     -43.964 -54.960  16.765  1.00  0.00    -0.272 OA
HETATM   14  N   UNL     1     -44.407 -53.069  15.531  1.00  0.00    -0.355 N 
HETATM   15  H   UNL     1     -44.224 -52.068  15.519  1.00  0.00     0.162 HD
BRANCH  14  16
HETATM   16  C   UNL     1     -45.687 -53.556  15.021  1.00  0.00     0.084 C 
HETATM   17  C   UNL     1     -45.578 -53.999  13.556  1.00  0.00     0.025 C 
HETATM   18  C   UNL     1     -45.475 -52.830  12.578  1.00  0.00     0.002 C 
HETATM   19  C   UNL     1     -46.588 -51.808  12.788  1.00  0.00     0.000 C 
HETATM   20  C   UNL     1     -46.662 -51.341  14.238  1.00  0.00     0.002 C 
HETATM   21  C   UNL     1     -46.804 -52.518  15.199  1.00  0.00     0.025 C 
ENDBRANCH  14  16
ENDBRANCH   1  12
TORSDOF 4
ENDMDL
MODEL 7
REMARK VINA RESULT:      -5.6      2.444      6.772
REMARK  4 active torsions:
REMARK  status: ('A' for Active; 'I' for Inactive)
REMARK    1  A    between atoms: N_2  and  C_4 
REMARK    2  A    between atoms: N_9  and  C_10 
REMARK    3  A    between atoms: C_10  and  C_11 
REMARK       I    between atoms: C_11  and  N_13 
REMARK    4  A    between atoms: N_13  and  C_14 
ROOT
HETATM    1  C   UNL     1     -42.491 -49.270  13.048  1.00  0.00     0.234 C 
ENDROOT
BRANCH   1   2
HETATM    2  N   UNL     1     -42.033 -48.220  12.140  1.00  0.00    -0.314 N 
HETATM    3  C   UNL     1     -40.823 -47.591  12.428  1.00  0.00     0.247 A 
HETATM    4  C   UNL     1     -40.437 -46.472  11.520  1.00  0.00     0.077 A 
HETATM    5  O   UNL     1     -40.089 -47.900  13.362  1.00  0.00    -0.268 OA
HETATM    6  C   UNL     1     -41.192 -46.169  10.453  1.00  0.00     0.043 A 
HETATM    7  C   UNL     1     -42.397 -46.919  10.184  1.00  0.00     0.118 A 
HETATM    8  C   UNL     1     -42.791 -47.899  11.013  1.00  0.00     0.130 A 
BRANCH   7   9
HETATM    9  N   UNL     1     -43.225 -46.632   9.016  1.00  0.00    -0.114 N 
HETATM   10  O   UNL     1     -43.535 -45.453   8.795  1.00  0.00    -0.532 OA
HETATM   11  O   UNL     1     -43.545 -47.593   8.304  1.00  0.00    -0.532 OA
ENDBRANCH   7   9
ENDBRANCH   1   2
BRANCH   1  12
HETATM   12  C   UNL     1     -42.236 -50.662  12.476  1.00  0.00     0.236 C 
HETATM   13  O   UNL     1     -41.266 -50.893  11.755  1.00  0.00    -0.272 OA
HETATM   14  N   UNL     1     -43.141 -51.629  12.866  1.00  0.00    -0.355 N 
HETATM   15  H   UNL     1     -43.701 -51.436  13.693  1.00  0.00     0.162 HD
BRANCH  14  16
HETATM   16  C   UNL     1     -43.015 -53.013  12.411  1.00  0.00     0.084 C 
HETATM   17  C   UNL     1     -44.371 -53.730  12.405  1.00  0.00     0.025 C 
HETATM   18  C   UNL     1     -44.869 -54.089  13.805  1.00  0.00     0.002 C 
HETATM   19  C   UNL     1     -43.819 -54.851  14.608  1.00  0.00     0.000 C 
HETATM   20  C   UNL     1     -42.487 -54.110  14.644  1.00  0.00     0.002 C 
HETATM   21  C   UNL     1     -41.984 -53.793  13.238  1.00  0.00     0.025 C 
ENDBRANCH  14  16
ENDBRANCH   1  12
TORSDOF 4
ENDMDL
MODEL 8
REMARK VINA RESULT:      -5.5      3.545      4.706
REMARK  4 active torsions:
REMARK  status: ('A' for Active; 'I' for Inactive)
REMARK    1  A    between atoms: N_2  and  C_4 
REMARK    2  A    between atoms: N_9  and  C_10 
REMARK    3  A    between atoms: C_10  and  C_11 
REMARK       I    between atoms: C_11  and  N_13 
REMARK    4  A    between atoms: N_13  and  C_14 
ROOT
HETATM    1  C   UNL     1     -41.887 -52.762  14.910  1.00  0.00     0.234 C 
ENDROOT
BRANCH   1   2
HETATM    2  N   UNL     1     -43.153 -53.362  14.492  1.00  0.00    -0.314 N 
HETATM    3  C   UNL     1     -43.360 -54.711  14.775  1.00  0.00     0.247 A 
HETATM    4  C   UNL     1     -44.631 -55.298  14.258  1.00  0.00     0.077 A 
HETATM    5  O   UNL     1     -42.574 -55.413  15.403  1.00  0.00    -0.268 OA
HETATM    6  C   UNL     1     -45.532 -54.527  13.632  1.00  0.00     0.043 A 
HETATM    7  C   UNL     1     -45.272 -53.119  13.442  1.00  0.00     0.118 A 
HETATM    8  C   UNL     1     -44.115 -52.576  13.856  1.00  0.00     0.130 A 
BRANCH   7   9
HETATM    9  N   UNL     1     -46.246 -52.247  12.789  1.00  0.00    -0.114 N 
HETATM   10  O   UNL     1     -46.546 -52.486  11.612  1.00  0.00    -0.532 OA
HETATM   11  O   UNL     1     -46.728 -51.334  13.472  1.00  0.00    -0.532 OA
ENDBRANCH   7   9
ENDBRANCH   1   2
BRANCH   1  12
HETATM   12  C   UNL     1     -40.947 -52.546  13.727  1.00  0.00     0.236 C 
HETATM   13  O   UNL     1     -40.943 -53.309  12.762  1.00  0.00    -0.272 OA
HETATM   14  N   UNL     1     -40.152 -51.420  13.810  1.00  0.00    -0.355 N 
HETATM   15  H   UNL     1     -40.441 -50.694  14.462  1.00  0.00     0.162 HD
BRANCH  14  16
HETATM   16  C   UNL     1     -39.214 -51.074  12.744  1.00  0.00     0.084 C 
HETATM   17  C   UNL     1     -37.766 -51.056  13.251  1.00  0.00     0.025 C 
HETATM   18  C   UNL     1     -37.446 -49.839  14.118  1.00  0.00     0.002 C 
HETATM   19  C   UNL     1     -37.831 -48.532  13.433  1.00  0.00     0.000 C 
HETATM   20  C   UNL     1     -39.284 -48.542  12.970  1.00  0.00     0.002 C 
HETATM   21  C   UNL     1     -39.578 -49.742  12.074  1.00  0.00     0.025 C 
ENDBRANCH  14  16
ENDBRANCH   1  12
TORSDOF 4
ENDMDL
MODEL 9
REMARK VINA RESULT:      -5.4      3.817      5.127
REMARK  4 active torsions:
REMARK  status: ('A' for Active; 'I' for Inactive)
REMARK    1  A    between atoms: N_2  and  C_4 
REMARK    2  A    between atoms: N_9  and  C_10 
REMARK    3  A    between atoms: C_10  and  C_11 
REMARK       I    between atoms: C_11  and  N_13 
REMARK    4  A    between atoms: N_13  and  C_14 
ROOT
HETATM    1  C   UNL     1     -41.837 -53.941  12.908  1.00  0.00     0.234 C 
ENDROOT
BRANCH   1   2
HETATM    2  N   UNL     1     -41.259 -54.351  14.186  1.00  0.00    -0.314 N 
HETATM    3  C   UNL     1     -39.878 -54.248  14.340  1.00  0.00     0.247 A 
HETATM    4  C   UNL     1     -39.326 -54.754  15.630  1.00  0.00     0.077 A 
HETATM    5  O   UNL     1     -39.122 -53.781  13.494  1.00  0.00    -0.268 OA
HETATM    6  C   UNL     1     -40.145 -55.202  16.593  1.00  0.00     0.043 A 
HETATM    7  C   UNL     1     -41.574 -55.209  16.380  1.00  0.00     0.118 A 
HETATM    8  C   UNL     1     -42.093 -54.803  15.210  1.00  0.00     0.130 A 
BRANCH   7   9
HETATM    9  N   UNL     1     -42.495 -55.664  17.419  1.00  0.00    -0.114 N 
HETATM   10  O   UNL     1     -43.669 -55.273  17.371  1.00  0.00    -0.532 OA
HETATM   11  O   UNL     1     -42.040 -56.437  18.272  1.00  0.00    -0.532 OA
ENDBRANCH   7   9
ENDBRANCH   1   2
BRANCH   1  12
HETATM   12  C   UNL     1     -42.412 -52.528  12.976  1.00  0.00     0.236 C 
HETATM   13  O   UNL     1     -41.722 -51.541  12.722  1.00  0.00    -0.272 OA
HETATM   14  N   UNL     1     -43.753 -52.457  13.296  1.00  0.00    -0.355 N 
HETATM   15  H   UNL     1     -44.306 -53.302  13.173  1.00  0.00     0.162 HD
BRANCH  14  16
HETATM   16  C   UNL     1     -44.445 -51.172  13.382  1.00  0.00     0.084 C 
HETATM   17  C   UNL     1     -44.328 -50.562  14.785  1.00  0.00     0.025 C 
HETATM   18  C   UNL     1     -45.206 -51.261  15.822  1.00  0.00     0.002 C 
HETATM   19  C   UNL     1     -46.657 -51.372  15.363  1.00  0.00     0.000 C 
HETATM   20  C   UNL     1     -46.766 -52.019  13.985  1.00  0.00     0.002 C 
HETATM   21  C   UNL     1     -45.914 -51.285  12.953  1.00  0.00     0.025 C 
ENDBRANCH  14  16
ENDBRANCH   1  12
TORSDOF 4
ENDMDL
