MODEL 1
REMARK VINA RESULT:      -6.5      0.000      0.000
REMARK  6 active torsions:
REMARK  status: ('A' for Active; 'I' for Inactive)
REMARK    1  A    between atoms: N_7  and  C_8 
REMARK    2  A    between atoms: C_8  and  C_9 
REMARK    3  A    between atoms: C_9  and  C_10 
REMARK    4  A    between atoms: C_10  and  N_11 
REMARK       I    between atoms: N_11  and  C_12 
REMARK    5  A    between atoms: C_12  and  C_14 
REMARK    6  A    between atoms: C_14  and  N_15 
ROOT
HETATM    1  N   UNL     1     -41.215 -51.661  11.556  1.00  0.00    -0.360 N 
HETATM    2  C   UNL     1     -41.462 -50.354  11.919  1.00  0.00     0.237 C 
HETATM    3  O   UNL     1     -42.379 -50.026  12.670  1.00  0.00    -0.272 OA
HETATM    4  H   UNL     1     -40.523 -51.852  10.840  1.00  0.00     0.162 HD
ENDROOT
BRANCH   1   5
HETATM    5  C   UNL     1     -42.112 -52.730  11.940  1.00  0.00     0.124 C 
BRANCH   5   6
HETATM    6  C   UNL     1     -41.731 -53.387  13.267  1.00  0.00     0.050 C 
BRANCH   6   7
HETATM    7  C   UNL     1     -42.960 -53.808  14.089  1.00  0.00     0.274 C 
BRANCH   7   8
HETATM    8  N   UNL     1     -44.035 -52.796  14.118  1.00  0.00     0.089 N 
HETATM    9  C   UNL     1     -44.034 -52.020  15.370  1.00  0.00     0.276 C 
HETATM   10  C   UNL     1     -45.145 -50.959  15.401  1.00  0.00     0.010 C 
HETATM   11  C   UNL     1     -46.513 -51.600  15.156  1.00  0.00     0.012 C 
HETATM   12  C   UNL     1     -45.121 -50.206  16.731  1.00  0.00     0.011 C 
HETATM   13  C   UNL     1     -46.509 -52.451  13.879  1.00  0.00     0.010 C 
HETATM   14  C   UNL     1     -46.466 -51.585  12.616  1.00  0.00     0.011 C 
HETATM   15  C   UNL     1     -45.340 -53.453  13.918  1.00  0.00     0.276 C 
ENDBRANCH   7   8
ENDBRANCH   6   7
ENDBRANCH   5   6
ENDBRANCH   1   5
BRANCH   2  16
HETATM   16  C   UNL     1     -40.511 -49.323  11.314  1.00  0.00     0.255 C 
BRANCH  16  17
HETATM   17  N   UNL     1     -41.256 -48.164  10.845  1.00  0.00    -0.246 N 
HETATM   18  N   UNL     1     -42.384 -48.458  10.055  1.00  0.00    -0.261 N 
HETATM   19  C   UNL     1     -43.058 -47.492   9.362  1.00  0.00     0.260 C 
HETATM   20  H   UNL     1     -42.465 -49.403   9.679  1.00  0.00     0.190 HD
HETATM   21  O   UNL     1     -43.930 -47.744   8.539  1.00  0.00    -0.267 OA
HETATM   22  C   UNL     1     -42.694 -46.099   9.664  1.00  0.00     0.081 C 
HETATM   23  C   UNL     1     -41.638 -45.813  10.434  1.00  0.00     0.081 C 
HETATM   24  C   UNL     1     -40.797 -46.877  11.019  1.00  0.00     0.262 C 
HETATM   25  O   UNL     1     -39.774 -46.583  11.631  1.00  0.00    -0.267 OA
ENDBRANCH  16  17
ENDBRANCH   2  16
TORSDOF 6
ENDMDL
MODEL 2
REMARK VINA RESULT:      -6.4      3.851      7.381
REMARK  6 active torsions:
REMARK  status: ('A' for Active; 'I' for Inactive)
REMARK    1  A    between atoms: N_7  and  C_8 
REMARK    2  A    between atoms: C_8  and  C_9 
REMARK    3  A    between atoms: C_9  and  C_10 
REMARK    4  A    between atoms: C_10  and  N_11 
REMARK       I    between atoms: N_11  and  C_12 
REMARK    5  A    between atoms: C_12  and  C_14 
REMARK    6  A    between atoms: C_14  and  N_15 
ROOT
HETATM    1  N   UNL     1     -42.428 -54.368  14.097  1.00  0.00    -0.360 N 
HETATM    2  C   UNL     1     -43.478 -54.957  14.768  1.00  0.00     0.237 C 
HETATM    3  O   UNL     1     -43.357 -55.498  15.866  1.00  0.00    -0.272 OA
HETATM    4  H   UNL     1     -42.568 -54.048  13.145  1.00  0.00     0.162 HD
ENDROOT
BRANCH   1   5
HETATM    5  C   UNL     1     -41.071 -54.463  14.592  1.00  0.00     0.124 C 
BRANCH   5   6
HETATM    6  C   UNL     1     -40.035 -53.909  13.613  1.00  0.00     0.050 C 
BRANCH   6   7
HETATM    7  C   UNL     1     -40.382 -52.492  13.129  1.00  0.00     0.274 C 
BRANCH   7   8
HETATM    8  N   UNL     1     -39.214 -51.592  13.027  1.00  0.00     0.089 N 
HETATM    9  C   UNL     1     -38.674 -51.231  14.349  1.00  0.00     0.276 C 
HETATM   10  C   UNL     1     -37.453 -50.304  14.247  1.00  0.00     0.010 C 
HETATM   11  C   UNL     1     -37.790 -49.052  13.432  1.00  0.00     0.012 C 
HETATM   12  C   UNL     1     -36.952 -49.934  15.642  1.00  0.00     0.011 C 
HETATM   13  C   UNL     1     -38.400 -49.420  12.073  1.00  0.00     0.010 C 
HETATM   14  C   UNL     1     -37.354 -50.004  11.117  1.00  0.00     0.011 C 
HETATM   15  C   UNL     1     -39.585 -50.382  12.271  1.00  0.00     0.276 C 
ENDBRANCH   7   8
ENDBRANCH   6   7
ENDBRANCH   5   6
ENDBRANCH   1   5
BRANCH   2  16
HETATM   16  C   UNL     1     -44.823 -54.900  14.045  1.00  0.00     0.255 C 
BRANCH  16  17
HETATM   17  N   UNL     1     -45.484 -53.630  14.311  1.00  0.00    -0.246 N 
HETATM   18  N   UNL     1     -45.785 -53.385  15.665  1.00  0.00    -0.261 N 
HETATM   19  C   UNL     1     -46.591 -52.352  16.055  1.00  0.00     0.260 C 
HETATM   20  H   UNL     1     -45.744 -54.174  16.310  1.00  0.00     0.190 HD
HETATM   21  O   UNL     1     -47.004 -52.222  17.202  1.00  0.00    -0.267 OA
HETATM   22  C   UNL     1     -46.941 -51.371  15.017  1.00  0.00     0.081 C 
HETATM   23  C   UNL     1     -46.636 -51.586  13.733  1.00  0.00     0.081 C 
HETATM   24  C   UNL     1     -45.932 -52.810  13.299  1.00  0.00     0.262 C 
HETATM   25  O   UNL     1     -45.762 -53.029  12.103  1.00  0.00    -0.267 OA
ENDBRANCH  16  17
ENDBRANCH   2  16
TORSDOF 6
ENDMDL
MODEL 3
REMARK VINA RESULT:      -6.3      1.982      2.848
REMARK  6 active torsions:
REMARK  status: ('A' for Active; 'I' for Inactive)
REMARK    1  A    between atoms: N_7  and  C_8 
REMARK    2  A    between atoms: C_8  and  C_9 
REMARK    3  A    between atoms: C_9  and  C_10 
REMARK    4  A    between atoms: C_10  and  N_11 
REMARK       I    between atoms: N_11  and  C_12 
REMARK    5  A    between atoms: C_12  and  C_14 
REMARK    6  A    between atoms: C_14  and  N_15 
ROOT
HETATM    1  N   UNL     1     -41.285 -54.100  13.747  1.00  0.00    -0.360 N 
HETATM    2  C   UNL     1     -41.343 -52.752  13.461  1.00  0.00     0.237 C 
HETATM    3  O   UNL     1     -41.677 -51.903  14.286  1.00  0.00    -0.272 OA
HETATM    4  H   UNL     1     -41.121 -54.757  12.992  1.00  0.00     0.162 HD
ENDROOT
BRANCH   1   5
HETATM    5  C   UNL     1     -41.742 -54.620  15.018  1.00  0.00     0.124 C 
BRANCH   5   6
HETATM    6  C   UNL     1     -43.225 -54.992  15.016  1.00  0.00     0.050 C 
BRANCH   6   7
HETATM    7  C   UNL     1     -44.021 -54.239  16.094  1.00  0.00     0.274 C 
BRANCH   7   8
HETATM    8  N   UNL     1     -44.685 -53.014  15.601  1.00  0.00     0.089 N 
HETATM    9  C   UNL     1     -45.867 -52.661  16.406  1.00  0.00     0.276 C 
HETATM   10  C   UNL     1     -46.555 -51.382  15.904  1.00  0.00     0.010 C 
HETATM   11  C   UNL     1     -46.918 -51.510  14.422  1.00  0.00     0.012 C 
HETATM   12  C   UNL     1     -47.790 -51.078  16.750  1.00  0.00     0.011 C 
HETATM   13  C   UNL     1     -45.703 -51.926  13.583  1.00  0.00     0.010 C 
HETATM   14  C   UNL     1     -44.690 -50.786  13.442  1.00  0.00     0.011 C 
HETATM   15  C   UNL     1     -45.056 -53.187  14.185  1.00  0.00     0.276 C 
ENDBRANCH   7   8
ENDBRANCH   6   7
ENDBRANCH   5   6
ENDBRANCH   1   5
BRANCH   2  16
HETATM   16  C   UNL     1     -40.967 -52.377  12.029  1.00  0.00     0.255 C 
BRANCH  16  17
HETATM   17  N   UNL     1     -40.670 -50.954  11.942  1.00  0.00    -0.246 N 
HETATM   18  N   UNL     1     -41.760 -50.138  11.581  1.00  0.00    -0.261 N 
HETATM   19  C   UNL     1     -41.603 -48.822  11.245  1.00  0.00     0.260 C 
HETATM   20  H   UNL     1     -42.583 -50.594  11.187  1.00  0.00     0.190 HD
HETATM   21  O   UNL     1     -42.502 -48.142  10.765  1.00  0.00    -0.267 OA
HETATM   22  C   UNL     1     -40.278 -48.238  11.503  1.00  0.00     0.081 C 
HETATM   23  C   UNL     1     -39.245 -49.004  11.870  1.00  0.00     0.081 C 
HETATM   24  C   UNL     1     -39.387 -50.465  12.040  1.00  0.00     0.262 C 
HETATM   25  O   UNL     1     -38.398 -51.154  12.272  1.00  0.00    -0.267 OA
ENDBRANCH  16  17
ENDBRANCH   2  16
TORSDOF 6
ENDMDL
MODEL 4
REMARK VINA RESULT:      -6.2      2.836      7.569
REMARK  6 active torsions:
REMARK  status: ('A' for Active; 'I' for Inactive)
REMARK    1  A    between atoms: N_7  and  C_8 
REMARK    2  A    between atoms: C_8  and  C_9 
REMARK    3  A    between atoms: C_9  and  C_10 
REMARK    4  A    between atoms: C_10  and  N_11 
REMARK       I    between atoms: N_11  and  C_12 
REMARK    5  A    between atoms: C_12  and  C_14 
REMARK    6  A    between atoms: C_14  and  N_15 
ROOT
HETATM    1  N   UNL     1     -40.867 -51.272  11.383  1.00  0.00    -0.360 N 
HETATM    2  C   UNL     1     -40.714 -51.992  12.548  1.00  0.00     0.237 C 
HETATM    3  O   UNL     1     -40.450 -51.473  13.631  1.00  0.00    -0.272 OA
HETATM    4  H   UNL     1     -40.963 -51.768  10.504  1.00  0.00     0.162 HD
ENDROOT
BRANCH   1   5
HETATM    5  C   UNL     1     -40.598 -49.850  11.336  1.00  0.00     0.124 C 
BRANCH   5   6
HETATM    6  C   UNL     1     -41.864 -48.996  11.414  1.00  0.00     0.050 C 
BRANCH   6   7
HETATM    7  C   UNL     1     -41.823 -47.795  10.456  1.00  0.00     0.274 C 
BRANCH   7   8
HETATM    8  N   UNL     1     -41.496 -46.514  11.116  1.00  0.00     0.089 N 
HETATM    9  C   UNL     1     -42.416 -45.435  10.720  1.00  0.00     0.276 C 
HETATM   10  C   UNL     1     -42.085 -44.103  11.411  1.00  0.00     0.010 C 
HETATM   11  C   UNL     1     -40.630 -43.705  11.153  1.00  0.00     0.012 C 
HETATM   12  C   UNL     1     -43.046 -43.010  10.942  1.00  0.00     0.011 C 
HETATM   13  C   UNL     1     -39.668 -44.844  11.517  1.00  0.00     0.010 C 
HETATM   14  C   UNL     1     -39.556 -45.034  13.033  1.00  0.00     0.011 C 
HETATM   15  C   UNL     1     -40.101 -46.143  10.814  1.00  0.00     0.276 C 
ENDBRANCH   7   8
ENDBRANCH   6   7
ENDBRANCH   5   6
ENDBRANCH   1   5
BRANCH   2  16
HETATM   16  C   UNL     1     -40.888 -53.503  12.403  1.00  0.00     0.255 C 
BRANCH  16  17
HETATM   17  N   UNL     1     -42.146 -53.925  13.003  1.00  0.00    -0.246 N 
HETATM   18  N   UNL     1     -43.299 -53.606  12.259  1.00  0.00    -0.261 N 
HETATM   19  C   UNL     1     -44.557 -53.735  12.778  1.00  0.00     0.260 C 
HETATM   20  H   UNL     1     -43.204 -52.922  11.508  1.00  0.00     0.190 HD
HETATM   21  O   UNL     1     -45.559 -53.305  12.218  1.00  0.00    -0.267 OA
HETATM   22  C   UNL     1     -44.663 -54.442  14.064  1.00  0.00     0.081 C 
HETATM   23  C   UNL     1     -43.571 -54.770  14.762  1.00  0.00     0.081 C 
HETATM   24  C   UNL     1     -42.214 -54.445  14.276  1.00  0.00     0.262 C 
HETATM   25  O   UNL     1     -41.239 -54.663  14.988  1.00  0.00    -0.267 OA
ENDBRANCH  16  17
ENDBRANCH   2  16
TORSDOF 6
ENDMDL
MODEL 5
REMARK VINA RESULT:      -6.1      1.917      2.690
REMARK  6 active torsions:
REMARK  status: ('A' for Active; 'I' for Inactive)
REMARK    1  A    between atoms: N_7  and  C_8 
REMARK    2  A    between atoms: C_8  and  C_9 
REMARK    3  A    between atoms: C_9  and  C_10 
REMARK    4  A    between atoms: C_10  and  N_11 
REMARK       I    between atoms: N_11  and  C_12 
REMARK    5  A    between atoms: C_12  and  C_14 
REMARK    6  A    between atoms: C_14  and  N_15 
ROOT
HETATM    1  N   UNL     1     -42.683 -49.215  11.513  1.00  0.00    -0.360 N 
HETATM    2  C   UNL     1     -42.106 -48.089  10.967  1.00  0.00     0.237 C 
HETATM    3  O   UNL     1     -41.410 -47.308  11.613  1.00  0.00    -0.272 OA
HETATM    4  H   UNL     1     -43.343 -49.750  10.959  1.00  0.00     0.162 HD
ENDROOT
BRANCH   1   5
HETATM    5  C   UNL     1     -42.608 -49.486  12.933  1.00  0.00     0.124 C 
BRANCH   5   6
HETATM    6  C   UNL     1     -42.045 -50.870  13.252  1.00  0.00     0.050 C 
BRANCH   6   7
HETATM    7  C   UNL     1     -42.815 -51.572  14.382  1.00  0.00     0.274 C 
BRANCH   7   8
HETATM    8  N   UNL     1     -44.283 -51.534  14.220  1.00  0.00     0.089 N 
HETATM    9  C   UNL     1     -44.981 -51.388  15.508  1.00  0.00     0.276 C 
HETATM   10  C   UNL     1     -46.508 -51.337  15.343  1.00  0.00     0.010 C 
HETATM   11  C   UNL     1     -47.011 -52.567  14.583  1.00  0.00     0.012 C 
HETATM   12  C   UNL     1     -47.184 -51.220  16.709  1.00  0.00     0.011 C 
HETATM   13  C   UNL     1     -46.254 -52.754  13.261  1.00  0.00     0.010 C 
HETATM   14  C   UNL     1     -46.652 -51.701  12.222  1.00  0.00     0.011 C 
HETATM   15  C   UNL     1     -44.737 -52.750  13.519  1.00  0.00     0.276 C 
ENDBRANCH   7   8
ENDBRANCH   6   7
ENDBRANCH   5   6
ENDBRANCH   1   5
BRANCH   2  16
HETATM   16  C   UNL     1     -42.399 -47.866   9.484  1.00  0.00     0.255 C 
BRANCH  16  17
HETATM   17  N   UNL     1     -43.725 -47.290   9.312  1.00  0.00    -0.246 N 
HETATM   18  N   UNL     1     -44.756 -48.222   9.087  1.00  0.00    -0.261 N 
HETATM   19  C   UNL     1     -46.008 -47.840   8.693  1.00  0.00     0.260 C 
HETATM   20  H   UNL     1     -44.488 -49.172   8.830  1.00  0.00     0.190 HD
HETATM   21  O   UNL     1     -46.866 -48.635   8.327  1.00  0.00    -0.267 OA
HETATM   22  C   UNL     1     -46.294 -46.398   8.741  1.00  0.00     0.081 C 
HETATM   23  C   UNL     1     -45.324 -45.509   8.979  1.00  0.00     0.081 C 
HETATM   24  C   UNL     1     -43.928 -45.932   9.211  1.00  0.00     0.262 C 
HETATM   25  O   UNL     1     -43.042 -45.089   9.319  1.00  0.00    -0.267 OA
ENDBRANCH  16  17
ENDBRANCH   2  16
TORSDOF 6
ENDMDL
MODEL 6
REMARK VINA RESULT:      -6.1      2.398      3.341
REMARK  6 active torsions:
REMARK  status: ('A' for Active; 'I' for Inactive)
REMARK    1  A    between atoms: N_7  and  C_8 
REMARK    2  A    between atoms: C_8  and  C_9 
REMARK    3  A    between atoms: C_9  and  C_10 
REMARK    4  A    between atoms: C_10  and  N_11 
REMARK       I    between atoms: N_11  and  C_12 
REMARK    5  A    between atoms: C_12  and  C_14 
REMARK    6  A    between atoms: C_14  and  N_15 
ROOT
HETATM    1  N   UNL     1     -41.863 -50.140  11.630  1.00  0.00    -0.360 N 
HETATM    2  C   UNL     1     -42.270 -48.823  11.659  1.00  0.00     0.237 C 
HETATM    3  O   UNL     1     -42.839 -48.315  12.624  1.00  0.00    -0.272 OA
HETATM    4  H   UNL     1     -41.512 -50.529  10.763  1.00  0.00     0.162 HD
ENDROOT
BRANCH   1   5
HETATM    5  C   UNL     1     -42.199 -51.054  12.701  1.00  0.00     0.124 C 
BRANCH   5   6
HETATM    6  C   UNL     1     -40.996 -51.849  13.211  1.00  0.00     0.050 C 
BRANCH   6   7
HETATM    7  C   UNL     1     -41.081 -53.340  12.849  1.00  0.00     0.274 C 
BRANCH   7   8
HETATM    8  N   UNL     1     -41.897 -54.138  13.787  1.00  0.00     0.089 N 
HETATM    9  C   UNL     1     -43.320 -54.157  13.407  1.00  0.00     0.276 C 
HETATM   10  C   UNL     1     -44.172 -54.995  14.374  1.00  0.00     0.010 C 
HETATM   11  C   UNL     1     -43.995 -54.505  15.814  1.00  0.00     0.012 C 
HETATM   12  C   UNL     1     -45.641 -54.954  13.955  1.00  0.00     0.011 C 
HETATM   13  C   UNL     1     -42.512 -54.436  16.201  1.00  0.00     0.010 C 
HETATM   14  C   UNL     1     -41.905 -55.830  16.388  1.00  0.00     0.011 C 
HETATM   15  C   UNL     1     -41.733 -53.616  15.156  1.00  0.00     0.276 C 
ENDBRANCH   7   8
ENDBRANCH   6   7
ENDBRANCH   5   6
ENDBRANCH   1   5
BRANCH   2  16
HETATM   16  C   UNL     1     -41.971 -48.025  10.392  1.00  0.00     0.255 C 
BRANCH  16  17
HETATM   17  N   UNL     1     -43.157 -47.298   9.961  1.00  0.00    -0.246 N 
HETATM   18  N   UNL     1     -44.326 -48.076   9.848  1.00  0.00    -0.261 N 
HETATM   19  C   UNL     1     -45.460 -47.601   9.252  1.00  0.00     0.260 C 
HETATM   20  H   UNL     1     -44.220 -49.091   9.839  1.00  0.00     0.190 HD
HETATM   21  O   UNL     1     -46.425 -48.309   8.989  1.00  0.00    -0.267 OA
HETATM   22  C   UNL     1     -45.481 -46.162   8.945  1.00  0.00     0.081 C 
HETATM   23  C   UNL     1     -44.381 -45.413   9.074  1.00  0.00     0.081 C 
HETATM   24  C   UNL     1     -43.102 -45.990   9.536  1.00  0.00     0.262 C 
HETATM   25  O   UNL     1     -42.085 -45.302   9.541  1.00  0.00    -0.267 OA
ENDBRANCH  16  17
ENDBRANCH   2  16
TORSDOF 6
ENDMDL
MODEL 7
REMARK VINA RESULT:      -6.1      2.824      7.065
REMARK  6 active torsions:
REMARK  status: ('A' for Active; 'I' for Inactive)
REMARK    1  A    between atoms: N_7  and  C_8 
REMARK    2  A    between atoms: C_8  and  C_9 
REMARK    3  A    between atoms: C_9  and  C_10 
REMARK    4  A    between atoms: C_10  and  N_11 
REMARK       I    between atoms: N_11  and  C_12 
REMARK    5  A    between atoms: C_12  and  C_14 
REMARK    6  A    between atoms: C_14  and  N_15 
ROOT
HETATM    1  N   UNL     1     -39.670 -51.467  12.674  1.00  0.00    -0.360 N 
HETATM    2  C   UNL     1     -40.744 -52.082  13.280  1.00  0.00     0.237 C 
HETATM    3  O   UNL     1     -41.527 -51.492  14.023  1.00  0.00    -0.272 OA
HETATM    4  H   UNL     1     -38.995 -52.033  12.173  1.00  0.00     0.162 HD
ENDROOT
BRANCH   1   5
HETATM    5  C   UNL     1     -39.317 -50.096  12.980  1.00  0.00     0.124 C 
BRANCH   5   6
HETATM    6  C   UNL     1     -39.470 -49.156  11.785  1.00  0.00     0.050 C 
BRANCH   6   7
HETATM    7  C   UNL     1     -40.868 -49.236  11.149  1.00  0.00     0.274 C 
BRANCH   7   8
HETATM    8  N   UNL     1     -41.323 -47.968  10.542  1.00  0.00     0.089 N 
HETATM    9  C   UNL     1     -40.571 -46.808  11.050  1.00  0.00     0.276 C 
HETATM   10  C   UNL     1     -41.034 -45.488  10.414  1.00  0.00     0.010 C 
HETATM   11  C   UNL     1     -42.540 -45.293  10.608  1.00  0.00     0.012 C 
HETATM   12  C   UNL     1     -40.247 -44.315  10.997  1.00  0.00     0.011 C 
HETATM   13  C   UNL     1     -43.328 -46.518  10.127  1.00  0.00     0.010 C 
HETATM   14  C   UNL     1     -43.336 -46.627   8.599  1.00  0.00     0.011 C 
HETATM   15  C   UNL     1     -42.768 -47.794  10.782  1.00  0.00     0.276 C 
ENDBRANCH   7   8
ENDBRANCH   6   7
ENDBRANCH   5   6
ENDBRANCH   1   5
BRANCH   2  16
HETATM   16  C   UNL     1     -40.898 -53.570  12.970  1.00  0.00     0.255 C 
BRANCH  16  17
HETATM   17  N   UNL     1     -42.237 -54.022  13.317  1.00  0.00    -0.246 N 
HETATM   18  N   UNL     1     -43.259 -53.588  12.450  1.00  0.00    -0.261 N 
HETATM   19  C   UNL     1     -44.583 -53.739  12.753  1.00  0.00     0.260 C 
HETATM   20  H   UNL     1     -43.042 -52.825  11.808  1.00  0.00     0.190 HD
HETATM   21  O   UNL     1     -45.482 -53.220  12.101  1.00  0.00    -0.267 OA
HETATM   22  C   UNL     1     -44.893 -54.585  13.916  1.00  0.00     0.081 C 
HETATM   23  C   UNL     1     -43.925 -55.022  14.729  1.00  0.00     0.081 C 
HETATM   24  C   UNL     1     -42.506 -54.683  14.495  1.00  0.00     0.262 C 
HETATM   25  O   UNL     1     -41.655 -55.008  15.318  1.00  0.00    -0.267 OA
ENDBRANCH  16  17
ENDBRANCH   2  16
TORSDOF 6
ENDMDL
MODEL 8
REMARK VINA RESULT:      -6.1      1.837      2.136
REMARK  6 active torsions:
REMARK  status: ('A' for Active; 'I' for Inactive)
REMARK    1  A    between atoms: N_7  and  C_8 
REMARK    2  A    between atoms: C_8  and  C_9 
REMARK    3  A    between atoms: C_9  and  C_10 
REMARK    4  A    between atoms: C_10  and  N_11 
REMARK       I    between atoms: N_11  and  C_12 
REMARK    5  A    between atoms: C_12  and  C_14 
REMARK    6  A    between atoms: C_14  and  N_15 
ROOT
HETATM    1  N   UNL     1     -40.220 -51.159  11.906  1.00  0.00    -0.360 N 
HETATM    2  C   UNL     1     -40.443 -49.825  11.642  1.00  0.00     0.237 C 
HETATM    3  O   UNL     1     -41.559 -49.362  11.410  1.00  0.00    -0.272 OA
HETATM    4  H   UNL     1     -39.266 -51.497  11.968  1.00  0.00     0.162 HD
ENDROOT
BRANCH   1   5
HETATM    5  C   UNL     1     -41.283 -52.136  11.799  1.00  0.00     0.124 C 
BRANCH   5   6
HETATM    6  C   UNL     1     -41.502 -52.929  13.088  1.00  0.00     0.050 C 
BRANCH   6   7
HETATM    7  C   UNL     1     -42.879 -53.610  13.132  1.00  0.00     0.274 C 
BRANCH   7   8
HETATM    8  N   UNL     1     -43.999 -52.679  13.385  1.00  0.00     0.089 N 
HETATM    9  C   UNL     1     -43.854 -51.972  14.669  1.00  0.00     0.276 C 
HETATM   10  C   UNL     1     -45.011 -50.995  14.931  1.00  0.00     0.010 C 
HETATM   11  C   UNL     1     -46.358 -51.719  14.853  1.00  0.00     0.012 C 
HETATM   12  C   UNL     1     -44.830 -50.313  16.287  1.00  0.00     0.011 C 
HETATM   13  C   UNL     1     -46.496 -52.499  13.539  1.00  0.00     0.010 C 
HETATM   14  C   UNL     1     -46.701 -51.567  12.341  1.00  0.00     0.011 C 
HETATM   15  C   UNL     1     -45.276 -53.416  13.341  1.00  0.00     0.276 C 
ENDBRANCH   7   8
ENDBRANCH   6   7
ENDBRANCH   5   6
ENDBRANCH   1   5
BRANCH   2  16
HETATM   16  C   UNL     1     -39.195 -48.945  11.650  1.00  0.00     0.255 C 
BRANCH  16  17
HETATM   17  N   UNL     1     -39.561 -47.552  11.862  1.00  0.00    -0.246 N 
HETATM   18  N   UNL     1     -39.831 -46.820  10.689  1.00  0.00    -0.261 N 
HETATM   19  C   UNL     1     -39.973 -45.460  10.698  1.00  0.00     0.260 C 
HETATM   20  H   UNL     1     -39.533 -47.222   9.801  1.00  0.00     0.190 HD
HETATM   21  O   UNL     1     -40.037 -44.788   9.675  1.00  0.00    -0.267 OA
HETATM   22  C   UNL     1     -40.063 -44.823  12.020  1.00  0.00     0.081 C 
HETATM   23  C   UNL     1     -39.832 -45.518  13.139  1.00  0.00     0.081 C 
HETATM   24  C   UNL     1     -39.484 -46.953  13.100  1.00  0.00     0.262 C 
HETATM   25  O   UNL     1     -39.173 -47.537  14.134  1.00  0.00    -0.267 OA
ENDBRANCH  16  17
ENDBRANCH   2  16
TORSDOF 6
ENDMDL
MODEL 9
REMARK VINA RESULT:      -6.0      2.682      3.908
REMARK  6 active torsions:
REMARK  status: ('A' for Active; 'I' for Inactive)
REMARK    1  A    between atoms: N_7  and  C_8 
REMARK    2  A    between atoms: C_8  and  C_9 
REMARK    3  A    between atoms: C_9  and  C_10 
REMARK    4  A    between atoms: C_10  and  N_11 
REMARK       I    between atoms: N_11  and  C_12 
REMARK    5  A    between atoms: C_12  and  C_14 
REMARK    6  A    between atoms: C_14  and  N_15 
ROOT
HETATM    1  N   UNL     1     -41.820 -52.502  13.620  1.00  0.00    -0.360 N 
HETATM    2  C   UNL     1     -41.523 -52.064  12.347  1.00  0.00     0.237 C 
HETATM    3  O   UNL     1     -41.300 -52.826  11.408  1.00  0.00    -0.272 OA
HETATM    4  H   UNL     1     -41.873 -51.828  14.375  1.00  0.00     0.162 HD
ENDROOT
BRANCH   1   5
HETATM    5  C   UNL     1     -41.763 -53.907  13.965  1.00  0.00     0.124 C 
BRANCH   5   6
HETATM    6  C   UNL     1     -42.714 -54.286  15.100  1.00  0.00     0.050 C 
BRANCH   6   7
HETATM    7  C   UNL     1     -44.053 -54.838  14.585  1.00  0.00     0.274 C 
BRANCH   7   8
HETATM    8  N   UNL     1     -45.142 -53.840  14.561  1.00  0.00     0.089 N 
HETATM    9  C   UNL     1     -45.437 -53.372  13.196  1.00  0.00     0.276 C 
HETATM   10  C   UNL     1     -46.577 -52.341  13.166  1.00  0.00     0.010 C 
HETATM   11  C   UNL     1     -46.266 -51.163  14.094  1.00  0.00     0.012 C 
HETATM   12  C   UNL     1     -46.820 -51.864  11.735  1.00  0.00     0.011 C 
HETATM   13  C   UNL     1     -45.909 -51.646  15.506  1.00  0.00     0.010 C 
HETATM   14  C   UNL     1     -47.136 -52.172  16.257  1.00  0.00     0.011 C 
HETATM   15  C   UNL     1     -44.793 -52.704  15.434  1.00  0.00     0.276 C 
ENDBRANCH   7   8
ENDBRANCH   6   7
ENDBRANCH   5   6
ENDBRANCH   1   5
BRANCH   2  16
HETATM   16  C   UNL     1     -41.480 -50.547  12.178  1.00  0.00     0.255 C 
BRANCH  16  17
HETATM   17  N   UNL     1     -40.129 -50.052  12.399  1.00  0.00    -0.246 N 
HETATM   18  N   UNL     1     -39.100 -50.948  12.047  1.00  0.00    -0.261 N 
HETATM   19  C   UNL     1     -37.795 -50.728  12.391  1.00  0.00     0.260 C 
HETATM   20  H   UNL     1     -39.353 -51.925  11.897  1.00  0.00     0.190 HD
HETATM   21  O   UNL     1     -36.915 -51.568  12.249  1.00  0.00    -0.267 OA
HETATM   22  C   UNL     1     -37.482 -49.400  12.941  1.00  0.00     0.081 C 
HETATM   23  C   UNL     1     -38.453 -48.535  13.254  1.00  0.00     0.081 C 
HETATM   24  C   UNL     1     -39.879 -48.868  13.056  1.00  0.00     0.262 C 
HETATM   25  O   UNL     1     -40.749 -48.098  13.452  1.00  0.00    -0.267 OA
ENDBRANCH  16  17
ENDBRANCH   2  16
TORSDOF 6
ENDMDL
