MODEL 1
REMARK VINA RESULT:      -5.9      0.000      0.000
REMARK  4 active torsions:
REMARK  status: ('A' for Active; 'I' for Inactive)
REMARK    1  A    between atoms: N_5  and  C_6 
REMARK    2  A    between atoms: C_11  and  C_12 
REMARK    3  A    between atoms: C_12  and  C_13 
REMARK       I    between atoms: C_13  and  N_15 
REMARK    4  A    between atoms: N_15  and  C_16 
ROOT
HETATM    1  C   UNL     1     -46.545 -52.032  12.387  1.00  0.00     0.070 C 
HETATM    2  C   UNL     1     -46.484 -52.276  13.852  1.00  0.00     0.031 A 
HETATM    3  N   UNL     1     -46.950 -51.334  14.678  1.00  0.00    -0.298 N 
ATOM      4  HN  UNL     1     -47.326 -50.420  14.429  1.00  0.00     0.187 HD
HETATM    5  N   UNL     1     -46.812 -51.859  15.915  1.00  0.00    -0.236 N 
HETATM    6  C   UNL     1     -46.243 -53.111  15.898  1.00  0.00     0.039 A 
HETATM    7  C   UNL     1     -46.014 -53.921  17.126  1.00  0.00     0.070 C 
HETATM    8  C   UNL     1     -45.993 -53.410  14.562  1.00  0.00    -0.002 A 
ENDROOT
BRANCH   8   9
HETATM    9  C   UNL     1     -45.415 -54.692  14.043  1.00  0.00     0.145 C 
BRANCH   9  10
HETATM   10  C   UNL     1     -43.960 -54.942  14.407  1.00  0.00     0.222 C 
HETATM   11  O   UNL     1     -43.609 -55.850  15.156  1.00  0.00    -0.273 OA
HETATM   12  N   UNL     1     -43.075 -54.040  13.854  1.00  0.00    -0.356 N 
HETATM   13  H   UNL     1     -43.412 -53.498  13.069  1.00  0.00     0.162 HD
BRANCH  12  14
HETATM   14  C   UNL     1     -41.631 -54.112  14.083  1.00  0.00     0.088 C 
HETATM   15  C   UNL     1     -41.167 -52.987  15.013  1.00  0.00     0.051 C 
HETATM   16  C   UNL     1     -41.244 -51.639  14.310  1.00  0.00     0.169 C 
HETATM   17  O   UNL     1     -40.481 -51.654  13.104  1.00  0.00    -0.391 OA
HETATM   18  C   UNL     1     -40.923 -52.642  12.172  1.00  0.00     0.169 C 
HETATM   19  C   UNL     1     -40.844 -54.040  12.772  1.00  0.00     0.051 C 
ENDBRANCH  12  14
ENDBRANCH   9  10
ENDBRANCH   8   9
BRANCH   5  20
HETATM   20  C   UNL     1     -47.253 -51.090  17.078  1.00  0.00     0.479 C 
HETATM   21  F   UNL     1     -46.442 -50.020  17.307  1.00  0.00    -0.189 F 
HETATM   22  F   UNL     1     -48.507 -50.592  16.891  1.00  0.00    -0.189 F 
ENDBRANCH   5  20
TORSDOF 4
ENDMDL
MODEL 2
REMARK VINA RESULT:      -5.7      6.046      8.079
REMARK  4 active torsions:
REMARK  status: ('A' for Active; 'I' for Inactive)
REMARK    1  A    between atoms: N_5  and  C_6 
REMARK    2  A    between atoms: C_11  and  C_12 
REMARK    3  A    between atoms: C_12  and  C_13 
REMARK       I    between atoms: C_13  and  N_15 
REMARK    4  A    between atoms: N_15  and  C_16 
ROOT
HETATM    1  C   UNL     1     -40.215 -49.604  11.382  1.00  0.00     0.070 C 
HETATM    2  C   UNL     1     -40.636 -48.193  11.180  1.00  0.00     0.031 A 
HETATM    3  N   UNL     1     -39.696 -47.275  10.931  1.00  0.00    -0.298 N 
ATOM      4  HN  UNL     1     -38.686 -47.413  10.892  1.00  0.00     0.187 HD
HETATM    5  N   UNL     1     -40.378 -46.124  10.741  1.00  0.00    -0.236 N 
HETATM    6  C   UNL     1     -41.736 -46.284  10.890  1.00  0.00     0.039 A 
HETATM    7  C   UNL     1     -42.714 -45.178  10.698  1.00  0.00     0.070 C 
HETATM    8  C   UNL     1     -41.942 -47.625  11.199  1.00  0.00    -0.002 A 
ENDROOT
BRANCH   8   9
HETATM    9  C   UNL     1     -43.272 -48.282  11.410  1.00  0.00     0.145 C 
BRANCH   9  10
HETATM   10  C   UNL     1     -43.411 -49.067  12.705  1.00  0.00     0.222 C 
HETATM   11  O   UNL     1     -42.914 -48.694  13.764  1.00  0.00    -0.273 OA
HETATM   12  N   UNL     1     -44.110 -50.249  12.578  1.00  0.00    -0.356 N 
HETATM   13  H   UNL     1     -44.686 -50.349  11.752  1.00  0.00     0.162 HD
BRANCH  12  14
HETATM   14  C   UNL     1     -44.354 -51.146  13.709  1.00  0.00     0.088 C 
HETATM   15  C   UNL     1     -43.568 -52.451  13.553  1.00  0.00     0.051 C 
HETATM   16  C   UNL     1     -44.149 -53.299  12.430  1.00  0.00     0.169 C 
HETATM   17  O   UNL     1     -45.533 -53.559  12.657  1.00  0.00    -0.391 OA
HETATM   18  C   UNL     1     -46.321 -52.371  12.739  1.00  0.00     0.169 C 
HETATM   19  C   UNL     1     -45.841 -51.468  13.869  1.00  0.00     0.051 C 
ENDBRANCH  12  14
ENDBRANCH   9  10
ENDBRANCH   8   9
BRANCH   5  20
HETATM   20  C   UNL     1     -39.648 -44.899  10.419  1.00  0.00     0.479 C 
HETATM   21  F   UNL     1     -38.994 -44.405  11.508  1.00  0.00    -0.189 F 
HETATM   22  F   UNL     1     -38.700 -45.126   9.468  1.00  0.00    -0.189 F 
ENDBRANCH   5  20
TORSDOF 4
ENDMDL
MODEL 3
REMARK VINA RESULT:      -5.7      4.794      7.472
REMARK  4 active torsions:
REMARK  status: ('A' for Active; 'I' for Inactive)
REMARK    1  A    between atoms: N_5  and  C_6 
REMARK    2  A    between atoms: C_11  and  C_12 
REMARK    3  A    between atoms: C_12  and  C_13 
REMARK       I    between atoms: C_13  and  N_15 
REMARK    4  A    between atoms: N_15  and  C_16 
ROOT
HETATM    1  C   UNL     1     -41.686 -48.945  11.007  1.00  0.00     0.070 C 
HETATM    2  C   UNL     1     -40.569 -49.735  11.590  1.00  0.00     0.031 A 
HETATM    3  N   UNL     1     -39.349 -49.610  11.056  1.00  0.00    -0.298 N 
ATOM      4  HN  UNL     1     -39.079 -49.048  10.250  1.00  0.00     0.187 HD
HETATM    5  N   UNL     1     -38.555 -50.390  11.820  1.00  0.00    -0.236 N 
HETATM    6  C   UNL     1     -39.249 -51.034  12.819  1.00  0.00     0.039 A 
HETATM    7  C   UNL     1     -38.601 -51.926  13.819  1.00  0.00     0.070 C 
HETATM    8  C   UNL     1     -40.578 -50.645  12.686  1.00  0.00    -0.002 A 
ENDROOT
BRANCH   8   9
HETATM    9  C   UNL     1     -41.706 -51.058  13.582  1.00  0.00     0.145 C 
BRANCH   9  10
HETATM   10  C   UNL     1     -42.783 -51.906  12.921  1.00  0.00     0.222 C 
HETATM   11  O   UNL     1     -42.546 -52.676  11.995  1.00  0.00    -0.273 OA
HETATM   12  N   UNL     1     -44.050 -51.707  13.428  1.00  0.00    -0.356 N 
HETATM   13  H   UNL     1     -44.111 -51.260  14.334  1.00  0.00     0.162 HD
BRANCH  12  14
HETATM   14  C   UNL     1     -45.221 -52.429  12.928  1.00  0.00     0.088 C 
HETATM   15  C   UNL     1     -46.493 -51.591  13.091  1.00  0.00     0.051 C 
HETATM   16  C   UNL     1     -46.877 -51.476  14.560  1.00  0.00     0.169 C 
HETATM   17  O   UNL     1     -47.036 -52.767  15.144  1.00  0.00    -0.391 OA
HETATM   18  C   UNL     1     -45.851 -53.563  15.079  1.00  0.00     0.169 C 
HETATM   19  C   UNL     1     -45.406 -53.772  13.638  1.00  0.00     0.051 C 
ENDBRANCH  12  14
ENDBRANCH   9  10
ENDBRANCH   8   9
BRANCH   5  20
HETATM   20  C   UNL     1     -37.125 -50.471  11.526  1.00  0.00     0.479 C 
HETATM   21  F   UNL     1     -36.736 -51.753  11.281  1.00  0.00    -0.189 F 
HETATM   22  F   UNL     1     -36.812 -49.751  10.412  1.00  0.00    -0.189 F 
ENDBRANCH   5  20
TORSDOF 4
ENDMDL
MODEL 4
REMARK VINA RESULT:      -5.6      4.275      6.607
REMARK  4 active torsions:
REMARK  status: ('A' for Active; 'I' for Inactive)
REMARK    1  A    between atoms: N_5  and  C_6 
REMARK    2  A    between atoms: C_11  and  C_12 
REMARK    3  A    between atoms: C_12  and  C_13 
REMARK       I    between atoms: C_13  and  N_15 
REMARK    4  A    between atoms: N_15  and  C_16 
ROOT
HETATM    1  C   UNL     1     -37.915 -50.081  11.623  1.00  0.00     0.070 C 
HETATM    2  C   UNL     1     -39.342 -49.686  11.745  1.00  0.00     0.031 A 
HETATM    3  N   UNL     1     -39.795 -48.679  10.989  1.00  0.00    -0.298 N 
ATOM      4  HN  UNL     1     -39.262 -48.102  10.339  1.00  0.00     0.187 HD
HETATM    5  N   UNL     1     -41.112 -48.596  11.277  1.00  0.00    -0.236 N 
HETATM    6  C   UNL     1     -41.506 -49.513  12.223  1.00  0.00     0.039 A 
HETATM    7  C   UNL     1     -42.913 -49.652  12.690  1.00  0.00     0.070 C 
HETATM    8  C   UNL     1     -40.367 -50.233  12.570  1.00  0.00    -0.002 A 
ENDROOT
BRANCH   8   9
HETATM    9  C   UNL     1     -40.312 -51.375  13.538  1.00  0.00     0.145 C 
BRANCH   9  10
HETATM   10  C   UNL     1     -40.986 -52.656  13.071  1.00  0.00     0.222 C 
HETATM   11  O   UNL     1     -40.590 -53.300  12.103  1.00  0.00    -0.273 OA
HETATM   12  N   UNL     1     -42.099 -53.011  13.804  1.00  0.00    -0.356 N 
HETATM   13  H   UNL     1     -42.199 -52.579  14.714  1.00  0.00     0.162 HD
BRANCH  12  14
HETATM   14  C   UNL     1     -42.884 -54.212  13.514  1.00  0.00     0.088 C 
HETATM   15  C   UNL     1     -44.122 -53.868  12.680  1.00  0.00     0.051 C 
HETATM   16  C   UNL     1     -45.137 -53.099  13.514  1.00  0.00     0.169 C 
HETATM   17  O   UNL     1     -45.495 -53.837  14.682  1.00  0.00    -0.391 OA
HETATM   18  C   UNL     1     -44.381 -54.121  15.529  1.00  0.00     0.169 C 
HETATM   19  C   UNL     1     -43.320 -54.929  14.793  1.00  0.00     0.051 C 
ENDBRANCH  12  14
ENDBRANCH   9  10
ENDBRANCH   8   9
BRANCH   5  20
HETATM   20  C   UNL     1     -41.936 -47.596  10.598  1.00  0.00     0.479 C 
HETATM   21  F   UNL     1     -41.193 -46.534  10.181  1.00  0.00    -0.189 F 
HETATM   22  F   UNL     1     -42.524 -48.119   9.485  1.00  0.00    -0.189 F 
ENDBRANCH   5  20
TORSDOF 4
ENDMDL
MODEL 5
REMARK VINA RESULT:      -5.6      4.408      5.730
REMARK  4 active torsions:
REMARK  status: ('A' for Active; 'I' for Inactive)
REMARK    1  A    between atoms: N_5  and  C_6 
REMARK    2  A    between atoms: C_11  and  C_12 
REMARK    3  A    between atoms: C_12  and  C_13 
REMARK       I    between atoms: C_13  and  N_15 
REMARK    4  A    between atoms: N_15  and  C_16 
ROOT
HETATM    1  C   UNL     1     -41.607 -52.214  15.001  1.00  0.00     0.070 C 
HETATM    2  C   UNL     1     -42.969 -52.363  14.425  1.00  0.00     0.031 A 
HETATM    3  N   UNL     1     -43.585 -53.545  14.534  1.00  0.00    -0.298 N 
ATOM      4  HN  UNL     1     -43.217 -54.401  14.947  1.00  0.00     0.187 HD
HETATM    5  N   UNL     1     -44.801 -53.354  13.978  1.00  0.00    -0.236 N 
HETATM    6  C   UNL     1     -44.966 -52.078  13.491  1.00  0.00     0.039 A 
HETATM    7  C   UNL     1     -46.228 -51.601  12.862  1.00  0.00     0.070 C 
HETATM    8  C   UNL     1     -43.776 -51.404  13.748  1.00  0.00    -0.002 A 
ENDROOT
BRANCH   8   9
HETATM    9  C   UNL     1     -43.498 -49.965  13.434  1.00  0.00     0.145 C 
BRANCH   9  10
HETATM   10  C   UNL     1     -42.579 -49.725  12.246  1.00  0.00     0.222 C 
HETATM   11  O   UNL     1     -41.664 -50.488  11.950  1.00  0.00    -0.273 OA
HETATM   12  N   UNL     1     -42.839 -48.560  11.555  1.00  0.00    -0.356 N 
HETATM   13  H   UNL     1     -43.745 -48.135  11.707  1.00  0.00     0.162 HD
BRANCH  12  14
HETATM   14  C   UNL     1     -42.067 -48.151  10.380  1.00  0.00     0.088 C 
HETATM   15  C   UNL     1     -41.078 -47.037  10.735  1.00  0.00     0.051 C 
HETATM   16  C   UNL     1     -41.813 -45.734  11.019  1.00  0.00     0.169 C 
HETATM   17  O   UNL     1     -42.628 -45.362   9.909  1.00  0.00    -0.391 OA
HETATM   18  C   UNL     1     -43.616 -46.341   9.583  1.00  0.00     0.169 C 
HETATM   19  C   UNL     1     -42.973 -47.679   9.241  1.00  0.00     0.051 C 
ENDBRANCH  12  14
ENDBRANCH   9  10
ENDBRANCH   8   9
BRANCH   5  20
HETATM   20  C   UNL     1     -45.760 -54.457  13.948  1.00  0.00     0.479 C 
HETATM   21  F   UNL     1     -45.136 -55.662  13.831  1.00  0.00    -0.189 F 
HETATM   22  F   UNL     1     -46.487 -54.507  15.100  1.00  0.00    -0.189 F 
ENDBRANCH   5  20
TORSDOF 4
ENDMDL
MODEL 6
REMARK VINA RESULT:      -5.5      2.999      3.930
REMARK  4 active torsions:
REMARK  status: ('A' for Active; 'I' for Inactive)
REMARK    1  A    between atoms: N_5  and  C_6 
REMARK    2  A    between atoms: C_11  and  C_12 
REMARK    3  A    between atoms: C_12  and  C_13 
REMARK       I    between atoms: C_13  and  N_15 
REMARK    4  A    between atoms: N_15  and  C_16 
ROOT
HETATM    1  C   UNL     1     -42.161 -53.050  12.549  1.00  0.00     0.070 C 
HETATM    2  C   UNL     1     -43.551 -53.164  13.064  1.00  0.00     0.031 A 
HETATM    3  N   UNL     1     -44.449 -52.247  12.688  1.00  0.00    -0.298 N 
ATOM      4  HN  UNL     1     -44.294 -51.430  12.098  1.00  0.00     0.187 HD
HETATM    5  N   UNL     1     -45.607 -52.643  13.259  1.00  0.00    -0.236 N 
HETATM    6  C   UNL     1     -45.461 -53.782  14.016  1.00  0.00     0.039 A 
HETATM    7  C   UNL     1     -46.592 -54.444  14.723  1.00  0.00     0.070 C 
HETATM    8  C   UNL     1     -44.120 -54.142  13.929  1.00  0.00    -0.002 A 
ENDROOT
BRANCH   8   9
HETATM    9  C   UNL     1     -43.492 -55.349  14.558  1.00  0.00     0.145 C 
BRANCH   9  10
HETATM   10  C   UNL     1     -42.820 -55.106  15.900  1.00  0.00     0.222 C 
HETATM   11  O   UNL     1     -43.452 -54.948  16.941  1.00  0.00    -0.273 OA
HETATM   12  N   UNL     1     -41.443 -55.043  15.840  1.00  0.00    -0.356 N 
HETATM   13  H   UNL     1     -41.007 -55.428  15.013  1.00  0.00     0.162 HD
BRANCH  12  14
HETATM   14  C   UNL     1     -40.613 -54.819  17.025  1.00  0.00     0.088 C 
HETATM   15  C   UNL     1     -39.201 -54.377  16.628  1.00  0.00     0.051 C 
HETATM   16  C   UNL     1     -38.433 -55.530  15.997  1.00  0.00     0.169 C 
HETATM   17  O   UNL     1     -38.391 -56.652  16.877  1.00  0.00    -0.391 OA
HETATM   18  C   UNL     1     -39.686 -57.146  17.221  1.00  0.00     0.169 C 
HETATM   19  C   UNL     1     -40.523 -56.070  17.901  1.00  0.00     0.051 C 
ENDBRANCH  12  14
ENDBRANCH   9  10
ENDBRANCH   8   9
BRANCH   5  20
HETATM   20  C   UNL     1     -46.825 -51.866  13.033  1.00  0.00     0.479 C 
HETATM   21  F   UNL     1     -47.054 -50.987  14.048  1.00  0.00    -0.189 F 
HETATM   22  F   UNL     1     -46.732 -51.126  11.893  1.00  0.00    -0.189 F 
ENDBRANCH   5  20
TORSDOF 4
ENDMDL
MODEL 7
REMARK VINA RESULT:      -5.5      2.991      4.237
REMARK  4 active torsions:
REMARK  status: ('A' for Active; 'I' for Inactive)
REMARK    1  A    between atoms: N_5  and  C_6 
REMARK    2  A    between atoms: C_11  and  C_12 
REMARK    3  A    between atoms: C_12  and  C_13 
REMARK       I    between atoms: C_13  and  N_15 
REMARK    4  A    between atoms: N_15  and  C_16 
ROOT
HETATM    1  C   UNL     1     -42.451 -50.108  15.673  1.00  0.00     0.070 C 
HETATM    2  C   UNL     1     -43.276 -51.049  14.870  1.00  0.00     0.031 A 
HETATM    3  N   UNL     1     -44.561 -50.748  14.653  1.00  0.00    -0.298 N 
ATOM      4  HN  UNL     1     -45.080 -49.945  15.006  1.00  0.00     0.187 HD
HETATM    5  N   UNL     1     -45.020 -51.742  13.862  1.00  0.00    -0.236 N 
HETATM    6  C   UNL     1     -44.059 -52.688  13.590  1.00  0.00     0.039 A 
HETATM    7  C   UNL     1     -44.299 -53.868  12.713  1.00  0.00     0.070 C 
HETATM    8  C   UNL     1     -42.906 -52.278  14.251  1.00  0.00    -0.002 A 
ENDROOT
BRANCH   8   9
HETATM    9  C   UNL     1     -41.578 -52.972  14.213  1.00  0.00     0.145 C 
BRANCH   9  10
HETATM   10  C   UNL     1     -40.644 -52.526  13.099  1.00  0.00     0.222 C 
HETATM   11  O   UNL     1     -40.503 -53.160  12.057  1.00  0.00    -0.273 OA
HETATM   12  N   UNL     1     -39.944 -51.370  13.377  1.00  0.00    -0.356 N 
HETATM   13  H   UNL     1     -40.301 -50.792  14.126  1.00  0.00     0.162 HD
BRANCH  12  14
HETATM   14  C   UNL     1     -38.997 -50.777  12.431  1.00  0.00     0.088 C 
HETATM   15  C   UNL     1     -37.560 -50.891  12.950  1.00  0.00     0.051 C 
HETATM   16  C   UNL     1     -37.342 -49.966  14.140  1.00  0.00     0.169 C 
HETATM   17  O   UNL     1     -37.657 -48.618  13.796  1.00  0.00    -0.391 OA
HETATM   18  C   UNL     1     -39.010 -48.448  13.372  1.00  0.00     0.169 C 
HETATM   19  C   UNL     1     -39.317 -49.307  12.153  1.00  0.00     0.051 C 
ENDBRANCH  12  14
ENDBRANCH   9  10
ENDBRANCH   8   9
BRANCH   5  20
HETATM   20  C   UNL     1     -46.409 -51.717  13.405  1.00  0.00     0.479 C 
HETATM   21  F   UNL     1     -47.201 -51.000  14.249  1.00  0.00    -0.189 F 
HETATM   22  F   UNL     1     -46.513 -51.128  12.181  1.00  0.00    -0.189 F 
ENDBRANCH   5  20
TORSDOF 4
ENDMDL
MODEL 8
REMARK VINA RESULT:      -5.3      6.274      8.057
REMARK  4 active torsions:
REMARK  status: ('A' for Active; 'I' for Inactive)
REMARK    1  A    between atoms: N_5  and  C_6 
REMARK    2  A    between atoms: C_11  and  C_12 
REMARK    3  A    between atoms: C_12  and  C_13 
REMARK       I    between atoms: C_13  and  N_15 
REMARK    4  A    between atoms: N_15  and  C_16 
ROOT
HETATM    1  C   UNL     1     -41.853 -43.267  11.345  1.00  0.00     0.070 C 
HETATM    2  C   UNL     1     -42.138 -44.664  10.928  1.00  0.00     0.031 A 
HETATM    3  N   UNL     1     -43.301 -44.926  10.320  1.00  0.00    -0.298 N 
ATOM      4  HN  UNL     1     -44.062 -44.275  10.127  1.00  0.00     0.187 HD
HETATM    5  N   UNL     1     -43.246 -46.241  10.018  1.00  0.00    -0.236 N 
HETATM    6  C   UNL     1     -42.079 -46.833  10.445  1.00  0.00     0.039 A 
HETATM    7  C   UNL     1     -41.756 -48.267  10.205  1.00  0.00     0.070 C 
HETATM    8  C   UNL     1     -41.336 -45.833  11.065  1.00  0.00    -0.002 A 
ENDROOT
BRANCH   8   9
HETATM    9  C   UNL     1     -39.966 -45.995  11.651  1.00  0.00     0.145 C 
BRANCH   9  10
HETATM   10  C   UNL     1     -39.892 -46.860  12.900  1.00  0.00     0.222 C 
HETATM   11  O   UNL     1     -40.225 -46.455  14.010  1.00  0.00    -0.273 OA
HETATM   12  N   UNL     1     -39.386 -48.125  12.682  1.00  0.00    -0.356 N 
HETATM   13  H   UNL     1     -39.380 -48.452  11.725  1.00  0.00     0.162 HD
BRANCH  12  14
HETATM   14  C   UNL     1     -39.238 -49.109  13.756  1.00  0.00     0.088 C 
HETATM   15  C   UNL     1     -37.821 -49.693  13.772  1.00  0.00     0.051 C 
HETATM   16  C   UNL     1     -37.597 -50.597  12.568  1.00  0.00     0.169 C 
HETATM   17  O   UNL     1     -38.577 -51.633  12.524  1.00  0.00    -0.391 OA
HETATM   18  C   UNL     1     -39.914 -51.138  12.437  1.00  0.00     0.169 C 
HETATM   19  C   UNL     1     -40.251 -50.248  13.626  1.00  0.00     0.051 C 
ENDBRANCH  12  14
ENDBRANCH   9  10
ENDBRANCH   8   9
BRANCH   5  20
HETATM   20  C   UNL     1     -44.364 -46.867   9.315  1.00  0.00     0.479 C 
HETATM   21  F   UNL     1     -45.131 -47.613  10.157  1.00  0.00    -0.189 F 
HETATM   22  F   UNL     1     -45.188 -45.929   8.769  1.00  0.00    -0.189 F 
ENDBRANCH   5  20
TORSDOF 4
ENDMDL
MODEL 9
REMARK VINA RESULT:      -5.1      5.691      7.513
REMARK  4 active torsions:
REMARK  status: ('A' for Active; 'I' for Inactive)
REMARK    1  A    between atoms: N_5  and  C_6 
REMARK    2  A    between atoms: C_11  and  C_12 
REMARK    3  A    between atoms: C_12  and  C_13 
REMARK       I    between atoms: C_13  and  N_15 
REMARK    4  A    between atoms: N_15  and  C_16 
ROOT
HETATM    1  C   UNL     1     -39.716 -45.269  10.264  1.00  0.00     0.070 C 
HETATM    2  C   UNL     1     -40.944 -46.082  10.463  1.00  0.00     0.031 A 
HETATM    3  N   UNL     1     -41.947 -45.952   9.588  1.00  0.00    -0.298 N 
ATOM      4  HN  UNL     1     -41.996 -45.321   8.788  1.00  0.00     0.187 HD
HETATM    5  N   UNL     1     -42.878 -46.841   9.994  1.00  0.00    -0.236 N 
HETATM    6  C   UNL     1     -42.502 -47.520  11.130  1.00  0.00     0.039 A 
HETATM    7  C   UNL     1     -43.335 -48.580  11.762  1.00  0.00     0.070 C 
HETATM    8  C   UNL     1     -41.246 -47.033  11.480  1.00  0.00    -0.002 A 
ENDROOT
BRANCH   8   9
HETATM    9  C   UNL     1     -40.412 -47.506  12.631  1.00  0.00     0.145 C 
BRANCH   9  10
HETATM   10  C   UNL     1     -39.613 -48.775  12.377  1.00  0.00     0.222 C 
HETATM   11  O   UNL     1     -38.554 -48.781  11.755  1.00  0.00    -0.273 OA
HETATM   12  N   UNL     1     -40.200 -49.921  12.873  1.00  0.00    -0.356 N 
HETATM   13  H   UNL     1     -40.919 -49.796  13.573  1.00  0.00     0.162 HD
BRANCH  12  14
HETATM   14  C   UNL     1     -39.587 -51.243  12.732  1.00  0.00     0.088 C 
HETATM   15  C   UNL     1     -40.653 -52.321  12.512  1.00  0.00     0.051 C 
HETATM   16  C   UNL     1     -41.458 -52.550  13.784  1.00  0.00     0.169 C 
HETATM   17  O   UNL     1     -40.600 -52.893  14.871  1.00  0.00    -0.391 OA
HETATM   18  C   UNL     1     -39.631 -51.885  15.161  1.00  0.00     0.169 C 
HETATM   19  C   UNL     1     -38.742 -51.611  13.954  1.00  0.00     0.051 C 
ENDBRANCH  12  14
ENDBRANCH   9  10
ENDBRANCH   8   9
BRANCH   5  20
HETATM   20  C   UNL     1     -44.120 -46.983   9.235  1.00  0.00     0.479 C 
HETATM   21  F   UNL     1     -44.562 -45.781   8.770  1.00  0.00    -0.189 F 
HETATM   22  F   UNL     1     -43.940 -47.778   8.143  1.00  0.00    -0.189 F 
ENDBRANCH   5  20
TORSDOF 4
ENDMDL
