MODEL 1
REMARK VINA RESULT:      -7.3      0.000      0.000
REMARK  7 active torsions:
REMARK  status: ('A' for Active; 'I' for Inactive)
REMARK    1  A    between atoms: N_2  and  C_14 
REMARK    2  A    between atoms: C_6  and  N_7 
REMARK    3  A    between atoms: C_13  and  C_14 
REMARK    4  A    between atoms: C_13  and  C_26 
REMARK       I    between atoms: C_17  and  N_19 
REMARK    5  A    between atoms: N_19  and  C_24 
REMARK    6  A    between atoms: C_21  and  C_24 
REMARK    7  A    between atoms: C_26  and  O_27 
ROOT
HETATM    1  C   UNL     1     -42.073 -49.825  12.179  1.00  0.00     0.117 A 
HETATM    2  N   UNL     1     -42.629 -51.485  13.481  1.00  0.00    -0.326 N 
HETATM    3  C   UNL     1     -41.639 -51.055  12.643  1.00  0.00     0.140 A 
HETATM    4  N   UNL     1     -43.321 -49.528  12.697  1.00  0.00    -0.346 N 
ATOM      5  HN  UNL     1     -43.882 -48.694  12.524  1.00  0.00     0.167 HD
HETATM    6  C   UNL     1     -41.196 -49.121  11.325  1.00  0.00     0.114 A 
HETATM    7  C   UNL     1     -43.628 -50.553  13.461  1.00  0.00     0.185 A 
HETATM    8  N   UNL     1     -40.488 -51.680  12.354  1.00  0.00    -0.336 N 
ATOM      9  HN  UNL     1     -40.221 -52.596  12.713  1.00  0.00     0.168 HD
HETATM   10  N   UNL     1     -40.005 -49.713  11.023  1.00  0.00    -0.341 N 
ATOM     11  HN  UNL     1     -39.330 -49.238  10.424  1.00  0.00     0.167 HD
HETATM   12  C   UNL     1     -39.733 -50.934  11.527  1.00  0.00     0.183 A 
ENDROOT
BRANCH   6  13
HETATM   13  N   UNL     1     -41.500 -47.838  10.852  1.00  0.00    -0.267 NA
HETATM   14  C   UNL     1     -42.824 -47.725  10.241  1.00  0.00     0.103 C 
HETATM   15  C   UNL     1     -42.866 -46.402   9.459  1.00  0.00     0.017 C 
HETATM   16  C   UNL     1     -42.560 -45.226  10.406  1.00  0.00     0.009 C 
HETATM   17  C   UNL     1     -41.250 -45.442  11.170  1.00  0.00     0.015 C 
HETATM   18  C   UNL     1     -41.213 -46.809  11.854  1.00  0.00     0.097 C 
BRANCH  15  19
HETATM   19  C   UNL     1     -44.219 -46.201   8.772  1.00  0.00     0.128 C 
BRANCH  19  20
HETATM   20  N   UNL     1     -44.855 -47.460   8.419  1.00  0.00    -0.361 N 
HETATM   21  C   UNL     1     -46.180 -47.699   8.709  1.00  0.00     0.213 C 
HETATM   22  O   UNL     1     -46.890 -46.902   9.317  1.00  0.00    -0.274 OA
HETATM   23  C   UNL     1     -46.686 -49.039   8.256  1.00  0.00     0.117 C 
HETATM   24  H   UNL     1     -44.394 -48.052   7.738  1.00  0.00     0.162 HD
ENDBRANCH  19  20
ENDBRANCH  15  19
ENDBRANCH   6  13
BRANCH   2  25
HETATM   25  C   UNL     1     -42.625 -52.738  14.216  1.00  0.00     0.147 C 
BRANCH  25  26
HETATM   26  C   UNL     1     -43.860 -53.599  13.984  1.00  0.00     0.040 C 
HETATM   27  C   UNL     1     -45.068 -53.403  14.926  1.00  0.00     0.183 C 
HETATM   28  O   UNL     1     -45.096 -54.824  15.223  1.00  0.00    -0.389 OA
HETATM   29  C   UNL     1     -43.753 -54.964  14.694  1.00  0.00     0.183 C 
BRANCH  26  30
HETATM   30  C   UNL     1     -44.297 -53.703  12.526  1.00  0.00     0.179 C 
BRANCH  30  31
HETATM   31  O   UNL     1     -45.716 -53.621  12.449  1.00  0.00    -0.400 OA
HETATM   32  H   UNL     1     -46.096 -54.199  13.131  1.00  0.00     0.209 HD
ENDBRANCH  30  31
ENDBRANCH  26  30
ENDBRANCH  25  26
ENDBRANCH   2  25
TORSDOF 7
ENDMDL
MODEL 2
REMARK VINA RESULT:      -7.1      1.638      2.245
REMARK  7 active torsions:
REMARK  status: ('A' for Active; 'I' for Inactive)
REMARK    1  A    between atoms: N_2  and  C_14 
REMARK    2  A    between atoms: C_6  and  N_7 
REMARK    3  A    between atoms: C_13  and  C_14 
REMARK    4  A    between atoms: C_13  and  C_26 
REMARK       I    between atoms: C_17  and  N_19 
REMARK    5  A    between atoms: N_19  and  C_24 
REMARK    6  A    between atoms: C_21  and  C_24 
REMARK    7  A    between atoms: C_26  and  O_27 
ROOT
HETATM    1  C   UNL     1     -42.608 -49.964  13.148  1.00  0.00     0.117 A 
HETATM    2  N   UNL     1     -43.288 -51.915  13.848  1.00  0.00    -0.326 N 
HETATM    3  C   UNL     1     -43.136 -50.617  14.248  1.00  0.00     0.140 A 
HETATM    4  N   UNL     1     -42.408 -50.856  12.109  1.00  0.00    -0.346 N 
ATOM      5  HN  UNL     1     -42.029 -50.654  11.184  1.00  0.00     0.167 HD
HETATM    6  C   UNL     1     -42.403 -48.573  13.272  1.00  0.00     0.114 A 
HETATM    7  C   UNL     1     -42.814 -52.017  12.570  1.00  0.00     0.185 A 
HETATM    8  N   UNL     1     -43.453 -50.090  15.440  1.00  0.00    -0.336 N 
ATOM      9  HN  UNL     1     -43.827 -50.621  16.226  1.00  0.00     0.168 HD
HETATM   10  N   UNL     1     -42.732 -47.993  14.461  1.00  0.00    -0.341 N 
ATOM     11  HN  UNL     1     -42.619 -46.988  14.596  1.00  0.00     0.167 HD
HETATM   12  C   UNL     1     -43.210 -48.767  15.458  1.00  0.00     0.183 A 
ENDROOT
BRANCH   6  13
HETATM   13  N   UNL     1     -41.941 -47.798  12.201  1.00  0.00    -0.267 NA
HETATM   14  C   UNL     1     -43.001 -47.136  11.440  1.00  0.00     0.103 C 
HETATM   15  C   UNL     1     -42.390 -46.646  10.116  1.00  0.00     0.017 C 
HETATM   16  C   UNL     1     -41.207 -45.702  10.406  1.00  0.00     0.009 C 
HETATM   17  C   UNL     1     -40.187 -46.349  11.347  1.00  0.00     0.015 C 
HETATM   18  C   UNL     1     -40.851 -46.907  12.606  1.00  0.00     0.097 C 
BRANCH  15  19
HETATM   19  C   UNL     1     -43.436 -45.946   9.244  1.00  0.00     0.128 C 
BRANCH  19  20
HETATM   20  N   UNL     1     -44.761 -46.526   9.392  1.00  0.00    -0.361 N 
HETATM   21  C   UNL     1     -45.156 -47.612   8.643  1.00  0.00     0.213 C 
HETATM   22  O   UNL     1     -44.450 -48.126   7.780  1.00  0.00    -0.274 OA
HETATM   23  C   UNL     1     -46.546 -48.099   8.936  1.00  0.00     0.117 C 
HETATM   24  H   UNL     1     -45.293 -46.291  10.222  1.00  0.00     0.162 HD
ENDBRANCH  19  20
ENDBRANCH  15  19
ENDBRANCH   6  13
BRANCH   2  25
HETATM   25  C   UNL     1     -43.817 -52.992  14.666  1.00  0.00     0.147 C 
BRANCH  25  26
HETATM   26  C   UNL     1     -45.206 -53.462  14.254  1.00  0.00     0.040 C 
HETATM   27  C   UNL     1     -46.069 -54.190  15.310  1.00  0.00     0.183 C 
HETATM   28  O   UNL     1     -46.279 -55.303  14.403  1.00  0.00    -0.389 OA
HETATM   29  C   UNL     1     -45.171 -54.851  13.584  1.00  0.00     0.183 C 
BRANCH  26  30
HETATM   30  C   UNL     1     -46.021 -52.432  13.478  1.00  0.00     0.179 C 
BRANCH  30  31
HETATM   31  O   UNL     1     -46.443 -52.994  12.241  1.00  0.00    -0.400 OA
HETATM   32  H   UNL     1     -47.209 -53.568  12.408  1.00  0.00     0.209 HD
ENDBRANCH  30  31
ENDBRANCH  26  30
ENDBRANCH  25  26
ENDBRANCH   2  25
TORSDOF 7
ENDMDL
MODEL 3
REMARK VINA RESULT:      -7.0      2.147      2.586
REMARK  7 active torsions:
REMARK  status: ('A' for Active; 'I' for Inactive)
REMARK    1  A    between atoms: N_2  and  C_14 
REMARK    2  A    between atoms: C_6  and  N_7 
REMARK    3  A    between atoms: C_13  and  C_14 
REMARK    4  A    between atoms: C_13  and  C_26 
REMARK       I    between atoms: C_17  and  N_19 
REMARK    5  A    between atoms: N_19  and  C_24 
REMARK    6  A    between atoms: C_21  and  C_24 
REMARK    7  A    between atoms: C_26  and  O_27 
ROOT
HETATM    1  C   UNL     1     -41.109 -50.111  11.894  1.00  0.00     0.117 A 
HETATM    2  N   UNL     1     -41.267 -52.200  12.505  1.00  0.00    -0.326 N 
HETATM    3  C   UNL     1     -40.355 -51.241  12.161  1.00  0.00     0.140 A 
HETATM    4  N   UNL     1     -42.457 -50.387  12.037  1.00  0.00    -0.346 N 
ATOM      5  HN  UNL     1     -43.238 -49.746  11.900  1.00  0.00     0.167 HD
HETATM    6  C   UNL     1     -40.398 -48.936  11.565  1.00  0.00     0.114 A 
HETATM    7  C   UNL     1     -42.513 -51.651  12.390  1.00  0.00     0.185 A 
HETATM    8  N   UNL     1     -39.020 -51.366  12.116  1.00  0.00    -0.336 N 
ATOM      9  HN  UNL     1     -38.512 -52.229  12.309  1.00  0.00     0.168 HD
HETATM   10  N   UNL     1     -39.038 -49.014  11.528  1.00  0.00    -0.341 N 
ATOM     11  HN  UNL     1     -38.478 -48.189  11.312  1.00  0.00     0.167 HD
HETATM   12  C   UNL     1     -38.442 -50.197  11.782  1.00  0.00     0.183 A 
ENDROOT
BRANCH   6  13
HETATM   13  N   UNL     1     -41.053 -47.717  11.344  1.00  0.00    -0.267 NA
HETATM   14  C   UNL     1     -41.989 -47.737  10.220  1.00  0.00     0.103 C 
HETATM   15  C   UNL     1     -42.337 -46.279   9.877  1.00  0.00     0.017 C 
HETATM   16  C   UNL     1     -42.929 -45.578  11.115  1.00  0.00     0.009 C 
HETATM   17  C   UNL     1     -42.012 -45.716  12.334  1.00  0.00     0.015 C 
HETATM   18  C   UNL     1     -41.615 -47.172  12.582  1.00  0.00     0.097 C 
BRANCH  15  19
HETATM   19  C   UNL     1     -43.309 -46.200   8.697  1.00  0.00     0.128 C 
BRANCH  19  20
HETATM   20  N   UNL     1     -44.699 -46.272   9.116  1.00  0.00    -0.361 N 
HETATM   21  C   UNL     1     -45.501 -47.334   8.760  1.00  0.00     0.213 C 
HETATM   22  O   UNL     1     -45.120 -48.251   8.037  1.00  0.00    -0.274 OA
HETATM   23  C   UNL     1     -46.902 -47.265   9.295  1.00  0.00     0.117 C 
HETATM   24  H   UNL     1     -44.998 -45.674   9.877  1.00  0.00     0.162 HD
ENDBRANCH  19  20
ENDBRANCH  15  19
ENDBRANCH   6  13
BRANCH   2  25
HETATM   25  C   UNL     1     -40.950 -53.568  12.877  1.00  0.00     0.147 C 
BRANCH  25  26
HETATM   26  C   UNL     1     -40.602 -53.747  14.350  1.00  0.00     0.040 C 
HETATM   27  C   UNL     1     -41.559 -54.588  15.224  1.00  0.00     0.183 C 
HETATM   28  O   UNL     1     -41.665 -53.508  16.187  1.00  0.00    -0.389 OA
HETATM   29  C   UNL     1     -41.126 -52.579  15.212  1.00  0.00     0.183 C 
BRANCH  26  30
HETATM   30  C   UNL     1     -39.142 -54.097  14.620  1.00  0.00     0.179 C 
BRANCH  30  31
HETATM   31  O   UNL     1     -38.456 -54.260  13.383  1.00  0.00    -0.400 OA
HETATM   32  H   UNL     1     -37.984 -53.435  13.180  1.00  0.00     0.209 HD
ENDBRANCH  30  31
ENDBRANCH  26  30
ENDBRANCH  25  26
ENDBRANCH   2  25
TORSDOF 7
ENDMDL
MODEL 4
REMARK VINA RESULT:      -7.0      2.686      7.161
REMARK  7 active torsions:
REMARK  status: ('A' for Active; 'I' for Inactive)
REMARK    1  A    between atoms: N_2  and  C_14 
REMARK    2  A    between atoms: C_6  and  N_7 
REMARK    3  A    between atoms: C_13  and  C_14 
REMARK    4  A    between atoms: C_13  and  C_26 
REMARK       I    between atoms: C_17  and  N_19 
REMARK    5  A    between atoms: N_19  and  C_24 
REMARK    6  A    between atoms: C_21  and  C_24 
REMARK    7  A    between atoms: C_26  and  O_27 
ROOT
HETATM    1  C   UNL     1     -40.498 -49.366  13.198  1.00  0.00     0.117 A 
HETATM    2  N   UNL     1     -40.385 -47.195  13.023  1.00  0.00    -0.326 N 
HETATM    3  C   UNL     1     -39.817 -48.347  12.555  1.00  0.00     0.140 A 
HETATM    4  N   UNL     1     -41.438 -48.844  14.068  1.00  0.00    -0.346 N 
ATOM      5  HN  UNL     1     -42.077 -49.361  14.673  1.00  0.00     0.167 HD
HETATM    6  C   UNL     1     -40.144 -50.687  12.846  1.00  0.00     0.114 A 
HETATM    7  C   UNL     1     -41.331 -47.540  13.947  1.00  0.00     0.185 A 
HETATM    8  N   UNL     1     -38.833 -48.460  11.652  1.00  0.00    -0.336 N 
ATOM      9  HN  UNL     1     -38.352 -47.673  11.217  1.00  0.00     0.168 HD
HETATM   10  N   UNL     1     -39.161 -50.847  11.915  1.00  0.00    -0.341 N 
ATOM     11  HN  UNL     1     -38.880 -51.781  11.615  1.00  0.00     0.167 HD
HETATM   12  C   UNL     1     -38.564 -49.754  11.397  1.00  0.00     0.183 A 
ENDROOT
BRANCH   6  13
HETATM   13  N   UNL     1     -40.814 -51.796  13.379  1.00  0.00    -0.267 NA
HETATM   14  C   UNL     1     -41.882 -52.316  12.526  1.00  0.00     0.103 C 
HETATM   15  C   UNL     1     -42.744 -53.261  13.380  1.00  0.00     0.017 C 
HETATM   16  C   UNL     1     -41.865 -54.386  13.961  1.00  0.00     0.009 C 
HETATM   17  C   UNL     1     -40.651 -53.825  14.707  1.00  0.00     0.015 C 
HETATM   18  C   UNL     1     -39.878 -52.818  13.855  1.00  0.00     0.097 C 
BRANCH  15  19
HETATM   19  C   UNL     1     -43.902 -53.847  12.569  1.00  0.00     0.128 C 
BRANCH  19  20
HETATM   20  N   UNL     1     -44.838 -52.830  12.121  1.00  0.00    -0.361 N 
HETATM   21  C   UNL     1     -46.009 -52.583  12.802  1.00  0.00     0.213 C 
HETATM   22  O   UNL     1     -46.362 -53.225  13.788  1.00  0.00    -0.274 OA
HETATM   23  C   UNL     1     -46.851 -51.484  12.219  1.00  0.00     0.117 C 
HETATM   24  H   UNL     1     -44.507 -52.135  11.461  1.00  0.00     0.162 HD
ENDBRANCH  19  20
ENDBRANCH  15  19
ENDBRANCH   6  13
BRANCH   2  25
HETATM   25  C   UNL     1     -40.003 -45.849  12.633  1.00  0.00     0.147 C 
BRANCH  25  26
HETATM   26  C   UNL     1     -40.544 -45.419  11.275  1.00  0.00     0.040 C 
HETATM   27  C   UNL     1     -39.536 -45.233  10.119  1.00  0.00     0.183 C 
HETATM   28  O   UNL     1     -40.037 -43.894   9.867  1.00  0.00    -0.389 OA
HETATM   29  C   UNL     1     -40.680 -43.886  11.167  1.00  0.00     0.183 C 
BRANCH  26  30
HETATM   30  C   UNL     1     -41.788 -46.175  10.817  1.00  0.00     0.179 C 
BRANCH  30  31
HETATM   31  O   UNL     1     -42.001 -45.942   9.429  1.00  0.00    -0.400 OA
HETATM   32  H   UNL     1     -42.105 -46.800   8.985  1.00  0.00     0.209 HD
ENDBRANCH  30  31
ENDBRANCH  26  30
ENDBRANCH  25  26
ENDBRANCH   2  25
TORSDOF 7
ENDMDL
MODEL 5
REMARK VINA RESULT:      -6.9      2.502      6.997
REMARK  7 active torsions:
REMARK  status: ('A' for Active; 'I' for Inactive)
REMARK    1  A    between atoms: N_2  and  C_14 
REMARK    2  A    between atoms: C_6  and  N_7 
REMARK    3  A    between atoms: C_13  and  C_14 
REMARK    4  A    between atoms: C_13  and  C_26 
REMARK       I    between atoms: C_17  and  N_19 
REMARK    5  A    between atoms: N_19  and  C_24 
REMARK    6  A    between atoms: C_21  and  C_24 
REMARK    7  A    between atoms: C_26  and  O_27 
ROOT
HETATM    1  C   UNL     1     -41.545 -49.480  12.039  1.00  0.00     0.117 A 
HETATM    2  N   UNL     1     -41.983 -47.617  10.991  1.00  0.00    -0.326 N 
HETATM    3  C   UNL     1     -40.949 -48.434  11.355  1.00  0.00     0.140 A 
HETATM    4  N   UNL     1     -42.912 -49.285  12.121  1.00  0.00    -0.346 N 
ATOM      5  HN  UNL     1     -43.599 -49.891  12.571  1.00  0.00     0.167 HD
HETATM    6  C   UNL     1     -40.694 -50.516  12.483  1.00  0.00     0.114 A 
HETATM    7  C   UNL     1     -43.135 -48.151  11.495  1.00  0.00     0.185 A 
HETATM    8  N   UNL     1     -39.646 -48.268  11.085  1.00  0.00    -0.336 N 
ATOM      9  HN  UNL     1     -39.255 -47.468  10.588  1.00  0.00     0.168 HD
HETATM   10  N   UNL     1     -39.364 -50.396  12.211  1.00  0.00    -0.341 N 
ATOM     11  HN  UNL     1     -38.710 -51.125  12.495  1.00  0.00     0.167 HD
HETATM   12  C   UNL     1     -38.924 -49.299  11.560  1.00  0.00     0.183 A 
ENDROOT
BRANCH   6  13
HETATM   13  N   UNL     1     -41.195 -51.657  13.122  1.00  0.00    -0.267 NA
HETATM   14  C   UNL     1     -42.339 -52.268  12.446  1.00  0.00     0.103 C 
HETATM   15  C   UNL     1     -42.993 -53.252  13.430  1.00  0.00     0.017 C 
HETATM   16  C   UNL     1     -41.959 -54.300  13.884  1.00  0.00     0.009 C 
HETATM   17  C   UNL     1     -40.691 -53.640  14.433  1.00  0.00     0.015 C 
HETATM   18  C   UNL     1     -40.128 -52.601  13.463  1.00  0.00     0.097 C 
BRANCH  15  19
HETATM   19  C   UNL     1     -44.214 -53.935  12.808  1.00  0.00     0.128 C 
BRANCH  19  20
HETATM   20  N   UNL     1     -45.073 -53.001  12.099  1.00  0.00    -0.361 N 
HETATM   21  C   UNL     1     -46.208 -52.485  12.685  1.00  0.00     0.213 C 
HETATM   22  O   UNL     1     -46.593 -52.810  13.805  1.00  0.00    -0.274 OA
HETATM   23  C   UNL     1     -46.969 -51.517  11.826  1.00  0.00     0.117 C 
HETATM   24  H   UNL     1     -44.699 -52.537  11.280  1.00  0.00     0.162 HD
ENDBRANCH  19  20
ENDBRANCH  15  19
ENDBRANCH   6  13
BRANCH   2  25
HETATM   25  C   UNL     1     -41.854 -46.378  10.244  1.00  0.00     0.147 C 
BRANCH  25  26
HETATM   26  C   UNL     1     -41.369 -45.198  11.076  1.00  0.00     0.040 C 
HETATM   27  C   UNL     1     -41.516 -45.285  12.612  1.00  0.00     0.183 C 
HETATM   28  O   UNL     1     -42.212 -44.011  12.640  1.00  0.00    -0.389 OA
HETATM   29  C   UNL     1     -42.450 -44.105  11.212  1.00  0.00     0.183 C 
BRANCH  26  30
HETATM   30  C   UNL     1     -40.001 -44.655  10.673  1.00  0.00     0.179 C 
BRANCH  30  31
HETATM   31  O   UNL     1     -39.367 -45.575   9.791  1.00  0.00    -0.400 OA
HETATM   32  H   UNL     1     -39.922 -45.676   9.000  1.00  0.00     0.209 HD
ENDBRANCH  30  31
ENDBRANCH  26  30
ENDBRANCH  25  26
ENDBRANCH   2  25
TORSDOF 7
ENDMDL
MODEL 6
REMARK VINA RESULT:      -6.7      2.292      2.884
REMARK  7 active torsions:
REMARK  status: ('A' for Active; 'I' for Inactive)
REMARK    1  A    between atoms: N_2  and  C_14 
REMARK    2  A    between atoms: C_6  and  N_7 
REMARK    3  A    between atoms: C_13  and  C_14 
REMARK    4  A    between atoms: C_13  and  C_26 
REMARK       I    between atoms: C_17  and  N_19 
REMARK    5  A    between atoms: N_19  and  C_24 
REMARK    6  A    between atoms: C_21  and  C_24 
REMARK    7  A    between atoms: C_26  and  O_27 
ROOT
HETATM    1  C   UNL     1     -40.207 -49.502  13.427  1.00  0.00     0.117 A 
HETATM    2  N   UNL     1     -41.094 -51.298  14.294  1.00  0.00    -0.326 N 
HETATM    3  C   UNL     1     -39.963 -50.842  13.675  1.00  0.00     0.140 A 
HETATM    4  N   UNL     1     -41.477 -49.157  13.855  1.00  0.00    -0.346 N 
ATOM      5  HN  UNL     1     -41.923 -48.242  13.795  1.00  0.00     0.167 HD
HETATM    6  C   UNL     1     -39.158 -48.764  12.837  1.00  0.00     0.114 A 
HETATM    7  C   UNL     1     -41.983 -50.262  14.355  1.00  0.00     0.185 A 
HETATM    8  N   UNL     1     -38.852 -51.539  13.393  1.00  0.00    -0.336 N 
ATOM      9  HN  UNL     1     -38.728 -52.533  13.584  1.00  0.00     0.168 HD
HETATM   10  N   UNL     1     -38.004 -49.430  12.552  1.00  0.00    -0.341 N 
ATOM     11  HN  UNL     1     -37.210 -48.938  12.141  1.00  0.00     0.167 HD
HETATM   12  C   UNL     1     -37.924 -50.749  12.823  1.00  0.00     0.183 A 
ENDROOT
BRANCH   6  13
HETATM   13  N   UNL     1     -39.267 -47.386  12.605  1.00  0.00    -0.267 NA
HETATM   14  C   UNL     1     -40.406 -47.009  11.768  1.00  0.00     0.103 C 
HETATM   15  C   UNL     1     -40.186 -45.559  11.306  1.00  0.00     0.017 C 
HETATM   16  C   UNL     1     -40.036 -44.638  12.533  1.00  0.00     0.009 C 
HETATM   17  C   UNL     1     -38.953 -45.145  13.490  1.00  0.00     0.015 C 
HETATM   18  C   UNL     1     -39.157 -46.617  13.847  1.00  0.00     0.097 C 
BRANCH  15  19
HETATM   19  C   UNL     1     -41.330 -45.079  10.410  1.00  0.00     0.128 C 
BRANCH  19  20
HETATM   20  N   UNL     1     -42.012 -46.176   9.744  1.00  0.00    -0.361 N 
HETATM   21  C   UNL     1     -43.183 -45.974   9.046  1.00  0.00     0.213 C 
HETATM   22  O   UNL     1     -43.747 -44.885   8.980  1.00  0.00    -0.274 OA
HETATM   23  C   UNL     1     -43.744 -47.208   8.400  1.00  0.00     0.117 C 
HETATM   24  H   UNL     1     -41.493 -47.030   9.581  1.00  0.00     0.162 HD
ENDBRANCH  19  20
ENDBRANCH  15  19
ENDBRANCH   6  13
BRANCH   2  25
HETATM   25  C   UNL     1     -41.312 -52.658  14.754  1.00  0.00     0.147 C 
BRANCH  25  26
HETATM   26  C   UNL     1     -41.892 -53.586  13.694  1.00  0.00     0.040 C 
HETATM   27  C   UNL     1     -43.032 -53.046  12.802  1.00  0.00     0.183 C 
HETATM   28  O   UNL     1     -43.865 -54.187  13.136  1.00  0.00    -0.389 OA
HETATM   29  C   UNL     1     -43.005 -54.489  14.265  1.00  0.00     0.183 C 
BRANCH  26  30
HETATM   30  C   UNL     1     -40.852 -54.345  12.876  1.00  0.00     0.179 C 
BRANCH  30  31
HETATM   31  O   UNL     1     -40.532 -53.600  11.706  1.00  0.00    -0.400 OA
HETATM   32  H   UNL     1     -41.191 -52.894  11.600  1.00  0.00     0.209 HD
ENDBRANCH  30  31
ENDBRANCH  26  30
ENDBRANCH  25  26
ENDBRANCH   2  25
TORSDOF 7
ENDMDL
MODEL 7
REMARK VINA RESULT:      -6.6      2.343      4.134
REMARK  7 active torsions:
REMARK  status: ('A' for Active; 'I' for Inactive)
REMARK    1  A    between atoms: N_2  and  C_14 
REMARK    2  A    between atoms: C_6  and  N_7 
REMARK    3  A    between atoms: C_13  and  C_14 
REMARK    4  A    between atoms: C_13  and  C_26 
REMARK       I    between atoms: C_17  and  N_19 
REMARK    5  A    between atoms: N_19  and  C_24 
REMARK    6  A    between atoms: C_21  and  C_24 
REMARK    7  A    between atoms: C_26  and  O_27 
ROOT
HETATM    1  C   UNL     1     -41.540 -52.833  12.987  1.00  0.00     0.117 A 
HETATM    2  N   UNL     1     -43.405 -53.917  13.314  1.00  0.00    -0.326 N 
HETATM    3  C   UNL     1     -42.142 -53.767  13.814  1.00  0.00     0.140 A 
HETATM    4  N   UNL     1     -42.409 -52.450  11.981  1.00  0.00    -0.346 N 
ATOM      5  HN  UNL     1     -42.232 -51.782  11.231  1.00  0.00     0.167 HD
HETATM    6  C   UNL     1     -40.224 -52.444  13.320  1.00  0.00     0.114 A 
HETATM    7  C   UNL     1     -43.511 -53.131  12.201  1.00  0.00     0.185 A 
HETATM    8  N   UNL     1     -41.612 -54.374  14.886  1.00  0.00    -0.336 N 
ATOM      9  HN  UNL     1     -42.096 -55.069  15.455  1.00  0.00     0.168 HD
HETATM   10  N   UNL     1     -39.656 -53.023  14.416  1.00  0.00    -0.341 N 
ATOM     11  HN  UNL     1     -38.714 -52.763  14.708  1.00  0.00     0.167 HD
HETATM   12  C   UNL     1     -40.357 -53.944  15.108  1.00  0.00     0.183 A 
ENDROOT
BRANCH   6  13
HETATM   13  N   UNL     1     -39.544 -51.455  12.597  1.00  0.00    -0.267 NA
HETATM   14  C   UNL     1     -40.173 -50.136  12.650  1.00  0.00     0.103 C 
HETATM   15  C   UNL     1     -39.545 -49.274  11.543  1.00  0.00     0.017 C 
HETATM   16  C   UNL     1     -38.019 -49.198  11.743  1.00  0.00     0.009 C 
HETATM   17  C   UNL     1     -37.395 -50.592  11.859  1.00  0.00     0.015 C 
HETATM   18  C   UNL     1     -38.111 -51.448  12.905  1.00  0.00     0.097 C 
BRANCH  15  19
HETATM   19  C   UNL     1     -40.154 -47.870  11.515  1.00  0.00     0.128 C 
BRANCH  19  20
HETATM   20  N   UNL     1     -41.021 -47.663  10.366  1.00  0.00    -0.361 N 
HETATM   21  C   UNL     1     -42.379 -47.881  10.445  1.00  0.00     0.213 C 
HETATM   22  O   UNL     1     -42.934 -48.304  11.456  1.00  0.00    -0.274 OA
HETATM   23  C   UNL     1     -43.131 -47.597   9.176  1.00  0.00     0.117 C 
HETATM   24  H   UNL     1     -40.663 -47.117   9.592  1.00  0.00     0.162 HD
ENDBRANCH  19  20
ENDBRANCH  15  19
ENDBRANCH   6  13
BRANCH   2  25
HETATM   25  C   UNL     1     -44.425 -54.799  13.855  1.00  0.00     0.147 C 
BRANCH  25  26
HETATM   26  C   UNL     1     -45.327 -54.143  14.892  1.00  0.00     0.040 C 
HETATM   27  C   UNL     1     -46.836 -54.473  14.853  1.00  0.00     0.183 C 
HETATM   28  O   UNL     1     -47.167 -53.060  14.817  1.00  0.00    -0.389 OA
HETATM   29  C   UNL     1     -45.802 -52.745  14.442  1.00  0.00     0.183 C 
BRANCH  26  30
HETATM   30  C   UNL     1     -44.783 -54.172  16.317  1.00  0.00     0.179 C 
BRANCH  30  31
HETATM   31  O   UNL     1     -44.016 -52.997  16.557  1.00  0.00    -0.400 OA
HETATM   32  H   UNL     1     -43.091 -53.258  16.705  1.00  0.00     0.209 HD
ENDBRANCH  30  31
ENDBRANCH  26  30
ENDBRANCH  25  26
ENDBRANCH   2  25
TORSDOF 7
ENDMDL
MODEL 8
REMARK VINA RESULT:      -6.5      2.906      7.760
REMARK  7 active torsions:
REMARK  status: ('A' for Active; 'I' for Inactive)
REMARK    1  A    between atoms: N_2  and  C_14 
REMARK    2  A    between atoms: C_6  and  N_7 
REMARK    3  A    between atoms: C_13  and  C_14 
REMARK    4  A    between atoms: C_13  and  C_26 
REMARK       I    between atoms: C_17  and  N_19 
REMARK    5  A    between atoms: N_19  and  C_24 
REMARK    6  A    between atoms: C_21  and  C_24 
REMARK    7  A    between atoms: C_26  and  O_27 
ROOT
HETATM    1  C   UNL     1     -40.697 -47.374  11.757  1.00  0.00     0.117 A 
HETATM    2  N   UNL     1     -40.328 -45.250  11.420  1.00  0.00    -0.326 N 
HETATM    3  C   UNL     1     -41.038 -46.313  10.936  1.00  0.00     0.140 A 
HETATM    4  N   UNL     1     -39.769 -46.973  12.701  1.00  0.00    -0.346 N 
ATOM      5  HN  UNL     1     -39.339 -47.544  13.429  1.00  0.00     0.167 HD
HETATM    6  C   UNL     1     -41.345 -48.604  11.509  1.00  0.00     0.114 A 
HETATM    7  C   UNL     1     -39.562 -45.698  12.459  1.00  0.00     0.185 A 
HETATM    8  N   UNL     1     -41.895 -46.317   9.904  1.00  0.00    -0.336 N 
ATOM      9  HN  UNL     1     -42.101 -45.508   9.319  1.00  0.00     0.168 HD
HETATM   10  N   UNL     1     -42.240 -48.646  10.482  1.00  0.00    -0.341 N 
ATOM     11  HN  UNL     1     -42.747 -49.506  10.273  1.00  0.00     0.167 HD
HETATM   12  C   UNL     1     -42.447 -47.535   9.746  1.00  0.00     0.183 A 
ENDROOT
BRANCH   6  13
HETATM   13  N   UNL     1     -41.131 -49.725  12.320  1.00  0.00    -0.267 NA
HETATM   14  C   UNL     1     -42.315 -50.565  12.504  1.00  0.00     0.103 C 
HETATM   15  C   UNL     1     -42.036 -51.516  13.680  1.00  0.00     0.017 C 
HETATM   16  C   UNL     1     -40.773 -52.348  13.388  1.00  0.00     0.009 C 
HETATM   17  C   UNL     1     -39.580 -51.457  13.028  1.00  0.00     0.015 C 
HETATM   18  C   UNL     1     -39.931 -50.464  11.920  1.00  0.00     0.097 C 
BRANCH  15  19
HETATM   19  C   UNL     1     -43.232 -52.430  13.954  1.00  0.00     0.128 C 
BRANCH  19  20
HETATM   20  N   UNL     1     -44.480 -51.879  13.453  1.00  0.00    -0.361 N 
HETATM   21  C   UNL     1     -45.369 -52.650  12.737  1.00  0.00     0.213 C 
HETATM   22  O   UNL     1     -45.151 -53.820  12.434  1.00  0.00    -0.274 OA
HETATM   23  C   UNL     1     -46.619 -51.932  12.315  1.00  0.00     0.117 C 
HETATM   24  H   UNL     1     -44.808 -51.006  13.851  1.00  0.00     0.162 HD
ENDBRANCH  19  20
ENDBRANCH  15  19
ENDBRANCH   6  13
BRANCH   2  25
HETATM   25  C   UNL     1     -40.359 -43.901  10.882  1.00  0.00     0.147 C 
BRANCH  25  26
HETATM   26  C   UNL     1     -41.105 -42.900  11.756  1.00  0.00     0.040 C 
HETATM   27  C   UNL     1     -42.153 -43.446  12.750  1.00  0.00     0.183 C 
HETATM   28  O   UNL     1     -43.160 -42.545  12.219  1.00  0.00    -0.389 OA
HETATM   29  C   UNL     1     -42.344 -42.322  11.041  1.00  0.00     0.183 C 
BRANCH  26  30
HETATM   30  C   UNL     1     -40.221 -41.837  12.400  1.00  0.00     0.179 C 
BRANCH  30  31
HETATM   31  O   UNL     1     -39.607 -42.373  13.568  1.00  0.00    -0.400 OA
HETATM   32  H   UNL     1     -38.913 -41.760  13.860  1.00  0.00     0.209 HD
ENDBRANCH  30  31
ENDBRANCH  26  30
ENDBRANCH  25  26
ENDBRANCH   2  25
TORSDOF 7
ENDMDL
MODEL 9
REMARK VINA RESULT:      -6.4      2.841      3.987
REMARK  7 active torsions:
REMARK  status: ('A' for Active; 'I' for Inactive)
REMARK    1  A    between atoms: N_2  and  C_14 
REMARK    2  A    between atoms: C_6  and  N_7 
REMARK    3  A    between atoms: C_13  and  C_14 
REMARK    4  A    between atoms: C_13  and  C_26 
REMARK       I    between atoms: C_17  and  N_19 
REMARK    5  A    between atoms: N_19  and  C_24 
REMARK    6  A    between atoms: C_21  and  C_24 
REMARK    7  A    between atoms: C_26  and  O_27 
ROOT
HETATM    1  C   UNL     1     -41.381 -50.156  11.847  1.00  0.00     0.117 A 
HETATM    2  N   UNL     1     -41.273 -52.233  12.504  1.00  0.00    -0.326 N 
HETATM    3  C   UNL     1     -40.494 -51.190  12.090  1.00  0.00     0.140 A 
HETATM    4  N   UNL     1     -42.681 -50.573  12.075  1.00  0.00    -0.346 N 
ATOM      5  HN  UNL     1     -43.534 -50.024  11.973  1.00  0.00     0.167 HD
HETATM    6  C   UNL     1     -40.825 -48.919  11.456  1.00  0.00     0.114 A 
HETATM    7  C   UNL     1     -42.577 -51.827  12.453  1.00  0.00     0.185 A 
HETATM    8  N   UNL     1     -39.158 -51.169  11.968  1.00  0.00    -0.336 N 
ATOM      9  HN  UNL     1     -38.548 -51.967  12.146  1.00  0.00     0.168 HD
HETATM   10  N   UNL     1     -39.468 -48.849  11.341  1.00  0.00    -0.341 N 
ATOM     11  HN  UNL     1     -39.016 -47.973  11.077  1.00  0.00     0.167 HD
HETATM   12  C   UNL     1     -38.732 -49.953  11.580  1.00  0.00     0.183 A 
ENDROOT
BRANCH   6  13
HETATM   13  N   UNL     1     -41.621 -47.784  11.253  1.00  0.00    -0.267 NA
HETATM   14  C   UNL     1     -40.941 -46.519  11.533  1.00  0.00     0.103 C 
HETATM   15  C   UNL     1     -42.015 -45.423  11.626  1.00  0.00     0.017 C 
HETATM   16  C   UNL     1     -42.822 -45.370  10.315  1.00  0.00     0.009 C 
HETATM   17  C   UNL     1     -43.384 -46.745   9.943  1.00  0.00     0.015 C 
HETATM   18  C   UNL     1     -42.300 -47.823   9.955  1.00  0.00     0.097 C 
BRANCH  15  19
HETATM   19  C   UNL     1     -41.394 -44.057  11.931  1.00  0.00     0.128 C 
BRANCH  19  20
HETATM   20  N   UNL     1     -42.233 -42.954  11.491  1.00  0.00    -0.361 N 
HETATM   21  C   UNL     1     -43.152 -42.372  12.336  1.00  0.00     0.213 C 
HETATM   22  O   UNL     1     -43.359 -42.767  13.480  1.00  0.00    -0.274 OA
HETATM   23  C   UNL     1     -43.919 -41.231  11.731  1.00  0.00     0.117 C 
HETATM   24  H   UNL     1     -41.960 -42.453  10.654  1.00  0.00     0.162 HD
ENDBRANCH  19  20
ENDBRANCH  15  19
ENDBRANCH   6  13
BRANCH   2  25
HETATM   25  C   UNL     1     -40.788 -53.549  12.881  1.00  0.00     0.147 C 
BRANCH  25  26
HETATM   26  C   UNL     1     -40.529 -53.712  14.374  1.00  0.00     0.040 C 
HETATM   27  C   UNL     1     -41.736 -54.019  15.289  1.00  0.00     0.183 C 
HETATM   28  O   UNL     1     -41.396 -52.900  16.149  1.00  0.00    -0.389 OA
HETATM   29  C   UNL     1     -40.539 -52.358  15.112  1.00  0.00     0.183 C 
BRANCH  26  30
HETATM   30  C   UNL     1     -39.328 -54.586  14.719  1.00  0.00     0.179 C 
BRANCH  30  31
HETATM   31  O   UNL     1     -38.586 -54.864  13.536  1.00  0.00    -0.400 OA
HETATM   32  H   UNL     1     -38.678 -54.110  12.930  1.00  0.00     0.209 HD
ENDBRANCH  30  31
ENDBRANCH  26  30
ENDBRANCH  25  26
ENDBRANCH   2  25
TORSDOF 7
ENDMDL
