MODEL 1
REMARK VINA RESULT:      -7.0      0.000      0.000
REMARK  4 active torsions:
REMARK  status: ('A' for Active; 'I' for Inactive)
REMARK    1  A    between atoms: O_1  and  C_2 
REMARK    2  A    between atoms: C_3  and  C_15 
REMARK    3  A    between atoms: C_6  and  C_9 
REMARK    4  A    between atoms: C_15  and  C_17 
ROOT
HETATM    1  C   UNL     1     -41.547 -52.487  11.927  1.00  0.00     0.174 C 
HETATM    2  C   UNL     1     -41.179 -51.323  12.521  1.00  0.00     0.150 C 
HETATM    3  N   UNL     1     -42.132 -50.663  13.320  1.00  0.00    -0.292 N 
HETATM    4  N   UNL     1     -43.293 -51.325  13.639  1.00  0.00    -0.288 N 
HETATM    5  C   UNL     1     -43.687 -52.324  12.753  1.00  0.00     0.102 C 
HETATM    6  N   UNL     1     -42.862 -52.925  11.931  1.00  0.00    -0.323 N 
ATOM      7  HN  UNL     1     -43.175 -53.681  11.322  1.00  0.00     0.169 HD
HETATM    8  H   UNL     1     -41.670 -50.108  14.053  1.00  0.00     0.187 HD
HETATM    9  H   UNL     1     -44.017 -50.791  14.107  1.00  0.00     0.188 HD
ENDROOT
BRANCH   2  10
HETATM   10  C   UNL     1     -39.826 -50.654  12.546  1.00  0.00     0.214 C 
HETATM   11  O   UNL     1     -38.822 -51.366  12.426  1.00  0.00    -0.285 OA
BRANCH  10  12
HETATM   12  C   UNL     1     -39.633 -49.192  12.716  1.00  0.00     0.019 A 
HETATM   13  C   UNL     1     -39.090 -48.607  13.857  1.00  0.00     0.032 A 
HETATM   14  C   UNL     1     -39.056 -47.223  13.924  1.00  0.00     0.088 A 
HETATM   15  N   UNL     1     -39.463 -46.413  12.924  1.00  0.00    -0.375 N 
HETATM   16  C   UNL     1     -39.904 -47.004  11.796  1.00  0.00     0.088 A 
ATOM     17  HN  UNL     1     -39.438 -45.397  13.019  1.00  0.00     0.164 HD
HETATM   18  C   UNL     1     -40.004 -48.374  11.644  1.00  0.00     0.032 A 
ENDBRANCH  10  12
ENDBRANCH   2  10
BRANCH   1  19
HETATM   19  O   UNL     1     -40.679 -53.334  11.284  1.00  0.00    -0.344 OA
HETATM   20  H   UNL     1     -40.425 -52.932  10.441  1.00  0.00     0.219 HD
ENDBRANCH   1  19
BRANCH   5  21
HETATM   21  C   UNL     1     -45.159 -52.765  12.688  1.00  0.00     0.055 C 
HETATM   22  C   UNL     1     -46.201 -51.647  12.875  1.00  0.00     0.012 C 
HETATM   23  C   UNL     1     -46.737 -51.452  14.296  1.00  0.00     0.001 C 
HETATM   24  C   UNL     1     -47.002 -52.763  15.024  1.00  0.00     0.000 C 
HETATM   25  C   UNL     1     -45.762 -53.643  15.000  1.00  0.00     0.001 C 
HETATM   26  C   UNL     1     -45.402 -53.998  13.564  1.00  0.00     0.012 C 
ENDBRANCH   5  21
TORSDOF 4
ENDMDL
MODEL 2
REMARK VINA RESULT:      -7.0      1.288      1.796
REMARK  4 active torsions:
REMARK  status: ('A' for Active; 'I' for Inactive)
REMARK    1  A    between atoms: O_1  and  C_2 
REMARK    2  A    between atoms: C_3  and  C_15 
REMARK    3  A    between atoms: C_6  and  C_9 
REMARK    4  A    between atoms: C_15  and  C_17 
ROOT
HETATM    1  C   UNL     1     -41.601 -52.356  11.837  1.00  0.00     0.174 C 
HETATM    2  C   UNL     1     -41.616 -51.003  11.955  1.00  0.00     0.150 C 
HETATM    3  N   UNL     1     -42.773 -50.404  12.489  1.00  0.00    -0.292 N 
HETATM    4  N   UNL     1     -43.726 -51.211  13.063  1.00  0.00    -0.288 N 
HETATM    5  C   UNL     1     -43.759 -52.527  12.614  1.00  0.00     0.102 C 
HETATM    6  N   UNL     1     -42.740 -53.119  12.042  1.00  0.00    -0.323 N 
ATOM      7  HN  UNL     1     -42.783 -54.099  11.759  1.00  0.00     0.169 HD
HETATM    8  H   UNL     1     -42.542 -49.516  12.955  1.00  0.00     0.187 HD
HETATM    9  H   UNL     1     -44.604 -50.776  13.327  1.00  0.00     0.188 HD
ENDROOT
BRANCH   2  10
HETATM   10  C   UNL     1     -40.508 -50.013  11.694  1.00  0.00     0.214 C 
HETATM   11  O   UNL     1     -39.343 -50.382  11.877  1.00  0.00    -0.285 OA
BRANCH  10  12
HETATM   12  C   UNL     1     -40.740 -48.620  11.238  1.00  0.00     0.019 A 
HETATM   13  C   UNL     1     -41.834 -48.224  10.472  1.00  0.00     0.032 A 
HETATM   14  C   UNL     1     -41.878 -46.911  10.032  1.00  0.00     0.088 A 
HETATM   15  N   UNL     1     -40.953 -45.981  10.349  1.00  0.00    -0.375 N 
HETATM   16  C   UNL     1     -39.950 -46.366  11.162  1.00  0.00     0.088 A 
ATOM     17  HN  UNL     1     -41.012 -45.027   9.990  1.00  0.00     0.164 HD
HETATM   18  C   UNL     1     -39.803 -47.658  11.630  1.00  0.00     0.032 A 
ENDBRANCH  10  12
ENDBRANCH   2  10
BRANCH   1  19
HETATM   19  O   UNL     1     -40.486 -53.091  11.520  1.00  0.00    -0.344 OA
HETATM   20  H   UNL     1     -40.091 -53.419  12.341  1.00  0.00     0.219 HD
ENDBRANCH   1  19
BRANCH   5  21
HETATM   21  C   UNL     1     -45.042 -53.364  12.759  1.00  0.00     0.055 C 
HETATM   22  C   UNL     1     -46.321 -52.575  13.093  1.00  0.00     0.012 C 
HETATM   23  C   UNL     1     -46.690 -52.479  14.576  1.00  0.00     0.001 C 
HETATM   24  C   UNL     1     -46.473 -53.781  15.335  1.00  0.00     0.000 C 
HETATM   25  C   UNL     1     -45.050 -54.281  15.134  1.00  0.00     0.001 C 
HETATM   26  C   UNL     1     -44.805 -54.580  13.662  1.00  0.00     0.012 C 
ENDBRANCH   5  21
TORSDOF 4
ENDMDL
MODEL 3
REMARK VINA RESULT:      -6.9      2.006      2.518
REMARK  4 active torsions:
REMARK  status: ('A' for Active; 'I' for Inactive)
REMARK    1  A    between atoms: O_1  and  C_2 
REMARK    2  A    between atoms: C_3  and  C_15 
REMARK    3  A    between atoms: C_6  and  C_9 
REMARK    4  A    between atoms: C_15  and  C_17 
ROOT
HETATM    1  C   UNL     1     -41.804 -52.805  12.183  1.00  0.00     0.174 C 
HETATM    2  C   UNL     1     -41.118 -53.138  13.307  1.00  0.00     0.150 C 
HETATM    3  N   UNL     1     -41.826 -53.778  14.342  1.00  0.00    -0.292 N 
HETATM    4  N   UNL     1     -43.098 -54.230  14.087  1.00  0.00    -0.288 N 
HETATM    5  C   UNL     1     -43.782 -53.577  13.066  1.00  0.00     0.102 C 
HETATM    6  N   UNL     1     -43.185 -52.902  12.115  1.00  0.00    -0.323 N 
ATOM      7  HN  UNL     1     -43.714 -52.467  11.358  1.00  0.00     0.169 HD
HETATM    8  H   UNL     1     -41.199 -54.377  14.896  1.00  0.00     0.187 HD
HETATM    9  H   UNL     1     -43.635 -54.574  14.876  1.00  0.00     0.188 HD
ENDROOT
BRANCH   2  10
HETATM   10  C   UNL     1     -39.641 -53.021  13.589  1.00  0.00     0.214 C 
HETATM   11  O   UNL     1     -38.972 -54.061  13.631  1.00  0.00    -0.285 OA
BRANCH  10  12
HETATM   12  C   UNL     1     -38.947 -51.731  13.827  1.00  0.00     0.019 A 
HETATM   13  C   UNL     1     -38.549 -50.864  12.812  1.00  0.00     0.032 A 
HETATM   14  C   UNL     1     -37.823 -49.738  13.167  1.00  0.00     0.088 A 
HETATM   15  N   UNL     1     -37.531 -49.404  14.441  1.00  0.00    -0.375 N 
HETATM   16  C   UNL     1     -38.002 -50.213  15.411  1.00  0.00     0.088 A 
ATOM     17  HN  UNL     1     -36.979 -48.574  14.661  1.00  0.00     0.164 HD
HETATM   18  C   UNL     1     -38.709 -51.372  15.158  1.00  0.00     0.032 A 
ENDBRANCH  10  12
ENDBRANCH   2  10
BRANCH   1  19
HETATM   19  O   UNL     1     -41.218 -52.358  11.025  1.00  0.00    -0.344 OA
HETATM   20  H   UNL     1     -41.849 -51.787  10.562  1.00  0.00     0.219 HD
ENDBRANCH   1  19
BRANCH   5  21
HETATM   21  C   UNL     1     -45.320 -53.606  13.021  1.00  0.00     0.055 C 
HETATM   22  C   UNL     1     -46.006 -52.258  12.733  1.00  0.00     0.012 C 
HETATM   23  C   UNL     1     -46.453 -51.452  13.956  1.00  0.00     0.001 C 
HETATM   24  C   UNL     1     -47.068 -52.312  15.051  1.00  0.00     0.000 C 
HETATM   25  C   UNL     1     -46.125 -53.443  15.430  1.00  0.00     0.001 C 
HETATM   26  C   UNL     1     -45.891 -54.351  14.231  1.00  0.00     0.012 C 
ENDBRANCH   5  21
TORSDOF 4
ENDMDL
MODEL 4
REMARK VINA RESULT:      -6.9      1.776      6.646
REMARK  4 active torsions:
REMARK  status: ('A' for Active; 'I' for Inactive)
REMARK    1  A    between atoms: O_1  and  C_2 
REMARK    2  A    between atoms: C_3  and  C_15 
REMARK    3  A    between atoms: C_6  and  C_9 
REMARK    4  A    between atoms: C_15  and  C_17 
ROOT
HETATM    1  C   UNL     1     -41.416 -52.740  12.213  1.00  0.00     0.174 C 
HETATM    2  C   UNL     1     -42.643 -52.224  12.485  1.00  0.00     0.150 C 
HETATM    3  N   UNL     1     -42.827 -50.839  12.312  1.00  0.00    -0.292 N 
HETATM    4  N   UNL     1     -41.843 -50.121  11.675  1.00  0.00    -0.288 N 
HETATM    5  C   UNL     1     -40.562 -50.659  11.734  1.00  0.00     0.102 C 
HETATM    6  N   UNL     1     -40.322 -51.927  11.965  1.00  0.00    -0.323 N 
ATOM      7  HN  UNL     1     -39.372 -52.297  11.964  1.00  0.00     0.169 HD
HETATM    8  H   UNL     1     -43.808 -50.627  12.087  1.00  0.00     0.187 HD
HETATM    9  H   UNL     1     -41.936 -49.111  11.671  1.00  0.00     0.188 HD
ENDROOT
BRANCH   2  10
HETATM   10  C   UNL     1     -43.917 -52.944  12.856  1.00  0.00     0.214 C 
HETATM   11  O   UNL     1     -44.183 -53.998  12.266  1.00  0.00    -0.285 OA
BRANCH  10  12
HETATM   12  C   UNL     1     -44.871 -52.455  13.882  1.00  0.00     0.019 A 
HETATM   13  C   UNL     1     -46.106 -51.884  13.585  1.00  0.00     0.032 A 
HETATM   14  C   UNL     1     -46.857 -51.380  14.635  1.00  0.00     0.088 A 
HETATM   15  N   UNL     1     -46.489 -51.462  15.930  1.00  0.00    -0.375 N 
HETATM   16  C   UNL     1     -45.330 -52.096  16.199  1.00  0.00     0.088 A 
ATOM     17  HN  UNL     1     -47.062 -51.063  16.674  1.00  0.00     0.164 HD
HETATM   18  C   UNL     1     -44.497 -52.606  15.221  1.00  0.00     0.032 A 
ENDBRANCH  10  12
ENDBRANCH   2  10
BRANCH   1  19
HETATM   19  O   UNL     1     -41.140 -54.083  12.149  1.00  0.00    -0.344 OA
HETATM   20  H   UNL     1     -41.855 -54.521  11.664  1.00  0.00     0.219 HD
ENDBRANCH   1  19
BRANCH   5  21
HETATM   21  C   UNL     1     -39.331 -49.756  11.541  1.00  0.00     0.055 C 
HETATM   22  C   UNL     1     -37.990 -50.343  12.019  1.00  0.00     0.012 C 
HETATM   23  C   UNL     1     -37.552 -49.963  13.437  1.00  0.00     0.001 C 
HETATM   24  C   UNL     1     -37.821 -48.504  13.779  1.00  0.00     0.000 C 
HETATM   25  C   UNL     1     -39.280 -48.160  13.524  1.00  0.00     0.001 C 
HETATM   26  C   UNL     1     -39.608 -48.336  12.048  1.00  0.00     0.012 C 
ENDBRANCH   5  21
TORSDOF 4
ENDMDL
MODEL 5
REMARK VINA RESULT:      -6.9      3.761      4.851
REMARK  4 active torsions:
REMARK  status: ('A' for Active; 'I' for Inactive)
REMARK    1  A    between atoms: O_1  and  C_2 
REMARK    2  A    between atoms: C_3  and  C_15 
REMARK    3  A    between atoms: C_6  and  C_9 
REMARK    4  A    between atoms: C_15  and  C_17 
ROOT
HETATM    1  C   UNL     1     -41.415 -53.651  12.703  1.00  0.00     0.174 C 
HETATM    2  C   UNL     1     -40.871 -53.939  13.914  1.00  0.00     0.150 C 
HETATM    3  N   UNL     1     -41.733 -54.393  14.930  1.00  0.00    -0.292 N 
HETATM    4  N   UNL     1     -43.021 -54.733  14.594  1.00  0.00    -0.288 N 
HETATM    5  C   UNL     1     -43.536 -54.119  13.457  1.00  0.00     0.102 C 
HETATM    6  N   UNL     1     -42.787 -53.610  12.511  1.00  0.00    -0.323 N 
ATOM      7  HN  UNL     1     -43.195 -53.201  11.670  1.00  0.00     0.169 HD
HETATM    8  H   UNL     1     -41.228 -54.995  15.594  1.00  0.00     0.187 HD
HETATM    9  H   UNL     1     -43.660 -54.937  15.356  1.00  0.00     0.188 HD
ENDROOT
BRANCH   2  10
HETATM   10  C   UNL     1     -39.419 -53.950  14.326  1.00  0.00     0.214 C 
HETATM   11  O   UNL     1     -38.572 -53.632  13.484  1.00  0.00    -0.285 OA
BRANCH  10  12
HETATM   12  C   UNL     1     -38.951 -54.328  15.683  1.00  0.00     0.019 A 
HETATM   13  C   UNL     1     -38.989 -53.476  16.784  1.00  0.00     0.032 A 
HETATM   14  C   UNL     1     -38.431 -53.923  17.971  1.00  0.00     0.088 A 
HETATM   15  N   UNL     1     -37.906 -55.155  18.137  1.00  0.00    -0.375 N 
HETATM   16  C   UNL     1     -37.959 -55.992  17.081  1.00  0.00     0.088 A 
ATOM     17  HN  UNL     1     -37.488 -55.441  19.023  1.00  0.00     0.164 HD
HETATM   18  C   UNL     1     -38.468 -55.631  15.849  1.00  0.00     0.032 A 
ENDBRANCH  10  12
ENDBRANCH   2  10
BRANCH   1  19
HETATM   19  O   UNL     1     -40.684 -53.387  11.571  1.00  0.00    -0.344 OA
HETATM   20  H   UNL     1     -40.228 -52.541  11.691  1.00  0.00     0.219 HD
ENDBRANCH   1  19
BRANCH   5  21
HETATM   21  C   UNL     1     -45.058 -53.991  13.266  1.00  0.00     0.055 C 
HETATM   22  C   UNL     1     -45.532 -52.748  12.491  1.00  0.00     0.012 C 
HETATM   23  C   UNL     1     -45.937 -51.537  13.336  1.00  0.00     0.001 C 
HETATM   24  C   UNL     1     -46.730 -51.910  14.580  1.00  0.00     0.000 C 
HETATM   25  C   UNL     1     -45.977 -52.948  15.399  1.00  0.00     0.001 C 
HETATM   26  C   UNL     1     -45.799 -54.223  14.587  1.00  0.00     0.012 C 
ENDBRANCH   5  21
TORSDOF 4
ENDMDL
MODEL 6
REMARK VINA RESULT:      -6.9      1.446      1.766
REMARK  4 active torsions:
REMARK  status: ('A' for Active; 'I' for Inactive)
REMARK    1  A    between atoms: O_1  and  C_2 
REMARK    2  A    between atoms: C_3  and  C_15 
REMARK    3  A    between atoms: C_6  and  C_9 
REMARK    4  A    between atoms: C_15  and  C_17 
ROOT
HETATM    1  C   UNL     1     -41.631 -52.420  11.854  1.00  0.00     0.174 C 
HETATM    2  C   UNL     1     -41.429 -51.085  12.005  1.00  0.00     0.150 C 
HETATM    3  N   UNL     1     -42.498 -50.311  12.495  1.00  0.00    -0.292 N 
HETATM    4  N   UNL     1     -43.600 -50.957  13.001  1.00  0.00    -0.288 N 
HETATM    5  C   UNL     1     -43.826 -52.242  12.518  1.00  0.00     0.102 C 
HETATM    6  N   UNL     1     -42.890 -52.987  11.983  1.00  0.00    -0.323 N 
ATOM      7  HN  UNL     1     -43.079 -53.940  11.674  1.00  0.00     0.169 HD
HETATM    8  H   UNL     1     -42.147 -49.482  12.995  1.00  0.00     0.187 HD
HETATM    9  H   UNL     1     -44.406 -50.387  13.232  1.00  0.00     0.188 HD
ENDROOT
BRANCH   2  10
HETATM   10  C   UNL     1     -40.160 -50.289  11.824  1.00  0.00     0.214 C 
HETATM   11  O   UNL     1     -39.940 -49.789  10.715  1.00  0.00    -0.285 OA
BRANCH  10  12
HETATM   12  C   UNL     1     -39.160 -50.079  12.900  1.00  0.00     0.019 A 
HETATM   13  C   UNL     1     -38.785 -51.059  13.816  1.00  0.00     0.032 A 
HETATM   14  C   UNL     1     -37.912 -50.700  14.830  1.00  0.00     0.088 A 
HETATM   15  N   UNL     1     -37.359 -49.475  14.947  1.00  0.00    -0.375 N 
HETATM   16  C   UNL     1     -37.669 -48.569  13.999  1.00  0.00     0.088 A 
ATOM     17  HN  UNL     1     -36.733 -49.245  15.719  1.00  0.00     0.164 HD
HETATM   18  C   UNL     1     -38.552 -48.820  12.966  1.00  0.00     0.032 A 
ENDBRANCH  10  12
ENDBRANCH   2  10
BRANCH   1  19
HETATM   19  O   UNL     1     -40.638 -53.325  11.575  1.00  0.00    -0.344 OA
HETATM   20  H   UNL     1     -40.617 -53.986  12.282  1.00  0.00     0.219 HD
ENDBRANCH   1  19
BRANCH   5  21
HETATM   21  C   UNL     1     -45.235 -52.857  12.579  1.00  0.00     0.055 C 
HETATM   22  C   UNL     1     -46.388 -51.863  12.813  1.00  0.00     0.012 C 
HETATM   23  C   UNL     1     -46.838 -51.679  14.265  1.00  0.00     0.001 C 
HETATM   24  C   UNL     1     -46.889 -52.983  15.049  1.00  0.00     0.000 C 
HETATM   25  C   UNL     1     -45.558 -53.711  14.955  1.00  0.00     0.001 C 
HETATM   26  C   UNL     1     -45.263 -54.076  13.507  1.00  0.00     0.012 C 
ENDBRANCH   5  21
TORSDOF 4
ENDMDL
MODEL 7
REMARK VINA RESULT:      -6.8      3.101      4.120
REMARK  4 active torsions:
REMARK  status: ('A' for Active; 'I' for Inactive)
REMARK    1  A    between atoms: O_1  and  C_2 
REMARK    2  A    between atoms: C_3  and  C_15 
REMARK    3  A    between atoms: C_6  and  C_9 
REMARK    4  A    between atoms: C_15  and  C_17 
ROOT
HETATM    1  C   UNL     1     -40.446 -50.271  11.232  1.00  0.00     0.174 C 
HETATM    2  C   UNL     1     -41.412 -49.319  11.318  1.00  0.00     0.150 C 
HETATM    3  N   UNL     1     -42.651 -49.689  11.875  1.00  0.00    -0.292 N 
HETATM    4  N   UNL     1     -42.752 -50.910  12.498  1.00  0.00    -0.288 N 
HETATM    5  C   UNL     1     -41.849 -51.883  12.081  1.00  0.00     0.102 C 
HETATM    6  N   UNL     1     -40.713 -51.606  11.491  1.00  0.00    -0.323 N 
ATOM      7  HN  UNL     1     -40.054 -52.341  11.233  1.00  0.00     0.169 HD
HETATM    8  H   UNL     1     -43.110 -48.879  12.313  1.00  0.00     0.187 HD
HETATM    9  H   UNL     1     -43.679 -51.210  12.780  1.00  0.00     0.188 HD
ENDROOT
BRANCH   2  10
HETATM   10  C   UNL     1     -41.327 -47.847  10.999  1.00  0.00     0.214 C 
HETATM   11  O   UNL     1     -40.377 -47.204  11.459  1.00  0.00    -0.285 OA
BRANCH  10  12
HETATM   12  C   UNL     1     -42.325 -47.126  10.169  1.00  0.00     0.019 A 
HETATM   13  C   UNL     1     -42.704 -45.802  10.384  1.00  0.00     0.032 A 
HETATM   14  C   UNL     1     -43.718 -45.281   9.597  1.00  0.00     0.088 A 
HETATM   15  N   UNL     1     -44.317 -45.961   8.597  1.00  0.00    -0.375 N 
HETATM   16  C   UNL     1     -43.874 -47.210   8.352  1.00  0.00     0.088 A 
ATOM     17  HN  UNL     1     -45.073 -45.548   8.050  1.00  0.00     0.164 HD
HETATM   18  C   UNL     1     -42.889 -47.828   9.099  1.00  0.00     0.032 A 
ENDBRANCH  10  12
ENDBRANCH   2  10
BRANCH   1  19
HETATM   19  O   UNL     1     -39.140 -50.017  10.896  1.00  0.00    -0.344 OA
HETATM   20  H   UNL     1     -38.647 -49.822  11.707  1.00  0.00     0.219 HD
ENDBRANCH   1  19
BRANCH   5  21
HETATM   21  C   UNL     1     -42.166 -53.374  12.287  1.00  0.00     0.055 C 
HETATM   22  C   UNL     1     -43.559 -53.688  12.864  1.00  0.00     0.012 C 
HETATM   23  C   UNL     1     -43.637 -53.870  14.383  1.00  0.00     0.001 C 
HETATM   24  C   UNL     1     -42.467 -54.657  14.955  1.00  0.00     0.000 C 
HETATM   25  C   UNL     1     -41.148 -54.034  14.525  1.00  0.00     0.001 C 
HETATM   26  C   UNL     1     -41.017 -54.085  13.010  1.00  0.00     0.012 C 
ENDBRANCH   5  21
TORSDOF 4
ENDMDL
MODEL 8
REMARK VINA RESULT:      -6.4      2.075      6.580
REMARK  4 active torsions:
REMARK  status: ('A' for Active; 'I' for Inactive)
REMARK    1  A    between atoms: O_1  and  C_2 
REMARK    2  A    between atoms: C_3  and  C_15 
REMARK    3  A    between atoms: C_6  and  C_9 
REMARK    4  A    between atoms: C_15  and  C_17 
ROOT
HETATM    1  C   UNL     1     -40.062 -49.987  11.446  1.00  0.00     0.174 C 
HETATM    2  C   UNL     1     -41.170 -50.642  11.880  1.00  0.00     0.150 C 
HETATM    3  N   UNL     1     -42.409 -49.984  11.763  1.00  0.00    -0.292 N 
HETATM    4  N   UNL     1     -42.471 -48.826  11.026  1.00  0.00    -0.288 N 
HETATM    5  C   UNL     1     -41.282 -48.112  10.913  1.00  0.00     0.102 C 
HETATM    6  N   UNL     1     -40.099 -48.650  11.083  1.00  0.00    -0.323 N 
ATOM      7  HN  UNL     1     -39.245 -48.108  10.954  1.00  0.00     0.169 HD
HETATM    8  H   UNL     1     -43.175 -50.664  11.667  1.00  0.00     0.187 HD
HETATM    9  H   UNL     1     -43.339 -48.302  11.058  1.00  0.00     0.188 HD
ENDROOT
BRANCH   2  10
HETATM   10  C   UNL     1     -41.301 -52.056  12.389  1.00  0.00     0.214 C 
HETATM   11  O   UNL     1     -40.336 -52.817  12.250  1.00  0.00    -0.285 OA
BRANCH  10  12
HETATM   12  C   UNL     1     -42.525 -52.587  13.040  1.00  0.00     0.019 A 
HETATM   13  C   UNL     1     -43.547 -53.242  12.356  1.00  0.00     0.032 A 
HETATM   14  C   UNL     1     -44.679 -53.601  13.070  1.00  0.00     0.088 A 
HETATM   15  N   UNL     1     -44.824 -53.406  14.398  1.00  0.00    -0.375 N 
HETATM   16  C   UNL     1     -43.785 -52.849  15.052  1.00  0.00     0.088 A 
ATOM     17  HN  UNL     1     -45.681 -53.669  14.884  1.00  0.00     0.164 HD
HETATM   18  C   UNL     1     -42.627 -52.430  14.426  1.00  0.00     0.032 A 
ENDBRANCH  10  12
ENDBRANCH   2  10
BRANCH   1  19
HETATM   19  O   UNL     1     -38.824 -50.566  11.316  1.00  0.00    -0.344 OA
HETATM   20  H   UNL     1     -38.600 -51.002  12.151  1.00  0.00     0.219 HD
ENDBRANCH   1  19
BRANCH   5  21
HETATM   21  C   UNL     1     -41.308 -46.608  10.590  1.00  0.00     0.055 C 
HETATM   22  C   UNL     1     -39.969 -45.865  10.760  1.00  0.00     0.012 C 
HETATM   23  C   UNL     1     -39.748 -45.168  12.105  1.00  0.00     0.001 C 
HETATM   24  C   UNL     1     -40.992 -44.464  12.630  1.00  0.00     0.000 C 
HETATM   25  C   UNL     1     -42.167 -45.428  12.676  1.00  0.00     0.001 C 
HETATM   26  C   UNL     1     -42.494 -45.920  11.273  1.00  0.00     0.012 C 
ENDBRANCH   5  21
TORSDOF 4
ENDMDL
MODEL 9
REMARK VINA RESULT:      -6.3      2.172      3.344
REMARK  4 active torsions:
REMARK  status: ('A' for Active; 'I' for Inactive)
REMARK    1  A    between atoms: O_1  and  C_2 
REMARK    2  A    between atoms: C_3  and  C_15 
REMARK    3  A    between atoms: C_6  and  C_9 
REMARK    4  A    between atoms: C_15  and  C_17 
ROOT
HETATM    1  C   UNL     1     -40.432 -50.208  11.222  1.00  0.00     0.174 C 
HETATM    2  C   UNL     1     -41.397 -49.258  11.328  1.00  0.00     0.150 C 
HETATM    3  N   UNL     1     -42.631 -49.635  11.891  1.00  0.00    -0.292 N 
HETATM    4  N   UNL     1     -42.727 -50.863  12.501  1.00  0.00    -0.288 N 
HETATM    5  C   UNL     1     -41.827 -51.831  12.065  1.00  0.00     0.102 C 
HETATM    6  N   UNL     1     -40.696 -51.547  11.467  1.00  0.00    -0.323 N 
ATOM      7  HN  UNL     1     -40.040 -52.278  11.195  1.00  0.00     0.169 HD
HETATM    8  H   UNL     1     -43.087 -48.831  12.343  1.00  0.00     0.187 HD
HETATM    9  H   UNL     1     -43.651 -51.167  12.787  1.00  0.00     0.188 HD
ENDROOT
BRANCH   2  10
HETATM   10  C   UNL     1     -41.316 -47.782  11.025  1.00  0.00     0.214 C 
HETATM   11  O   UNL     1     -41.925 -47.356  10.037  1.00  0.00    -0.285 OA
BRANCH  10  12
HETATM   12  C   UNL     1     -40.540 -46.815  11.842  1.00  0.00     0.019 A 
HETATM   13  C   UNL     1     -40.241 -45.517  11.434  1.00  0.00     0.032 A 
HETATM   14  C   UNL     1     -39.426 -44.751  12.252  1.00  0.00     0.088 A 
HETATM   15  N   UNL     1     -38.955 -45.168  13.445  1.00  0.00    -0.375 N 
HETATM   16  C   UNL     1     -39.329 -46.396  13.858  1.00  0.00     0.088 A 
ATOM     17  HN  UNL     1     -38.342 -44.580  14.011  1.00  0.00     0.164 HD
HETATM   18  C   UNL     1     -40.113 -47.246  13.102  1.00  0.00     0.032 A 
ENDBRANCH  10  12
ENDBRANCH   2  10
BRANCH   1  19
HETATM   19  O   UNL     1     -39.129 -49.950  10.878  1.00  0.00    -0.344 OA
HETATM   20  H   UNL     1     -38.594 -50.727  11.096  1.00  0.00     0.219 HD
ENDBRANCH   1  19
BRANCH   5  21
HETATM   21  C   UNL     1     -42.142 -53.325  12.256  1.00  0.00     0.055 C 
HETATM   22  C   UNL     1     -43.518 -53.645  12.869  1.00  0.00     0.012 C 
HETATM   23  C   UNL     1     -43.552 -53.851  14.386  1.00  0.00     0.001 C 
HETATM   24  C   UNL     1     -42.367 -54.650  14.911  1.00  0.00     0.000 C 
HETATM   25  C   UNL     1     -41.059 -54.023  14.452  1.00  0.00     0.001 C 
HETATM   26  C   UNL     1     -40.973 -54.050  12.932  1.00  0.00     0.012 C 
ENDBRANCH   5  21
TORSDOF 4
ENDMDL
