MODEL 1
REMARK VINA RESULT:      -6.6      0.000      0.000
REMARK  4 active torsions:
REMARK  status: ('A' for Active; 'I' for Inactive)
REMARK       I    between atoms: N_2  and  C_3 
REMARK    1  A    between atoms: C_3  and  C_5 
REMARK    2  A    between atoms: C_5  and  N_6 
REMARK    3  A    between atoms: C_9  and  N_12 
REMARK       I    between atoms: N_12  and  C_13 
REMARK       I    between atoms: C_13  and  N_15 
REMARK    4  A    between atoms: N_15  and  C_16 
ROOT
HETATM    1  N   UNL     1     -43.044 -49.657  12.364  1.00  0.00    -0.343 N 
HETATM    2  C   UNL     1     -43.353 -50.858  12.964  1.00  0.00     0.300 C 
HETATM    3  O   UNL     1     -42.514 -51.546  13.532  1.00  0.00    -0.254 OA
HETATM    4  N   UNL     1     -44.683 -51.179  12.792  1.00  0.00    -0.196 NA
HETATM    5  H   UNL     1     -43.807 -48.996  12.316  1.00  0.00     0.164 HD
HETATM    6  H   UNL     1     -44.980 -51.045  11.837  1.00  0.00     0.139 HD
ENDROOT
BRANCH   1   7
HETATM    7  C   UNL     1     -41.678 -49.136  12.425  1.00  0.00     0.089 C 
HETATM    8  C   UNL     1     -41.571 -47.901  13.327  1.00  0.00     0.055 C 
HETATM    9  C   UNL     1     -42.119 -46.645  12.647  1.00  0.00     0.275 C 
HETATM   10  N   UNL     1     -41.552 -46.373  11.311  1.00  0.00     0.097 N 
HETATM   11  C   UNL     1     -41.710 -47.552  10.442  1.00  0.00     0.275 C 
HETATM   12  C   UNL     1     -41.141 -48.846  11.025  1.00  0.00     0.055 C 
BRANCH  10  13
HETATM   13  C   UNL     1     -40.132 -45.943  11.369  1.00  0.00     0.374 C 
BRANCH  13  14
HETATM   14  C   UNL     1     -39.815 -44.896  10.299  1.00  0.00     0.245 C 
HETATM   15  N   UNL     1     -38.839 -45.289   9.406  1.00  0.00    -0.364 N 
HETATM   16  C   UNL     1     -38.480 -44.452   8.292  1.00  0.00     0.149 C 
HETATM   17  H   UNL     1     -38.621 -46.279   9.385  1.00  0.00     0.161 HD
HETATM   18  O   UNL     1     -40.367 -43.800  10.264  1.00  0.00    -0.272 OA
ENDBRANCH  13  14
ENDBRANCH  10  13
ENDBRANCH   1   7
BRANCH   4  19
HETATM   19  C   UNL     1     -45.178 -52.395  13.293  1.00  0.00     0.094 A 
HETATM   20  N   UNL     1     -44.634 -53.487  12.709  1.00  0.00    -0.356 N 
HETATM   21  C   UNL     1     -44.966 -54.688  13.229  1.00  0.00     0.089 A 
ATOM     22  HN  UNL     1     -44.002 -53.408  11.912  1.00  0.00     0.166 HD
HETATM   23  C   UNL     1     -45.846 -54.855  14.283  1.00  0.00     0.018 A 
HETATM   24  C   UNL     1     -46.461 -53.725  14.808  1.00  0.00     0.011 A 
HETATM   25  C   UNL     1     -46.150 -52.461  14.296  1.00  0.00    -0.023 A 
HETATM   26  C   UNL     1     -46.918 -51.260  14.772  1.00  0.00     0.052 C 
ENDBRANCH   4  19
TORSDOF 4
ENDMDL
MODEL 2
REMARK VINA RESULT:      -6.5      1.098      1.892
REMARK  4 active torsions:
REMARK  status: ('A' for Active; 'I' for Inactive)
REMARK       I    between atoms: N_2  and  C_3 
REMARK    1  A    between atoms: C_3  and  C_5 
REMARK    2  A    between atoms: C_5  and  N_6 
REMARK    3  A    between atoms: C_9  and  N_12 
REMARK       I    between atoms: N_12  and  C_13 
REMARK       I    between atoms: C_13  and  N_15 
REMARK    4  A    between atoms: N_15  and  C_16 
ROOT
HETATM    1  N   UNL     1     -43.050 -49.639  12.310  1.00  0.00    -0.343 N 
HETATM    2  C   UNL     1     -43.711 -50.500  13.161  1.00  0.00     0.300 C 
HETATM    3  O   UNL     1     -43.961 -50.212  14.324  1.00  0.00    -0.254 OA
HETATM    4  N   UNL     1     -43.990 -51.701  12.544  1.00  0.00    -0.196 NA
HETATM    5  H   UNL     1     -43.264 -49.762  11.330  1.00  0.00     0.164 HD
HETATM    6  H   UNL     1     -43.190 -52.061  12.045  1.00  0.00     0.139 HD
ENDROOT
BRANCH   1   7
HETATM    7  C   UNL     1     -42.655 -48.309  12.773  1.00  0.00     0.089 C 
HETATM    8  C   UNL     1     -43.078 -47.208  11.794  1.00  0.00     0.055 C 
HETATM    9  C   UNL     1     -42.167 -47.152  10.566  1.00  0.00     0.275 C 
HETATM   10  N   UNL     1     -40.726 -47.061  10.874  1.00  0.00     0.097 N 
HETATM   11  C   UNL     1     -40.327 -48.156  11.774  1.00  0.00     0.275 C 
HETATM   12  C   UNL     1     -41.155 -48.252  13.055  1.00  0.00     0.055 C 
BRANCH  10  13
HETATM   13  C   UNL     1     -40.346 -45.742  11.441  1.00  0.00     0.374 C 
BRANCH  13  14
HETATM   14  C   UNL     1     -39.895 -44.767  10.351  1.00  0.00     0.245 C 
HETATM   15  N   UNL     1     -38.915 -45.272   9.521  1.00  0.00    -0.364 N 
HETATM   16  C   UNL     1     -38.439 -44.512   8.396  1.00  0.00     0.149 C 
HETATM   17  H   UNL     1     -38.778 -46.276   9.546  1.00  0.00     0.161 HD
HETATM   18  O   UNL     1     -40.354 -43.633  10.249  1.00  0.00    -0.272 OA
ENDBRANCH  13  14
ENDBRANCH  10  13
ENDBRANCH   1   7
BRANCH   4  19
HETATM   19  C   UNL     1     -44.619 -52.727  13.269  1.00  0.00     0.094 A 
HETATM   20  N   UNL     1     -45.874 -52.423  13.669  1.00  0.00    -0.356 N 
HETATM   21  C   UNL     1     -46.584 -53.409  14.257  1.00  0.00     0.089 A 
ATOM     22  HN  UNL     1     -46.266 -51.491  13.534  1.00  0.00     0.166 HD
HETATM   23  C   UNL     1     -46.089 -54.678  14.499  1.00  0.00     0.018 A 
HETATM   24  C   UNL     1     -44.767 -54.940  14.158  1.00  0.00     0.011 A 
HETATM   25  C   UNL     1     -43.992 -53.946  13.552  1.00  0.00    -0.023 A 
HETATM   26  C   UNL     1     -42.528 -54.189  13.315  1.00  0.00     0.052 C 
ENDBRANCH   4  19
TORSDOF 4
ENDMDL
MODEL 3
REMARK VINA RESULT:      -6.0      3.890      8.621
REMARK  4 active torsions:
REMARK  status: ('A' for Active; 'I' for Inactive)
REMARK       I    between atoms: N_2  and  C_3 
REMARK    1  A    between atoms: C_3  and  C_5 
REMARK    2  A    between atoms: C_5  and  N_6 
REMARK    3  A    between atoms: C_9  and  N_12 
REMARK       I    between atoms: N_12  and  C_13 
REMARK       I    between atoms: C_13  and  N_15 
REMARK    4  A    between atoms: N_15  and  C_16 
ROOT
HETATM    1  N   UNL     1     -41.443 -51.169  12.353  1.00  0.00    -0.343 N 
HETATM    2  C   UNL     1     -42.004 -49.944  12.058  1.00  0.00     0.300 C 
HETATM    3  O   UNL     1     -42.956 -49.489  12.679  1.00  0.00    -0.254 OA
HETATM    4  N   UNL     1     -41.389 -49.359  10.972  1.00  0.00    -0.196 NA
HETATM    5  H   UNL     1     -40.467 -51.259  12.110  1.00  0.00     0.164 HD
HETATM    6  H   UNL     1     -41.269 -50.012  10.212  1.00  0.00     0.139 HD
ENDROOT
BRANCH   1   7
HETATM    7  C   UNL     1     -41.957 -51.960  13.471  1.00  0.00     0.089 C 
HETATM    8  C   UNL     1     -41.163 -51.720  14.761  1.00  0.00     0.055 C 
HETATM    9  C   UNL     1     -39.815 -52.444  14.747  1.00  0.00     0.275 C 
HETATM   10  N   UNL     1     -39.894 -53.885  14.435  1.00  0.00     0.097 N 
HETATM   11  C   UNL     1     -40.615 -54.093  13.168  1.00  0.00     0.275 C 
HETATM   12  C   UNL     1     -41.998 -53.445  13.115  1.00  0.00     0.055 C 
BRANCH  10  13
HETATM   13  C   UNL     1     -40.512 -54.673  15.532  1.00  0.00     0.374 C 
BRANCH  13  14
HETATM   14  C   UNL     1     -39.562 -55.754  16.054  1.00  0.00     0.245 C 
HETATM   15  N   UNL     1     -40.109 -56.548  17.042  1.00  0.00    -0.364 N 
HETATM   16  C   UNL     1     -39.376 -57.661  17.583  1.00  0.00     0.149 C 
HETATM   17  H   UNL     1     -41.118 -56.511  17.142  1.00  0.00     0.161 HD
HETATM   18  O   UNL     1     -38.413 -55.879  15.641  1.00  0.00    -0.272 OA
ENDBRANCH  13  14
ENDBRANCH  10  13
ENDBRANCH   1   7
BRANCH   4  19
HETATM   19  C   UNL     1     -41.855 -48.125  10.487  1.00  0.00     0.094 A 
HETATM   20  N   UNL     1     -42.969 -48.223   9.726  1.00  0.00    -0.356 N 
HETATM   21  C   UNL     1     -43.546 -47.067   9.335  1.00  0.00     0.089 A 
ATOM     22  HN  UNL     1     -43.355 -49.129   9.459  1.00  0.00     0.166 HD
HETATM   23  C   UNL     1     -43.044 -45.814   9.636  1.00  0.00     0.018 A 
HETATM   24  C   UNL     1     -41.850 -45.739  10.344  1.00  0.00     0.011 A 
HETATM   25  C   UNL     1     -41.215 -46.912  10.765  1.00  0.00    -0.023 A 
HETATM   26  C   UNL     1     -39.858 -46.831  11.406  1.00  0.00     0.052 C 
ENDBRANCH   4  19
TORSDOF 4
ENDMDL
MODEL 4
REMARK VINA RESULT:      -5.8      1.863      2.622
REMARK  4 active torsions:
REMARK  status: ('A' for Active; 'I' for Inactive)
REMARK       I    between atoms: N_2  and  C_3 
REMARK    1  A    between atoms: C_3  and  C_5 
REMARK    2  A    between atoms: C_5  and  N_6 
REMARK    3  A    between atoms: C_9  and  N_12 
REMARK       I    between atoms: N_12  and  C_13 
REMARK       I    between atoms: C_13  and  N_15 
REMARK    4  A    between atoms: N_15  and  C_16 
ROOT
HETATM    1  N   UNL     1     -42.727 -49.692  12.091  1.00  0.00    -0.343 N 
HETATM    2  C   UNL     1     -43.367 -50.663  12.831  1.00  0.00     0.300 C 
HETATM    3  O   UNL     1     -44.226 -50.397  13.663  1.00  0.00    -0.254 OA
HETATM    4  N   UNL     1     -42.879 -51.919  12.542  1.00  0.00    -0.196 NA
HETATM    5  H   UNL     1     -42.388 -49.998  11.190  1.00  0.00     0.164 HD
HETATM    6  H   UNL     1     -41.870 -51.935  12.526  1.00  0.00     0.139 HD
ENDROOT
BRANCH   1   7
HETATM    7  C   UNL     1     -43.093 -48.285  12.252  1.00  0.00     0.089 C 
HETATM    8  C   UNL     1     -43.723 -47.702  10.982  1.00  0.00     0.055 C 
HETATM    9  C   UNL     1     -42.674 -47.402   9.909  1.00  0.00     0.275 C 
HETATM   10  N   UNL     1     -41.545 -46.569  10.369  1.00  0.00     0.097 N 
HETATM   11  C   UNL     1     -40.921 -47.170  11.559  1.00  0.00     0.275 C 
HETATM   12  C   UNL     1     -41.892 -47.456  12.704  1.00  0.00     0.055 C 
BRANCH  10  13
HETATM   13  C   UNL     1     -41.944 -45.163  10.632  1.00  0.00     0.374 C 
BRANCH  13  14
HETATM   14  C   UNL     1     -40.735 -44.287  10.970  1.00  0.00     0.245 C 
HETATM   15  N   UNL     1     -40.760 -43.771  12.250  1.00  0.00    -0.364 N 
HETATM   16  C   UNL     1     -39.660 -42.993  12.753  1.00  0.00     0.149 C 
HETATM   17  H   UNL     1     -41.409 -44.205  12.898  1.00  0.00     0.161 HD
HETATM   18  O   UNL     1     -39.842 -44.053  10.161  1.00  0.00    -0.272 OA
ENDBRANCH  13  14
ENDBRANCH  10  13
ENDBRANCH   1   7
BRANCH   4  19
HETATM   19  C   UNL     1     -43.375 -53.037  13.234  1.00  0.00     0.094 A 
HETATM   20  N   UNL     1     -44.669 -53.319  12.959  1.00  0.00    -0.356 N 
HETATM   21  C   UNL     1     -45.173 -54.454  13.488  1.00  0.00     0.089 A 
ATOM     22  HN  UNL     1     -45.238 -52.702  12.379  1.00  0.00     0.166 HD
HETATM   23  C   UNL     1     -44.458 -55.305  14.312  1.00  0.00     0.018 A 
HETATM   24  C   UNL     1     -43.158 -54.948  14.652  1.00  0.00     0.011 A 
HETATM   25  C   UNL     1     -42.598 -53.778  14.131  1.00  0.00    -0.023 A 
HETATM   26  C   UNL     1     -41.247 -53.326  14.611  1.00  0.00     0.052 C 
ENDBRANCH   4  19
TORSDOF 4
ENDMDL
MODEL 5
REMARK VINA RESULT:      -5.6      2.344      8.745
REMARK  4 active torsions:
REMARK  status: ('A' for Active; 'I' for Inactive)
REMARK       I    between atoms: N_2  and  C_3 
REMARK    1  A    between atoms: C_3  and  C_5 
REMARK    2  A    between atoms: C_5  and  N_6 
REMARK    3  A    between atoms: C_9  and  N_12 
REMARK       I    between atoms: N_12  and  C_13 
REMARK       I    between atoms: C_13  and  N_15 
REMARK    4  A    between atoms: N_15  and  C_16 
ROOT
HETATM    1  N   UNL     1     -40.683 -50.224  12.451  1.00  0.00    -0.343 N 
HETATM    2  C   UNL     1     -40.846 -48.941  11.972  1.00  0.00     0.300 C 
HETATM    3  O   UNL     1     -41.749 -48.635  11.203  1.00  0.00    -0.254 OA
HETATM    4  N   UNL     1     -39.852 -48.103  12.429  1.00  0.00    -0.196 NA
HETATM    5  H   UNL     1     -40.228 -50.287  13.351  1.00  0.00     0.164 HD
HETATM    6  H   UNL     1     -38.937 -48.522  12.339  1.00  0.00     0.139 HD
ENDROOT
BRANCH   1   7
HETATM    7  C   UNL     1     -41.632 -51.272  12.078  1.00  0.00     0.089 C 
HETATM    8  C   UNL     1     -42.839 -51.322  13.022  1.00  0.00     0.055 C 
HETATM    9  C   UNL     1     -42.494 -51.981  14.359  1.00  0.00     0.275 C 
HETATM   10  N   UNL     1     -41.859 -53.309  14.244  1.00  0.00     0.097 N 
HETATM   11  C   UNL     1     -40.672 -53.231  13.375  1.00  0.00     0.275 C 
HETATM   12  C   UNL     1     -40.939 -52.631  11.994  1.00  0.00     0.055 C 
BRANCH  10  13
HETATM   13  C   UNL     1     -42.800 -54.352  13.765  1.00  0.00     0.374 C 
BRANCH  13  14
HETATM   14  C   UNL     1     -43.992 -54.515  14.712  1.00  0.00     0.245 C 
HETATM   15  N   UNL     1     -45.212 -54.250  14.124  1.00  0.00    -0.364 N 
HETATM   16  C   UNL     1     -46.438 -54.433  14.856  1.00  0.00     0.149 C 
HETATM   17  H   UNL     1     -45.228 -54.226  13.111  1.00  0.00     0.161 HD
HETATM   18  O   UNL     1     -43.860 -54.830  15.891  1.00  0.00    -0.272 OA
ENDBRANCH  13  14
ENDBRANCH  10  13
ENDBRANCH   1   7
BRANCH   4  19
HETATM   19  C   UNL     1     -39.820 -46.763  12.008  1.00  0.00     0.094 A 
HETATM   20  N   UNL     1     -39.889 -46.611  10.666  1.00  0.00    -0.356 N 
HETATM   21  C   UNL     1     -39.994 -45.349  10.198  1.00  0.00     0.089 A 
ATOM     22  HN  UNL     1     -39.863 -47.413  10.036  1.00  0.00     0.166 HD
HETATM   23  C   UNL     1     -39.996 -44.225  11.004  1.00  0.00     0.018 A 
HETATM   24  C   UNL     1     -39.835 -44.402  12.374  1.00  0.00     0.011 A 
HETATM   25  C   UNL     1     -39.717 -45.692  12.901  1.00  0.00    -0.023 A 
HETATM   26  C   UNL     1     -39.403 -45.869  14.361  1.00  0.00     0.052 C 
ENDBRANCH   4  19
TORSDOF 4
ENDMDL
MODEL 6
REMARK VINA RESULT:      -5.5      1.312      1.564
REMARK  4 active torsions:
REMARK  status: ('A' for Active; 'I' for Inactive)
REMARK       I    between atoms: N_2  and  C_3 
REMARK    1  A    between atoms: C_3  and  C_5 
REMARK    2  A    between atoms: C_5  and  N_6 
REMARK    3  A    between atoms: C_9  and  N_12 
REMARK       I    between atoms: N_12  and  C_13 
REMARK       I    between atoms: C_13  and  N_15 
REMARK    4  A    between atoms: N_15  and  C_16 
ROOT
HETATM    1  N   UNL     1     -42.869 -49.491  12.078  1.00  0.00    -0.343 N 
HETATM    2  C   UNL     1     -43.001 -50.700  12.727  1.00  0.00     0.300 C 
HETATM    3  O   UNL     1     -42.038 -51.343  13.124  1.00  0.00    -0.254 OA
HETATM    4  N   UNL     1     -44.323 -51.084  12.810  1.00  0.00    -0.196 NA
HETATM    5  H   UNL     1     -43.658 -48.867  12.176  1.00  0.00     0.164 HD
HETATM    6  H   UNL     1     -44.802 -50.973  11.929  1.00  0.00     0.139 HD
ENDROOT
BRANCH   1   7
HETATM    7  C   UNL     1     -41.543 -48.906  11.878  1.00  0.00     0.089 C 
HETATM    8  C   UNL     1     -41.156 -47.951  13.013  1.00  0.00     0.055 C 
HETATM    9  C   UNL     1     -41.870 -46.602  12.895  1.00  0.00     0.275 C 
HETATM   10  N   UNL     1     -41.730 -45.946  11.580  1.00  0.00     0.097 N 
HETATM   11  C   UNL     1     -42.154 -46.860  10.507  1.00  0.00     0.275 C 
HETATM   12  C   UNL     1     -41.450 -48.217  10.518  1.00  0.00     0.055 C 
BRANCH  10  13
HETATM   13  C   UNL     1     -40.354 -45.444  11.337  1.00  0.00     0.374 C 
BRANCH  13  14
HETATM   14  C   UNL     1     -40.287 -43.916  11.415  1.00  0.00     0.245 C 
HETATM   15  N   UNL     1     -39.923 -43.437  12.657  1.00  0.00    -0.364 N 
HETATM   16  C   UNL     1     -39.736 -42.027  12.876  1.00  0.00     0.149 C 
HETATM   17  H   UNL     1     -39.503 -44.106  13.293  1.00  0.00     0.161 HD
HETATM   18  O   UNL     1     -40.559 -43.194  10.460  1.00  0.00    -0.272 OA
ENDBRANCH  13  14
ENDBRANCH  10  13
ENDBRANCH   1   7
BRANCH   4  19
HETATM   19  C   UNL     1     -44.655 -52.317  13.396  1.00  0.00     0.094 A 
HETATM   20  N   UNL     1     -44.093 -53.383  12.781  1.00  0.00    -0.356 N 
HETATM   21  C   UNL     1     -44.263 -54.587  13.367  1.00  0.00     0.089 A 
ATOM     22  HN  UNL     1     -43.564 -53.281  11.915  1.00  0.00     0.166 HD
HETATM   23  C   UNL     1     -45.001 -54.786  14.520  1.00  0.00     0.018 A 
HETATM   24  C   UNL     1     -45.643 -53.690  15.084  1.00  0.00     0.011 A 
HETATM   25  C   UNL     1     -45.498 -52.424  14.507  1.00  0.00    -0.023 A 
HETATM   26  C   UNL     1     -46.304 -51.272  15.038  1.00  0.00     0.052 C 
ENDBRANCH   4  19
TORSDOF 4
ENDMDL
MODEL 7
REMARK VINA RESULT:      -5.4      3.113      4.068
REMARK  4 active torsions:
REMARK  status: ('A' for Active; 'I' for Inactive)
REMARK       I    between atoms: N_2  and  C_3 
REMARK    1  A    between atoms: C_3  and  C_5 
REMARK    2  A    between atoms: C_5  and  N_6 
REMARK    3  A    between atoms: C_9  and  N_12 
REMARK       I    between atoms: N_12  and  C_13 
REMARK       I    between atoms: C_13  and  N_15 
REMARK    4  A    between atoms: N_15  and  C_16 
ROOT
HETATM    1  N   UNL     1     -42.198 -48.961  11.169  1.00  0.00    -0.343 N 
HETATM    2  C   UNL     1     -42.088 -49.989  12.081  1.00  0.00     0.300 C 
HETATM    3  O   UNL     1     -42.673 -49.979  13.157  1.00  0.00    -0.254 OA
HETATM    4  N   UNL     1     -41.218 -50.962  11.640  1.00  0.00    -0.196 NA
HETATM    5  H   UNL     1     -42.055 -49.230  10.206  1.00  0.00     0.164 HD
HETATM    6  H   UNL     1     -40.362 -50.565  11.280  1.00  0.00     0.139 HD
ENDROOT
BRANCH   1   7
HETATM    7  C   UNL     1     -43.070 -47.821  11.450  1.00  0.00     0.089 C 
HETATM    8  C   UNL     1     -43.308 -46.956  10.206  1.00  0.00     0.055 C 
HETATM    9  C   UNL     1     -42.102 -46.072   9.884  1.00  0.00     0.275 C 
HETATM   10  N   UNL     1     -41.621 -45.251  11.014  1.00  0.00     0.097 N 
HETATM   11  C   UNL     1     -41.349 -46.105  12.182  1.00  0.00     0.275 C 
HETATM   12  C   UNL     1     -42.524 -46.987  12.607  1.00  0.00     0.055 C 
BRANCH  10  13
HETATM   13  C   UNL     1     -42.561 -44.156  11.363  1.00  0.00     0.374 C 
BRANCH  13  14
HETATM   14  C   UNL     1     -41.878 -42.787  11.309  1.00  0.00     0.245 C 
HETATM   15  N   UNL     1     -41.064 -42.526  12.393  1.00  0.00    -0.364 N 
HETATM   16  C   UNL     1     -40.287 -41.317  12.456  1.00  0.00     0.149 C 
HETATM   17  H   UNL     1     -40.805 -43.323  12.963  1.00  0.00     0.161 HD
HETATM   18  O   UNL     1     -42.063 -41.993  10.391  1.00  0.00    -0.272 OA
ENDBRANCH  13  14
ENDBRANCH  10  13
ENDBRANCH   1   7
BRANCH   4  19
HETATM   19  C   UNL     1     -40.937 -52.070  12.458  1.00  0.00     0.094 A 
HETATM   20  N   UNL     1     -41.886 -53.033  12.416  1.00  0.00    -0.356 N 
HETATM   21  C   UNL     1     -41.621 -54.181  13.075  1.00  0.00     0.089 A 
ATOM     22  HN  UNL     1     -42.761 -52.898  11.910  1.00  0.00     0.166 HD
HETATM   23  C   UNL     1     -40.468 -54.402  13.807  1.00  0.00     0.018 A 
HETATM   24  C   UNL     1     -39.548 -53.365  13.908  1.00  0.00     0.011 A 
HETATM   25  C   UNL     1     -39.785 -52.156  13.246  1.00  0.00    -0.023 A 
HETATM   26  C   UNL     1     -38.858 -50.994  13.472  1.00  0.00     0.052 C 
ENDBRANCH   4  19
TORSDOF 4
ENDMDL
MODEL 8
REMARK VINA RESULT:      -5.4      1.815      2.316
REMARK  4 active torsions:
REMARK  status: ('A' for Active; 'I' for Inactive)
REMARK       I    between atoms: N_2  and  C_3 
REMARK    1  A    between atoms: C_3  and  C_5 
REMARK    2  A    between atoms: C_5  and  N_6 
REMARK    3  A    between atoms: C_9  and  N_12 
REMARK       I    between atoms: N_12  and  C_13 
REMARK       I    between atoms: C_13  and  N_15 
REMARK    4  A    between atoms: N_15  and  C_16 
ROOT
HETATM    1  N   UNL     1     -42.598 -49.743  12.385  1.00  0.00    -0.343 N 
HETATM    2  C   UNL     1     -43.379 -50.462  13.264  1.00  0.00     0.300 C 
HETATM    3  O   UNL     1     -43.536 -50.127  14.432  1.00  0.00    -0.254 OA
HETATM    4  N   UNL     1     -43.892 -51.595  12.670  1.00  0.00    -0.196 NA
HETATM    5  H   UNL     1     -42.860 -49.830  11.413  1.00  0.00     0.164 HD
HETATM    6  H   UNL     1     -43.187 -52.099  12.153  1.00  0.00     0.139 HD
ENDROOT
BRANCH   1   7
HETATM    7  C   UNL     1     -41.952 -48.505  12.822  1.00  0.00     0.089 C 
HETATM    8  C   UNL     1     -42.942 -47.338  12.914  1.00  0.00     0.055 C 
HETATM    9  C   UNL     1     -43.297 -46.777  11.536  1.00  0.00     0.275 C 
HETATM   10  N   UNL     1     -42.133 -46.417  10.701  1.00  0.00     0.097 N 
HETATM   11  C   UNL     1     -41.219 -47.564  10.581  1.00  0.00     0.275 C 
HETATM   12  C   UNL     1     -40.771 -48.157  11.917  1.00  0.00     0.055 C 
BRANCH  10  13
HETATM   13  C   UNL     1     -41.418 -45.218  11.207  1.00  0.00     0.374 C 
BRANCH  13  14
HETATM   14  C   UNL     1     -42.333 -43.992  11.255  1.00  0.00     0.245 C 
HETATM   15  N   UNL     1     -42.407 -43.400  12.499  1.00  0.00    -0.364 N 
HETATM   16  C   UNL     1     -43.162 -42.191  12.696  1.00  0.00     0.149 C 
HETATM   17  H   UNL     1     -41.688 -43.660  13.165  1.00  0.00     0.161 HD
HETATM   18  O   UNL     1     -42.958 -43.596  10.275  1.00  0.00    -0.272 OA
ENDBRANCH  13  14
ENDBRANCH  10  13
ENDBRANCH   1   7
BRANCH   4  19
HETATM   19  C   UNL     1     -44.676 -52.485  13.424  1.00  0.00     0.094 A 
HETATM   20  N   UNL     1     -43.954 -53.326  14.199  1.00  0.00    -0.356 N 
HETATM   21  C   UNL     1     -44.643 -54.119  15.047  1.00  0.00     0.089 A 
ATOM     22  HN  UNL     1     -42.936 -53.359  14.145  1.00  0.00     0.166 HD
HETATM   23  C   UNL     1     -46.023 -54.141  15.133  1.00  0.00     0.018 A 
HETATM   24  C   UNL     1     -46.746 -53.332  14.264  1.00  0.00     0.011 A 
HETATM   25  C   UNL     1     -46.073 -52.498  13.365  1.00  0.00    -0.023 A 
HETATM   26  C   UNL     1     -46.858 -51.732  12.336  1.00  0.00     0.052 C 
ENDBRANCH   4  19
TORSDOF 4
ENDMDL
MODEL 9
REMARK VINA RESULT:      -5.2      3.661      4.189
REMARK  4 active torsions:
REMARK  status: ('A' for Active; 'I' for Inactive)
REMARK       I    between atoms: N_2  and  C_3 
REMARK    1  A    between atoms: C_3  and  C_5 
REMARK    2  A    between atoms: C_5  and  N_6 
REMARK    3  A    between atoms: C_9  and  N_12 
REMARK       I    between atoms: N_12  and  C_13 
REMARK       I    between atoms: C_13  and  N_15 
REMARK    4  A    between atoms: N_15  and  C_16 
ROOT
HETATM    1  N   UNL     1     -40.562 -50.518  13.447  1.00  0.00    -0.343 N 
HETATM    2  C   UNL     1     -40.191 -51.820  13.708  1.00  0.00     0.300 C 
HETATM    3  O   UNL     1     -39.672 -52.539  12.863  1.00  0.00    -0.254 OA
HETATM    4  N   UNL     1     -40.524 -52.190  14.993  1.00  0.00    -0.196 NA
HETATM    5  H   UNL     1     -40.568 -49.908  14.252  1.00  0.00     0.164 HD
HETATM    6  H   UNL     1     -41.467 -51.917  15.229  1.00  0.00     0.139 HD
ENDROOT
BRANCH   1   7
HETATM    7  C   UNL     1     -40.303 -49.931  12.132  1.00  0.00     0.089 C 
HETATM    8  C   UNL     1     -39.147 -48.925  12.167  1.00  0.00     0.055 C 
HETATM    9  C   UNL     1     -39.568 -47.589  12.784  1.00  0.00     0.275 C 
HETATM   10  N   UNL     1     -40.774 -46.987  12.181  1.00  0.00     0.097 N 
HETATM   11  C   UNL     1     -41.888 -47.950  12.203  1.00  0.00     0.275 C 
HETATM   12  C   UNL     1     -41.569 -49.299  11.558  1.00  0.00     0.055 C 
BRANCH  10  13
HETATM   13  C   UNL     1     -40.534 -46.484  10.805  1.00  0.00     0.374 C 
BRANCH  13  14
HETATM   14  C   UNL     1     -41.773 -45.790  10.233  1.00  0.00     0.245 C 
HETATM   15  N   UNL     1     -42.438 -46.534   9.279  1.00  0.00    -0.364 N 
HETATM   16  C   UNL     1     -43.667 -46.060   8.701  1.00  0.00     0.149 C 
HETATM   17  H   UNL     1     -42.208 -47.521   9.236  1.00  0.00     0.161 HD
HETATM   18  O   UNL     1     -42.120 -44.666  10.581  1.00  0.00    -0.272 OA
ENDBRANCH  13  14
ENDBRANCH  10  13
ENDBRANCH   1   7
BRANCH   4  19
HETATM   19  C   UNL     1     -40.269 -53.501  15.431  1.00  0.00     0.094 A 
HETATM   20  N   UNL     1     -38.954 -53.794  15.539  1.00  0.00    -0.356 N 
HETATM   21  C   UNL     1     -38.636 -54.990  16.077  1.00  0.00     0.089 A 
ATOM     22  HN  UNL     1     -38.234 -53.140  15.229  1.00  0.00     0.166 HD
HETATM   23  C   UNL     1     -39.570 -55.928  16.479  1.00  0.00     0.018 A 
HETATM   24  C   UNL     1     -40.915 -55.641  16.275  1.00  0.00     0.011 A 
HETATM   25  C   UNL     1     -41.289 -54.414  15.716  1.00  0.00    -0.023 A 
HETATM   26  C   UNL     1     -42.731 -54.167  15.371  1.00  0.00     0.052 C 
ENDBRANCH   4  19
TORSDOF 4
ENDMDL
