MODEL 1
REMARK VINA RESULT:      -5.3      0.000      0.000
REMARK  6 active torsions:
REMARK  status: ('A' for Active; 'I' for Inactive)
REMARK    1  A    between atoms: N_2  and  C_4 
REMARK    2  A    between atoms: N_9  and  C_10 
REMARK    3  A    between atoms: C_10  and  C_11 
REMARK       I    between atoms: C_11  and  N_13 
REMARK    4  A    between atoms: N_13  and  C_14 
REMARK    5  A    between atoms: C_14  and  C_15 
REMARK    6  A    between atoms: C_14  and  C_18 
ROOT
HETATM    1  C   UNL     1     -42.498 -50.125  14.421  1.00  0.00     0.234 C 
ENDROOT
BRANCH   1   2
HETATM    2  N   UNL     1     -41.339 -51.025  14.323  1.00  0.00    -0.314 N 
HETATM    3  C   UNL     1     -41.362 -52.247  15.007  1.00  0.00     0.247 C 
HETATM    4  C   UNL     1     -40.312 -53.225  14.611  1.00  0.00     0.077 C 
HETATM    5  O   UNL     1     -42.214 -52.587  15.822  1.00  0.00    -0.268 OA
HETATM    6  C   UNL     1     -39.265 -52.823  13.878  1.00  0.00     0.043 C 
HETATM    7  C   UNL     1     -39.167 -51.443  13.442  1.00  0.00     0.118 C 
HETATM    8  C   UNL     1     -40.212 -50.614  13.614  1.00  0.00     0.130 C 
BRANCH   7   9
HETATM    9  N   UNL     1     -37.960 -50.934  12.800  1.00  0.00    -0.114 N 
HETATM   10  O   UNL     1     -37.089 -51.761  12.498  1.00  0.00    -0.532 OA
HETATM   11  O   UNL     1     -37.861 -49.711  12.616  1.00  0.00    -0.532 OA
ENDBRANCH   7   9
ENDBRANCH   1   2
BRANCH   1  12
HETATM   12  C   UNL     1     -43.339 -49.988  13.135  1.00  0.00     0.236 C 
HETATM   13  O   UNL     1     -43.100 -49.094  12.320  1.00  0.00    -0.272 OA
HETATM   14  N   UNL     1     -44.410 -50.807  12.901  1.00  0.00    -0.354 N 
HETATM   15  H   UNL     1     -44.961 -50.533  12.099  1.00  0.00     0.162 HD
BRANCH  14  16
HETATM   16  C   UNL     1     -44.950 -51.834  13.763  1.00  0.00     0.092 C 
BRANCH  16  17
HETATM   17  C   UNL     1     -46.207 -51.329  14.425  1.00  0.00     0.009 A 
HETATM   18  C   UNL     1     -46.231 -51.156  15.931  1.00  0.00     0.007 A 
HETATM   19  C   UNL     1     -47.130 -52.164  15.277  1.00  0.00     0.007 A 
ENDBRANCH  16  17
BRANCH  16  20
HETATM   20  C   UNL     1     -44.991 -53.183  13.094  1.00  0.00     0.009 A 
HETATM   21  C   UNL     1     -44.455 -54.382  13.857  1.00  0.00     0.007 A 
HETATM   22  C   UNL     1     -43.789 -53.945  12.585  1.00  0.00     0.007 A 
ENDBRANCH  16  20
ENDBRANCH  14  16
ENDBRANCH   1  12
TORSDOF 6
ENDMDL
MODEL 2
REMARK VINA RESULT:      -5.3      1.753      2.289
REMARK  6 active torsions:
REMARK  status: ('A' for Active; 'I' for Inactive)
REMARK    1  A    between atoms: N_2  and  C_4 
REMARK    2  A    between atoms: N_9  and  C_10 
REMARK    3  A    between atoms: C_10  and  C_11 
REMARK       I    between atoms: C_11  and  N_13 
REMARK    4  A    between atoms: N_13  and  C_14 
REMARK    5  A    between atoms: C_14  and  C_15 
REMARK    6  A    between atoms: C_14  and  C_18 
ROOT
HETATM    1  C   UNL     1     -41.773 -50.274  13.917  1.00  0.00     0.234 C 
ENDROOT
BRANCH   1   2
HETATM    2  N   UNL     1     -40.429 -49.714  13.717  1.00  0.00    -0.314 N 
HETATM    3  C   UNL     1     -40.120 -48.462  14.264  1.00  0.00     0.247 C 
HETATM    4  C   UNL     1     -38.673 -48.113  14.292  1.00  0.00     0.077 C 
HETATM    5  O   UNL     1     -40.926 -47.698  14.785  1.00  0.00    -0.268 OA
HETATM    6  C   UNL     1     -37.798 -48.825  13.568  1.00  0.00     0.043 C 
HETATM    7  C   UNL     1     -38.252 -49.956  12.782  1.00  0.00     0.118 C 
HETATM    8  C   UNL     1     -39.513 -50.404  12.924  1.00  0.00     0.130 C 
BRANCH   7   9
HETATM    9  N   UNL     1     -37.362 -50.637  11.849  1.00  0.00    -0.114 N 
HETATM   10  O   UNL     1     -36.873 -51.714  12.217  1.00  0.00    -0.532 OA
HETATM   11  O   UNL     1     -37.124 -50.094  10.759  1.00  0.00    -0.532 OA
ENDBRANCH   7   9
ENDBRANCH   1   2
BRANCH   1  12
HETATM   12  C   UNL     1     -42.773 -50.018  12.771  1.00  0.00     0.236 C 
HETATM   13  O   UNL     1     -42.582 -49.107  11.962  1.00  0.00    -0.272 OA
HETATM   14  N   UNL     1     -43.929 -50.744  12.665  1.00  0.00    -0.354 N 
HETATM   15  H   UNL     1     -44.563 -50.395  11.961  1.00  0.00     0.162 HD
BRANCH  14  16
HETATM   16  C   UNL     1     -44.421 -51.768  13.559  1.00  0.00     0.092 C 
BRANCH  16  17
HETATM   17  C   UNL     1     -45.854 -51.474  13.922  1.00  0.00     0.009 A 
HETATM   18  C   UNL     1     -46.216 -51.247  15.377  1.00  0.00     0.007 A 
HETATM   19  C   UNL     1     -46.776 -52.429  14.641  1.00  0.00     0.007 A 
ENDBRANCH  16  17
BRANCH  16  20
HETATM   20  C   UNL     1     -44.077 -53.157  13.088  1.00  0.00     0.009 A 
HETATM   21  C   UNL     1     -43.561 -54.157  14.109  1.00  0.00     0.007 A 
HETATM   22  C   UNL     1     -42.679 -53.723  12.975  1.00  0.00     0.007 A 
ENDBRANCH  16  20
ENDBRANCH  14  16
ENDBRANCH   1  12
TORSDOF 6
ENDMDL
MODEL 3
REMARK VINA RESULT:      -5.1      3.481      6.078
REMARK  6 active torsions:
REMARK  status: ('A' for Active; 'I' for Inactive)
REMARK    1  A    between atoms: N_2  and  C_4 
REMARK    2  A    between atoms: N_9  and  C_10 
REMARK    3  A    between atoms: C_10  and  C_11 
REMARK       I    between atoms: C_11  and  N_13 
REMARK    4  A    between atoms: N_13  and  C_14 
REMARK    5  A    between atoms: C_14  and  C_15 
REMARK    6  A    between atoms: C_14  and  C_18 
ROOT
HETATM    1  C   UNL     1     -41.754 -50.114  12.164  1.00  0.00     0.234 C 
ENDROOT
BRANCH   1   2
HETATM    2  N   UNL     1     -41.993 -51.533  12.468  1.00  0.00    -0.314 N 
HETATM    3  C   UNL     1     -40.898 -52.384  12.664  1.00  0.00     0.247 C 
HETATM    4  C   UNL     1     -41.214 -53.707  13.271  1.00  0.00     0.077 C 
HETATM    5  O   UNL     1     -39.726 -52.090  12.457  1.00  0.00    -0.268 OA
HETATM    6  C   UNL     1     -42.484 -54.131  13.329  1.00  0.00     0.043 C 
HETATM    7  C   UNL     1     -43.556 -53.292  12.830  1.00  0.00     0.118 C 
HETATM    8  C   UNL     1     -43.299 -52.018  12.482  1.00  0.00     0.130 C 
BRANCH   7   9
HETATM    9  N   UNL     1     -44.920 -53.794  12.714  1.00  0.00    -0.114 N 
HETATM   10  O   UNL     1     -45.752 -53.053  12.174  1.00  0.00    -0.532 OA
HETATM   11  O   UNL     1     -45.178 -54.915  13.182  1.00  0.00    -0.532 OA
ENDBRANCH   7   9
ENDBRANCH   1   2
BRANCH   1  12
HETATM   12  C   UNL     1     -42.703 -49.120  12.865  1.00  0.00     0.236 C 
HETATM   13  O   UNL     1     -43.261 -49.423  13.922  1.00  0.00    -0.272 OA
HETATM   14  N   UNL     1     -43.002 -47.910  12.299  1.00  0.00    -0.354 N 
HETATM   15  H   UNL     1     -43.735 -47.409  12.781  1.00  0.00     0.162 HD
BRANCH  14  16
HETATM   16  C   UNL     1     -42.569 -47.395  11.019  1.00  0.00     0.092 C 
BRANCH  16  17
HETATM   17  C   UNL     1     -43.739 -47.359  10.069  1.00  0.00     0.009 A 
HETATM   18  C   UNL     1     -43.501 -47.626   8.595  1.00  0.00     0.007 A 
HETATM   19  C   UNL     1     -43.986 -46.278   9.044  1.00  0.00     0.007 A 
ENDBRANCH  16  17
BRANCH  16  20
HETATM   20  C   UNL     1     -41.724 -46.156  11.155  1.00  0.00     0.009 A 
HETATM   21  C   UNL     1     -40.266 -46.229  10.735  1.00  0.00     0.007 A 
HETATM   22  C   UNL     1     -40.620 -45.955  12.168  1.00  0.00     0.007 A 
ENDBRANCH  16  20
ENDBRANCH  14  16
ENDBRANCH   1  12
TORSDOF 6
ENDMDL
MODEL 4
REMARK VINA RESULT:      -5.1      3.044      6.201
REMARK  6 active torsions:
REMARK  status: ('A' for Active; 'I' for Inactive)
REMARK    1  A    between atoms: N_2  and  C_4 
REMARK    2  A    between atoms: N_9  and  C_10 
REMARK    3  A    between atoms: C_10  and  C_11 
REMARK       I    between atoms: C_11  and  N_13 
REMARK    4  A    between atoms: N_13  and  C_14 
REMARK    5  A    between atoms: C_14  and  C_15 
REMARK    6  A    between atoms: C_14  and  C_18 
ROOT
HETATM    1  C   UNL     1     -41.948 -50.626  12.543  1.00  0.00     0.234 C 
ENDROOT
BRANCH   1   2
HETATM    2  N   UNL     1     -42.123 -52.039  12.910  1.00  0.00    -0.314 N 
HETATM    3  C   UNL     1     -40.993 -52.854  13.056  1.00  0.00     0.247 C 
HETATM    4  C   UNL     1     -41.226 -54.162  13.727  1.00  0.00     0.077 C 
HETATM    5  O   UNL     1     -39.846 -52.535  12.758  1.00  0.00    -0.268 OA
HETATM    6  C   UNL     1     -42.477 -54.619  13.887  1.00  0.00     0.043 C 
HETATM    7  C   UNL     1     -43.605 -53.826  13.437  1.00  0.00     0.118 C 
HETATM    8  C   UNL     1     -43.410 -52.559  13.031  1.00  0.00     0.130 C 
BRANCH   7   9
HETATM    9  N   UNL     1     -44.959 -54.369  13.434  1.00  0.00    -0.114 N 
HETATM   10  O   UNL     1     -45.827 -53.720  12.835  1.00  0.00    -0.532 OA
HETATM   11  O   UNL     1     -45.171 -55.428  14.046  1.00  0.00    -0.532 OA
ENDBRANCH   7   9
ENDBRANCH   1   2
BRANCH   1  12
HETATM   12  C   UNL     1     -41.619 -49.676  13.713  1.00  0.00     0.236 C 
HETATM   13  O   UNL     1     -42.196 -49.792  14.798  1.00  0.00    -0.272 OA
HETATM   14  N   UNL     1     -40.737 -48.642  13.559  1.00  0.00    -0.354 N 
HETATM   15  H   UNL     1     -40.709 -48.012  14.348  1.00  0.00     0.162 HD
BRANCH  14  16
HETATM   16  C   UNL     1     -40.041 -48.239  12.356  1.00  0.00     0.092 C 
BRANCH  16  17
HETATM   17  C   UNL     1     -40.508 -46.868  11.939  1.00  0.00     0.009 A 
HETATM   18  C   UNL     1     -41.276 -46.712  10.641  1.00  0.00     0.007 A 
HETATM   19  C   UNL     1     -39.929 -46.068  10.797  1.00  0.00     0.007 A 
ENDBRANCH  16  17
BRANCH  16  20
HETATM   20  C   UNL     1     -38.558 -48.491  12.438  1.00  0.00     0.009 A 
HETATM   21  C   UNL     1     -37.974 -49.626  11.616  1.00  0.00     0.007 A 
HETATM   22  C   UNL     1     -37.907 -49.676  13.114  1.00  0.00     0.007 A 
ENDBRANCH  16  20
ENDBRANCH  14  16
ENDBRANCH   1  12
TORSDOF 6
ENDMDL
MODEL 5
REMARK VINA RESULT:      -5.0      2.315      3.136
REMARK  6 active torsions:
REMARK  status: ('A' for Active; 'I' for Inactive)
REMARK    1  A    between atoms: N_2  and  C_4 
REMARK    2  A    between atoms: N_9  and  C_10 
REMARK    3  A    between atoms: C_10  and  C_11 
REMARK       I    between atoms: C_11  and  N_13 
REMARK    4  A    between atoms: N_13  and  C_14 
REMARK    5  A    between atoms: C_14  and  C_15 
REMARK    6  A    between atoms: C_14  and  C_18 
ROOT
HETATM    1  C   UNL     1     -41.303 -51.747  13.486  1.00  0.00     0.234 C 
ENDROOT
BRANCH   1   2
HETATM    2  N   UNL     1     -40.129 -50.906  13.211  1.00  0.00    -0.314 N 
HETATM    3  C   UNL     1     -38.848 -51.465  13.311  1.00  0.00     0.247 C 
HETATM    4  C   UNL     1     -37.747 -50.658  12.719  1.00  0.00     0.077 C 
HETATM    5  O   UNL     1     -38.595 -52.578  13.760  1.00  0.00    -0.268 OA
HETATM    6  C   UNL     1     -37.955 -49.373  12.400  1.00  0.00     0.043 C 
HETATM    7  C   UNL     1     -39.261 -48.775  12.600  1.00  0.00     0.118 C 
HETATM    8  C   UNL     1     -40.308 -49.553  12.929  1.00  0.00     0.130 C 
BRANCH   7   9
HETATM    9  N   UNL     1     -39.472 -47.341  12.432  1.00  0.00    -0.114 N 
HETATM   10  O   UNL     1     -39.200 -46.613  13.396  1.00  0.00    -0.532 OA
HETATM   11  O   UNL     1     -39.932 -46.935  11.353  1.00  0.00    -0.532 OA
ENDBRANCH   7   9
ENDBRANCH   1   2
BRANCH   1  12
HETATM   12  C   UNL     1     -41.827 -52.563  12.286  1.00  0.00     0.236 C 
HETATM   13  O   UNL     1     -41.197 -52.596  11.226  1.00  0.00    -0.272 OA
HETATM   14  N   UNL     1     -43.032 -53.210  12.343  1.00  0.00    -0.354 N 
HETATM   15  H   UNL     1     -43.327 -53.593  11.456  1.00  0.00     0.162 HD
BRANCH  14  16
HETATM   16  C   UNL     1     -43.991 -53.210  13.425  1.00  0.00     0.092 C 
BRANCH  16  17
HETATM   17  C   UNL     1     -45.334 -52.761  12.908  1.00  0.00     0.009 A 
HETATM   18  C   UNL     1     -45.826 -51.367  13.245  1.00  0.00     0.007 A 
HETATM   19  C   UNL     1     -46.566 -52.568  13.758  1.00  0.00     0.007 A 
ENDBRANCH  16  17
BRANCH  16  20
HETATM   20  C   UNL     1     -43.931 -54.471  14.247  1.00  0.00     0.009 A 
HETATM   21  C   UNL     1     -43.789 -54.343  15.754  1.00  0.00     0.007 A 
HETATM   22  C   UNL     1     -42.702 -54.999  14.953  1.00  0.00     0.007 A 
ENDBRANCH  16  20
ENDBRANCH  14  16
ENDBRANCH   1  12
TORSDOF 6
ENDMDL
MODEL 6
REMARK VINA RESULT:      -5.0      2.660      5.850
REMARK  6 active torsions:
REMARK  status: ('A' for Active; 'I' for Inactive)
REMARK    1  A    between atoms: N_2  and  C_4 
REMARK    2  A    between atoms: N_9  and  C_10 
REMARK    3  A    between atoms: C_10  and  C_11 
REMARK       I    between atoms: C_11  and  N_13 
REMARK    4  A    between atoms: N_13  and  C_14 
REMARK    5  A    between atoms: C_14  and  C_15 
REMARK    6  A    between atoms: C_14  and  C_18 
ROOT
HETATM    1  C   UNL     1     -41.560 -51.175  12.041  1.00  0.00     0.234 C 
ENDROOT
BRANCH   1   2
HETATM    2  N   UNL     1     -41.865 -52.429  12.746  1.00  0.00    -0.314 N 
HETATM    3  C   UNL     1     -40.814 -53.191  13.272  1.00  0.00     0.247 C 
HETATM    4  C   UNL     1     -41.212 -54.260  14.230  1.00  0.00     0.077 C 
HETATM    5  O   UNL     1     -39.621 -52.987  13.072  1.00  0.00    -0.268 OA
HETATM    6  C   UNL     1     -42.497 -54.632  14.321  1.00  0.00     0.043 C 
HETATM    7  C   UNL     1     -43.505 -53.975  13.513  1.00  0.00     0.118 C 
HETATM    8  C   UNL     1     -43.184 -52.873  12.812  1.00  0.00     0.130 C 
BRANCH   7   9
HETATM    9  N   UNL     1     -44.875 -54.474  13.457  1.00  0.00    -0.114 N 
HETATM   10  O   UNL     1     -45.684 -53.830  12.774  1.00  0.00    -0.532 OA
HETATM   11  O   UNL     1     -45.159 -55.491  14.109  1.00  0.00    -0.532 OA
ENDBRANCH   7   9
ENDBRANCH   1   2
BRANCH   1  12
HETATM   12  C   UNL     1     -42.069 -49.891  12.727  1.00  0.00     0.236 C 
HETATM   13  O   UNL     1     -43.120 -49.358  12.361  1.00  0.00    -0.272 OA
HETATM   14  N   UNL     1     -41.338 -49.274  13.705  1.00  0.00    -0.354 N 
HETATM   15  H   UNL     1     -41.706 -48.374  13.978  1.00  0.00     0.162 HD
BRANCH  14  16
HETATM   16  C   UNL     1     -40.033 -49.643  14.206  1.00  0.00     0.092 C 
BRANCH  16  17
HETATM   17  C   UNL     1     -39.006 -48.654  13.714  1.00  0.00     0.009 A 
HETATM   18  C   UNL     1     -37.854 -49.148  12.861  1.00  0.00     0.007 A 
HETATM   19  C   UNL     1     -37.586 -48.562  14.216  1.00  0.00     0.007 A 
ENDBRANCH  16  17
BRANCH  16  20
HETATM   20  C   UNL     1     -40.053 -49.976  15.675  1.00  0.00     0.009 A 
HETATM   21  C   UNL     1     -39.422 -51.282  16.126  1.00  0.00     0.007 A 
HETATM   22  C   UNL     1     -40.894 -51.056  16.316  1.00  0.00     0.007 A 
ENDBRANCH  16  20
ENDBRANCH  14  16
ENDBRANCH   1  12
TORSDOF 6
ENDMDL
MODEL 7
REMARK VINA RESULT:      -5.0      1.774      3.366
REMARK  6 active torsions:
REMARK  status: ('A' for Active; 'I' for Inactive)
REMARK    1  A    between atoms: N_2  and  C_4 
REMARK    2  A    between atoms: N_9  and  C_10 
REMARK    3  A    between atoms: C_10  and  C_11 
REMARK       I    between atoms: C_11  and  N_13 
REMARK    4  A    between atoms: N_13  and  C_14 
REMARK    5  A    between atoms: C_14  and  C_15 
REMARK    6  A    between atoms: C_14  and  C_18 
ROOT
HETATM    1  C   UNL     1     -42.637 -50.109  12.680  1.00  0.00     0.234 C 
ENDROOT
BRANCH   1   2
HETATM    2  N   UNL     1     -41.208 -49.857  12.443  1.00  0.00    -0.314 N 
HETATM    3  C   UNL     1     -40.819 -48.677  11.796  1.00  0.00     0.247 C 
HETATM    4  C   UNL     1     -39.369 -48.349  11.877  1.00  0.00     0.077 C 
HETATM    5  O   UNL     1     -41.580 -47.878  11.262  1.00  0.00    -0.268 OA
HETATM    6  C   UNL     1     -38.493 -49.281  12.278  1.00  0.00     0.043 C 
HETATM    7  C   UNL     1     -38.957 -50.600  12.664  1.00  0.00     0.118 C 
HETATM    8  C   UNL     1     -40.275 -50.830  12.798  1.00  0.00     0.130 C 
BRANCH   7   9
HETATM    9  N   UNL     1     -38.020 -51.685  12.932  1.00  0.00    -0.114 N 
HETATM   10  O   UNL     1     -38.425 -52.623  13.631  1.00  0.00    -0.532 OA
HETATM   11  O   UNL     1     -36.870 -51.598  12.471  1.00  0.00    -0.532 OA
ENDBRANCH   7   9
ENDBRANCH   1   2
BRANCH   1  12
HETATM   12  C   UNL     1     -43.091 -50.010  14.151  1.00  0.00     0.236 C 
HETATM   13  O   UNL     1     -42.760 -49.047  14.847  1.00  0.00    -0.272 OA
HETATM   14  N   UNL     1     -43.807 -51.017  14.740  1.00  0.00    -0.354 N 
HETATM   15  H   UNL     1     -43.926 -50.900  15.736  1.00  0.00     0.162 HD
BRANCH  14  16
HETATM   16  C   UNL     1     -44.199 -52.284  14.163  1.00  0.00     0.092 C 
BRANCH  16  17
HETATM   17  C   UNL     1     -43.370 -53.390  14.766  1.00  0.00     0.009 A 
HETATM   18  C   UNL     1     -42.450 -54.196  13.870  1.00  0.00     0.007 A 
HETATM   19  C   UNL     1     -43.609 -54.865  14.550  1.00  0.00     0.007 A 
ENDBRANCH  16  17
BRANCH  16  20
HETATM   20  C   UNL     1     -45.694 -52.458  14.120  1.00  0.00     0.009 A 
HETATM   21  C   UNL     1     -46.457 -51.854  12.954  1.00  0.00     0.007 A 
HETATM   22  C   UNL     1     -46.711 -51.363  14.349  1.00  0.00     0.007 A 
ENDBRANCH  16  20
ENDBRANCH  14  16
ENDBRANCH   1  12
TORSDOF 6
ENDMDL
MODEL 8
REMARK VINA RESULT:      -4.9      3.697      5.503
REMARK  6 active torsions:
REMARK  status: ('A' for Active; 'I' for Inactive)
REMARK    1  A    between atoms: N_2  and  C_4 
REMARK    2  A    between atoms: N_9  and  C_10 
REMARK    3  A    between atoms: C_10  and  C_11 
REMARK       I    between atoms: C_11  and  N_13 
REMARK    4  A    between atoms: N_13  and  C_14 
REMARK    5  A    between atoms: C_14  and  C_15 
REMARK    6  A    between atoms: C_14  and  C_18 
ROOT
HETATM    1  C   UNL     1     -41.004 -49.735  11.531  1.00  0.00     0.234 C 
ENDROOT
BRANCH   1   2
HETATM    2  N   UNL     1     -39.808 -49.836  12.380  1.00  0.00    -0.314 N 
HETATM    3  C   UNL     1     -39.306 -51.101  12.710  1.00  0.00     0.247 C 
HETATM    4  C   UNL     1     -37.937 -51.118  13.295  1.00  0.00     0.077 C 
HETATM    5  O   UNL     1     -39.866 -52.168  12.476  1.00  0.00    -0.268 OA
HETATM    6  C   UNL     1     -37.385 -49.980  13.738  1.00  0.00     0.043 C 
HETATM    7  C   UNL     1     -38.104 -48.726  13.619  1.00  0.00     0.118 C 
HETATM    8  C   UNL     1     -39.241 -48.674  12.902  1.00  0.00     0.130 C 
BRANCH   7   9
HETATM    9  N   UNL     1     -37.610 -47.507  14.249  1.00  0.00    -0.114 N 
HETATM   10  O   UNL     1     -38.442 -46.625  14.504  1.00  0.00    -0.532 OA
HETATM   11  O   UNL     1     -36.392 -47.408  14.470  1.00  0.00    -0.532 OA
ENDBRANCH   7   9
ENDBRANCH   1   2
BRANCH   1  12
HETATM   12  C   UNL     1     -42.284 -49.257  12.247  1.00  0.00     0.236 C 
HETATM   13  O   UNL     1     -42.742 -49.888  13.203  1.00  0.00    -0.272 OA
HETATM   14  N   UNL     1     -42.980 -48.167  11.798  1.00  0.00    -0.354 N 
HETATM   15  H   UNL     1     -43.868 -48.036  12.261  1.00  0.00     0.162 HD
BRANCH  14  16
HETATM   16  C   UNL     1     -42.706 -47.355  10.634  1.00  0.00     0.092 C 
BRANCH  16  17
HETATM   17  C   UNL     1     -43.877 -47.418   9.687  1.00  0.00     0.009 A 
HETATM   18  C   UNL     1     -43.618 -47.444   8.193  1.00  0.00     0.007 A 
HETATM   19  C   UNL     1     -44.341 -46.282   8.809  1.00  0.00     0.007 A 
ENDBRANCH  16  17
BRANCH  16  20
HETATM   20  C   UNL     1     -42.157 -45.999  10.996  1.00  0.00     0.009 A 
HETATM   21  C   UNL     1     -40.709 -45.693  10.651  1.00  0.00     0.007 A 
HETATM   22  C   UNL     1     -41.146 -45.726  12.087  1.00  0.00     0.007 A 
ENDBRANCH  16  20
ENDBRANCH  14  16
ENDBRANCH   1  12
TORSDOF 6
ENDMDL
MODEL 9
REMARK VINA RESULT:      -4.9      1.763      2.379
REMARK  6 active torsions:
REMARK  status: ('A' for Active; 'I' for Inactive)
REMARK    1  A    between atoms: N_2  and  C_4 
REMARK    2  A    between atoms: N_9  and  C_10 
REMARK    3  A    between atoms: C_10  and  C_11 
REMARK       I    between atoms: C_11  and  N_13 
REMARK    4  A    between atoms: N_13  and  C_14 
REMARK    5  A    between atoms: C_14  and  C_15 
REMARK    6  A    between atoms: C_14  and  C_18 
ROOT
HETATM    1  C   UNL     1     -41.941 -50.871  13.907  1.00  0.00     0.234 C 
ENDROOT
BRANCH   1   2
HETATM    2  N   UNL     1     -40.548 -50.498  13.623  1.00  0.00    -0.314 N 
HETATM    3  C   UNL     1     -39.781 -51.310  12.777  1.00  0.00     0.247 C 
HETATM    4  C   UNL     1     -38.508 -50.709  12.291  1.00  0.00     0.077 C 
HETATM    5  O   UNL     1     -40.118 -52.411  12.354  1.00  0.00    -0.268 OA
HETATM    6  C   UNL     1     -38.022 -49.605  12.877  1.00  0.00     0.043 C 
HETATM    7  C   UNL     1     -38.749 -48.976  13.962  1.00  0.00     0.118 C 
HETATM    8  C   UNL     1     -39.995 -49.387  14.258  1.00  0.00     0.130 C 
BRANCH   7   9
HETATM    9  N   UNL     1     -38.163 -47.886  14.735  1.00  0.00    -0.114 N 
HETATM   10  O   UNL     1     -38.911 -47.280  15.514  1.00  0.00    -0.532 OA
HETATM   11  O   UNL     1     -36.966 -47.611  14.553  1.00  0.00    -0.532 OA
ENDBRANCH   7   9
ENDBRANCH   1   2
BRANCH   1  12
HETATM   12  C   UNL     1     -42.991 -50.296  12.935  1.00  0.00     0.236 C 
HETATM   13  O   UNL     1     -42.714 -49.341  12.204  1.00  0.00    -0.272 OA
HETATM   14  N   UNL     1     -44.271 -50.779  12.908  1.00  0.00    -0.354 N 
HETATM   15  H   UNL     1     -44.898 -50.235  12.333  1.00  0.00     0.162 HD
BRANCH  14  16
HETATM   16  C   UNL     1     -44.854 -51.799  13.752  1.00  0.00     0.092 C 
BRANCH  16  17
HETATM   17  C   UNL     1     -46.099 -51.260  14.408  1.00  0.00     0.009 A 
HETATM   18  C   UNL     1     -46.128 -51.099  15.916  1.00  0.00     0.007 A 
HETATM   19  C   UNL     1     -47.054 -52.073  15.248  1.00  0.00     0.007 A 
ENDBRANCH  16  17
BRANCH  16  20
HETATM   20  C   UNL     1     -44.935 -53.137  13.063  1.00  0.00     0.009 A 
HETATM   21  C   UNL     1     -44.336 -54.345  13.764  1.00  0.00     0.007 A 
HETATM   22  C   UNL     1     -43.768 -53.881  12.454  1.00  0.00     0.007 A 
ENDBRANCH  16  20
ENDBRANCH  14  16
ENDBRANCH   1  12
TORSDOF 6
ENDMDL
