MODEL 1
REMARK VINA RESULT:      -5.4      0.000      0.000
REMARK  2 active torsions:
REMARK  status: ('A' for Active; 'I' for Inactive)
REMARK    1  A    between atoms: C_2  and  C_3 
REMARK    2  A    between atoms: C_6  and  C_10 
ROOT
HETATM    1  C   UNL     1     -44.726 -47.429   8.866  1.00  0.00     0.096 A 
HETATM    2  N   UNL     1     -44.370 -46.905  10.020  1.00  0.00    -0.331 N 
ATOM      3  HN  UNL     1     -44.884 -46.911  10.901  1.00  0.00     0.168 HD
HETATM    4  C   UNL     1     -43.136 -46.345   9.758  1.00  0.00     0.128 A 
HETATM    5  N   UNL     1     -42.719 -46.520   8.493  1.00  0.00    -0.285 N 
ATOM      6  HN  UNL     1     -41.847 -46.219   8.057  1.00  0.00     0.188 HD
HETATM    7  N   UNL     1     -43.743 -47.190   7.951  1.00  0.00    -0.287 N 
HETATM    8  H   UNL     1     -43.691 -47.474   6.979  1.00  0.00     0.188 HD
ENDROOT
BRANCH   4   9
HETATM    9  C   UNL     1     -42.296 -45.736  10.858  1.00  0.00     0.218 C 
HETATM   10  C   UNL     1     -40.846 -45.387  10.428  1.00  0.00     0.309 C 
HETATM   11  N   UNL     1     -39.862 -46.488  10.519  1.00  0.00     0.088 N 
HETATM   12  C   UNL     1     -39.991 -47.150  11.825  1.00  0.00     0.295 C 
HETATM   13  H   UNL     1     -38.922 -46.106  10.422  1.00  0.00     0.316 HD
HETATM   14  C   UNL     1     -41.434 -47.584  12.092  1.00  0.00     0.198 C 
HETATM   15  O   UNL     1     -42.313 -46.453  12.120  1.00  0.00    -0.375 OA
ENDBRANCH   4   9
BRANCH   1  16
HETATM   16  C   UNL     1     -45.961 -48.191   8.549  1.00  0.00     0.073 C 
HETATM   17  C   UNL     1     -47.192 -47.527   9.144  1.00  0.00     0.013 C 
ENDBRANCH   1  16
TORSDOF 2
ENDMDL
MODEL 2
REMARK VINA RESULT:      -5.4      1.601      2.285
REMARK  2 active torsions:
REMARK  status: ('A' for Active; 'I' for Inactive)
REMARK    1  A    between atoms: C_2  and  C_3 
REMARK    2  A    between atoms: C_6  and  C_10 
ROOT
HETATM    1  C   UNL     1     -44.967 -47.431   9.185  1.00  0.00     0.096 A 
HETATM    2  N   UNL     1     -44.320 -46.975  10.237  1.00  0.00    -0.331 N 
ATOM      3  HN  UNL     1     -44.632 -46.951  11.208  1.00  0.00     0.168 HD
HETATM    4  C   UNL     1     -43.119 -46.537   9.718  1.00  0.00     0.128 A 
HETATM    5  N   UNL     1     -43.003 -46.721   8.392  1.00  0.00    -0.285 N 
ATOM      6  HN  UNL     1     -42.217 -46.500   7.779  1.00  0.00     0.188 HD
HETATM    7  N   UNL     1     -44.183 -47.270   8.081  1.00  0.00    -0.287 N 
HETATM    8  H   UNL     1     -44.370 -47.532   7.120  1.00  0.00     0.188 HD
ENDROOT
BRANCH   4   9
HETATM    9  C   UNL     1     -42.004 -46.045  10.613  1.00  0.00     0.218 C 
HETATM   10  C   UNL     1     -42.205 -46.374  12.116  1.00  0.00     0.309 C 
HETATM   11  N   UNL     1     -43.020 -45.407  12.885  1.00  0.00     0.088 N 
HETATM   12  C   UNL     1     -42.559 -44.043  12.595  1.00  0.00     0.295 C 
HETATM   13  H   UNL     1     -42.914 -45.598  13.881  1.00  0.00     0.316 HD
HETATM   14  C   UNL     1     -42.532 -43.770  11.088  1.00  0.00     0.198 C 
HETATM   15  O   UNL     1     -41.624 -44.657  10.424  1.00  0.00    -0.375 OA
ENDBRANCH   4   9
BRANCH   1  16
HETATM   16  C   UNL     1     -46.314 -48.055   9.139  1.00  0.00     0.073 C 
HETATM   17  C   UNL     1     -46.489 -48.910   7.894  1.00  0.00     0.013 C 
ENDBRANCH   1  16
TORSDOF 2
ENDMDL
MODEL 3
REMARK VINA RESULT:      -5.3      2.576      3.081
REMARK  2 active torsions:
REMARK  status: ('A' for Active; 'I' for Inactive)
REMARK    1  A    between atoms: C_2  and  C_3 
REMARK    2  A    between atoms: C_6  and  C_10 
ROOT
HETATM    1  C   UNL     1     -43.957 -47.573   9.656  1.00  0.00     0.096 A 
HETATM    2  N   UNL     1     -43.574 -47.875  10.879  1.00  0.00    -0.331 N 
ATOM      3  HN  UNL     1     -44.108 -47.797  11.745  1.00  0.00     0.168 HD
HETATM    4  C   UNL     1     -42.278 -48.321  10.715  1.00  0.00     0.128 A 
HETATM    5  N   UNL     1     -41.862 -48.318   9.438  1.00  0.00    -0.285 N 
ATOM      6  HN  UNL     1     -40.962 -48.611   9.055  1.00  0.00     0.188 HD
HETATM    7  N   UNL     1     -42.930 -47.830   8.797  1.00  0.00    -0.287 N 
HETATM    8  H   UNL     1     -42.900 -47.728   7.788  1.00  0.00     0.188 HD
ENDROOT
BRANCH   4   9
HETATM    9  C   UNL     1     -41.489 -48.897  11.869  1.00  0.00     0.218 C 
HETATM   10  C   UNL     1     -40.412 -49.932  11.447  1.00  0.00     0.309 C 
HETATM   11  N   UNL     1     -40.881 -51.326  11.293  1.00  0.00     0.088 N 
HETATM   12  C   UNL     1     -41.690 -51.700  12.462  1.00  0.00     0.295 C 
HETATM   13  H   UNL     1     -40.074 -51.946  11.226  1.00  0.00     0.316 HD
HETATM   14  C   UNL     1     -42.815 -50.691  12.709  1.00  0.00     0.198 C 
HETATM   15  O   UNL     1     -42.284 -49.388  12.980  1.00  0.00    -0.375 OA
ENDBRANCH   4   9
BRANCH   1  16
HETATM   16  C   UNL     1     -45.279 -47.065   9.211  1.00  0.00     0.073 C 
HETATM   17  C   UNL     1     -46.198 -48.199   8.788  1.00  0.00     0.013 C 
ENDBRANCH   1  16
TORSDOF 2
ENDMDL
MODEL 4
REMARK VINA RESULT:      -5.3      1.544      1.976
REMARK  2 active torsions:
REMARK  status: ('A' for Active; 'I' for Inactive)
REMARK    1  A    between atoms: C_2  and  C_3 
REMARK    2  A    between atoms: C_6  and  C_10 
ROOT
HETATM    1  C   UNL     1     -44.625 -47.331   9.450  1.00  0.00     0.096 A 
HETATM    2  N   UNL     1     -43.977 -46.807  10.470  1.00  0.00    -0.331 N 
ATOM      3  HN  UNL     1     -44.342 -46.201  11.204  1.00  0.00     0.168 HD
HETATM    4  C   UNL     1     -42.688 -47.274  10.312  1.00  0.00     0.128 A 
HETATM    5  N   UNL     1     -42.527 -48.073   9.244  1.00  0.00    -0.285 N 
ATOM      6  HN  UNL     1     -41.686 -48.551   8.921  1.00  0.00     0.188 HD
HETATM    7  N   UNL     1     -43.755 -48.079   8.712  1.00  0.00    -0.287 N 
HETATM    8  H   UNL     1     -43.933 -48.629   7.879  1.00  0.00     0.188 HD
ENDROOT
BRANCH   4   9
HETATM    9  C   UNL     1     -41.621 -47.013  11.352  1.00  0.00     0.218 C 
HETATM   10  C   UNL     1     -42.042 -46.004  12.453  1.00  0.00     0.309 C 
HETATM   11  N   UNL     1     -41.838 -44.575  12.131  1.00  0.00     0.088 N 
HETATM   12  C   UNL     1     -40.486 -44.386  11.587  1.00  0.00     0.295 C 
HETATM   13  H   UNL     1     -41.943 -44.021  12.981  1.00  0.00     0.316 HD
HETATM   14  C   UNL     1     -40.220 -45.330  10.412  1.00  0.00     0.198 C 
HETATM   15  O   UNL     1     -40.305 -46.699  10.825  1.00  0.00    -0.375 OA
ENDBRANCH   4   9
BRANCH   1  16
HETATM   16  C   UNL     1     -46.065 -47.195   9.114  1.00  0.00     0.073 C 
HETATM   17  C   UNL     1     -46.673 -48.533   8.724  1.00  0.00     0.013 C 
ENDBRANCH   1  16
TORSDOF 2
ENDMDL
MODEL 5
REMARK VINA RESULT:      -5.0      2.502      5.416
REMARK  2 active torsions:
REMARK  status: ('A' for Active; 'I' for Inactive)
REMARK    1  A    between atoms: C_2  and  C_3 
REMARK    2  A    between atoms: C_6  and  C_10 
ROOT
HETATM    1  C   UNL     1     -39.103 -49.399  11.906  1.00  0.00     0.096 A 
HETATM    2  N   UNL     1     -40.180 -48.723  12.246  1.00  0.00    -0.331 N 
ATOM      3  HN  UNL     1     -40.329 -48.151  13.078  1.00  0.00     0.168 HD
HETATM    4  C   UNL     1     -41.061 -48.970  11.214  1.00  0.00     0.128 A 
HETATM    5  N   UNL     1     -40.559 -49.759  10.249  1.00  0.00    -0.285 N 
ATOM      6  HN  UNL     1     -40.998 -50.073   9.383  1.00  0.00     0.188 HD
HETATM    7  N   UNL     1     -39.334 -50.025  10.716  1.00  0.00    -0.287 N 
HETATM    8  H   UNL     1     -38.709 -50.606  10.168  1.00  0.00     0.188 HD
ENDROOT
BRANCH   4   9
HETATM    9  C   UNL     1     -42.402 -48.274  11.136  1.00  0.00     0.218 C 
HETATM   10  C   UNL     1     -42.767 -47.757   9.719  1.00  0.00     0.309 C 
HETATM   11  N   UNL     1     -42.243 -46.419   9.365  1.00  0.00     0.088 N 
HETATM   12  C   UNL     1     -42.512 -45.484  10.466  1.00  0.00     0.295 C 
HETATM   13  H   UNL     1     -42.706 -46.091   8.519  1.00  0.00     0.316 HD
HETATM   14  C   UNL     1     -41.986 -46.024  11.799  1.00  0.00     0.198 C 
HETATM   15  O   UNL     1     -42.631 -47.255  12.144  1.00  0.00    -0.375 OA
ENDBRANCH   4   9
BRANCH   1  16
HETATM   16  C   UNL     1     -37.810 -49.486  12.631  1.00  0.00     0.073 C 
HETATM   17  C   UNL     1     -37.374 -50.930  12.819  1.00  0.00     0.013 C 
ENDBRANCH   1  16
TORSDOF 2
ENDMDL
MODEL 6
REMARK VINA RESULT:      -4.9      5.582      6.340
REMARK  2 active torsions:
REMARK  status: ('A' for Active; 'I' for Inactive)
REMARK    1  A    between atoms: C_2  and  C_3 
REMARK    2  A    between atoms: C_6  and  C_10 
ROOT
HETATM    1  C   UNL     1     -43.306 -53.557  13.513  1.00  0.00     0.096 A 
HETATM    2  N   UNL     1     -42.859 -52.409  13.980  1.00  0.00    -0.331 N 
ATOM      3  HN  UNL     1     -42.855 -52.080  14.945  1.00  0.00     0.168 HD
HETATM    4  C   UNL     1     -42.397 -51.758  12.855  1.00  0.00     0.128 A 
HETATM    5  N   UNL     1     -42.531 -52.469  11.723  1.00  0.00    -0.285 N 
ATOM      6  HN  UNL     1     -42.256 -52.220  10.772  1.00  0.00     0.188 HD
HETATM    7  N   UNL     1     -43.118 -53.587  12.163  1.00  0.00    -0.287 N 
HETATM    8  H   UNL     1     -43.331 -54.328  11.505  1.00  0.00     0.188 HD
ENDROOT
BRANCH   4   9
HETATM    9  C   UNL     1     -41.673 -50.434  12.951  1.00  0.00     0.218 C 
HETATM   10  C   UNL     1     -41.542 -49.682  11.600  1.00  0.00     0.309 C 
HETATM   11  N   UNL     1     -40.384 -50.062  10.760  1.00  0.00     0.088 N 
HETATM   12  C   UNL     1     -39.170 -50.087  11.587  1.00  0.00     0.295 C 
HETATM   13  H   UNL     1     -40.273 -49.376  10.013  1.00  0.00     0.316 HD
HETATM   14  C   UNL     1     -39.354 -50.970  12.824  1.00  0.00     0.198 C 
HETATM   15  O   UNL     1     -40.406 -50.470  13.658  1.00  0.00    -0.375 OA
ENDBRANCH   4   9
BRANCH   1  16
HETATM   16  C   UNL     1     -43.899 -54.685  14.275  1.00  0.00     0.073 C 
HETATM   17  C   UNL     1     -45.279 -55.047  13.750  1.00  0.00     0.013 C 
ENDBRANCH   1  16
TORSDOF 2
ENDMDL
MODEL 7
REMARK VINA RESULT:      -4.8      7.257      8.748
REMARK  2 active torsions:
REMARK  status: ('A' for Active; 'I' for Inactive)
REMARK    1  A    between atoms: C_2  and  C_3 
REMARK    2  A    between atoms: C_6  and  C_10 
ROOT
HETATM    1  C   UNL     1     -40.974 -53.689  13.061  1.00  0.00     0.096 A 
HETATM    2  N   UNL     1     -42.190 -53.746  13.562  1.00  0.00    -0.331 N 
ATOM      3  HN  UNL     1     -42.486 -54.138  14.456  1.00  0.00     0.168 HD
HETATM    4  C   UNL     1     -42.971 -53.151  12.592  1.00  0.00     0.128 A 
HETATM    5  N   UNL     1     -42.276 -52.719  11.526  1.00  0.00    -0.285 N 
ATOM      6  HN  UNL     1     -42.613 -52.238  10.691  1.00  0.00     0.188 HD
HETATM    7  N   UNL     1     -41.027 -53.083  11.840  1.00  0.00    -0.287 N 
HETATM    8  H   UNL     1     -40.271 -52.865  11.201  1.00  0.00     0.188 HD
ENDROOT
BRANCH   4   9
HETATM    9  C   UNL     1     -44.443 -52.888  12.815  1.00  0.00     0.218 C 
HETATM   10  C   UNL     1     -44.769 -52.213  14.173  1.00  0.00     0.309 C 
HETATM   11  N   UNL     1     -44.930 -53.126  15.326  1.00  0.00     0.088 N 
HETATM   12  C   UNL     1     -45.814 -54.237  14.947  1.00  0.00     0.295 C 
HETATM   13  H   UNL     1     -45.343 -52.613  16.105  1.00  0.00     0.316 HD
HETATM   14  C   UNL     1     -45.326 -54.929  13.671  1.00  0.00     0.198 C 
HETATM   15  O   UNL     1     -45.319 -54.019  12.566  1.00  0.00    -0.375 OA
ENDBRANCH   4   9
BRANCH   1  16
HETATM   16  C   UNL     1     -39.707 -54.157  13.679  1.00  0.00     0.073 C 
HETATM   17  C   UNL     1     -39.933 -54.665  15.094  1.00  0.00     0.013 C 
ENDBRANCH   1  16
TORSDOF 2
ENDMDL
MODEL 8
REMARK VINA RESULT:      -4.8      2.362      5.420
REMARK  2 active torsions:
REMARK  status: ('A' for Active; 'I' for Inactive)
REMARK    1  A    between atoms: C_2  and  C_3 
REMARK    2  A    between atoms: C_6  and  C_10 
ROOT
HETATM    1  C   UNL     1     -39.350 -49.157  11.524  1.00  0.00     0.096 A 
HETATM    2  N   UNL     1     -40.035 -48.091  11.882  1.00  0.00    -0.331 N 
ATOM      3  HN  UNL     1     -39.788 -47.386  12.576  1.00  0.00     0.168 HD
HETATM    4  C   UNL     1     -41.167 -48.152  11.094  1.00  0.00     0.128 A 
HETATM    5  N   UNL     1     -41.192 -49.205  10.260  1.00  0.00    -0.285 N 
ATOM      6  HN  UNL     1     -41.901 -49.464   9.574  1.00  0.00     0.188 HD
HETATM    7  N   UNL     1     -40.046 -49.827  10.562  1.00  0.00    -0.287 N 
HETATM    8  H   UNL     1     -39.793 -50.671  10.061  1.00  0.00     0.188 HD
ENDROOT
BRANCH   4   9
HETATM    9  C   UNL     1     -42.186 -47.035  11.090  1.00  0.00     0.218 C 
HETATM   10  C   UNL     1     -43.624 -47.487  11.458  1.00  0.00     0.309 C 
HETATM   11  N   UNL     1     -44.443 -48.009  10.342  1.00  0.00     0.088 N 
HETATM   12  C   UNL     1     -44.344 -47.095   9.196  1.00  0.00     0.295 C 
HETATM   13  H   UNL     1     -45.415 -48.076  10.641  1.00  0.00     0.316 HD
HETATM   14  C   UNL     1     -42.884 -46.824   8.821  1.00  0.00     0.198 C 
HETATM   15  O   UNL     1     -42.185 -46.198   9.904  1.00  0.00    -0.375 OA
ENDBRANCH   4   9
BRANCH   1  16
HETATM   16  C   UNL     1     -38.022 -49.600  12.021  1.00  0.00     0.073 C 
HETATM   17  C   UNL     1     -37.151 -50.123  10.891  1.00  0.00     0.013 C 
ENDBRANCH   1  16
TORSDOF 2
ENDMDL
MODEL 9
REMARK VINA RESULT:      -4.7      7.052      8.688
REMARK  2 active torsions:
REMARK  status: ('A' for Active; 'I' for Inactive)
REMARK    1  A    between atoms: C_2  and  C_3 
REMARK    2  A    between atoms: C_6  and  C_10 
ROOT
HETATM    1  C   UNL     1     -41.494 -52.500  12.602  1.00  0.00     0.096 A 
HETATM    2  N   UNL     1     -41.858 -53.261  13.612  1.00  0.00    -0.331 N 
ATOM      3  HN  UNL     1     -41.344 -53.457  14.471  1.00  0.00     0.168 HD
HETATM    4  C   UNL     1     -43.100 -53.730  13.236  1.00  0.00     0.128 A 
HETATM    5  N   UNL     1     -43.514 -53.274  12.042  1.00  0.00    -0.285 N 
ATOM      6  HN  UNL     1     -44.390 -53.458  11.553  1.00  0.00     0.188 HD
HETATM    7  N   UNL     1     -42.479 -52.516  11.660  1.00  0.00    -0.287 N 
HETATM    8  H   UNL     1     -42.526 -52.023  10.774  1.00  0.00     0.188 HD
ENDROOT
BRANCH   4   9
HETATM    9  C   UNL     1     -43.950 -54.555  14.176  1.00  0.00     0.218 C 
HETATM   10  C   UNL     1     -45.348 -54.923  13.611  1.00  0.00     0.309 C 
HETATM   11  N   UNL     1     -46.410 -53.912  13.808  1.00  0.00     0.088 N 
HETATM   12  C   UNL     1     -46.396 -53.456  15.205  1.00  0.00     0.295 C 
HETATM   13  H   UNL     1     -47.315 -54.331  13.596  1.00  0.00     0.316 HD
HETATM   14  C   UNL     1     -45.002 -52.981  15.624  1.00  0.00     0.198 C 
HETATM   15  O   UNL     1     -44.048 -54.046  15.532  1.00  0.00    -0.375 OA
ENDBRANCH   4   9
BRANCH   1  16
HETATM   16  C   UNL     1     -40.247 -51.705  12.458  1.00  0.00     0.073 C 
HETATM   17  C   UNL     1     -39.316 -51.911  13.642  1.00  0.00     0.013 C 
ENDBRANCH   1  16
TORSDOF 2
ENDMDL
