MODEL 1
REMARK VINA RESULT:      -7.3      0.000      0.000
REMARK  4 active torsions:
REMARK  status: ('A' for Active; 'I' for Inactive)
REMARK    1  A    between atoms: C_2  and  C_5 
REMARK    2  A    between atoms: C_10  and  N_11 
REMARK       I    between atoms: N_11  and  C_12 
REMARK       I    between atoms: C_12  and  N_14 
REMARK    3  A    between atoms: N_14  and  C_15 
REMARK    4  A    between atoms: C_15  and  C_16 
ROOT
HETATM    1  N   UNL     1     -42.936 -48.748  12.986  1.00  0.00    -0.304 N 
HETATM    2  C   UNL     1     -43.262 -49.964  13.527  1.00  0.00     0.320 C 
HETATM    3  O   UNL     1     -43.326 -50.115  14.741  1.00  0.00    -0.247 OA
HETATM    4  N   UNL     1     -43.455 -50.976  12.629  1.00  0.00    -0.340 N 
HETATM    5  H   UNL     1     -42.512 -48.109  13.655  1.00  0.00     0.171 HD
HETATM    6  H   UNL     1     -42.962 -50.883  11.756  1.00  0.00     0.164 HD
ENDROOT
BRANCH   1   7
HETATM    7  C   UNL     1     -42.976 -48.312  11.679  1.00  0.00     0.105 C 
HETATM    8  C   UNL     1     -41.720 -48.472  10.861  1.00  0.00     0.272 C 
HETATM    9  N   UNL     1     -41.830 -48.148   9.528  1.00  0.00    -0.331 N 
HETATM   10  O   UNL     1     -40.679 -48.891  11.353  1.00  0.00    -0.266 OA
HETATM   11  C   UNL     1     -42.980 -47.689   8.934  1.00  0.00     0.107 C 
HETATM   12  H   UNL     1     -40.993 -48.298   8.974  1.00  0.00     0.168 HD
HETATM   13  C   UNL     1     -44.089 -47.471   9.661  1.00  0.00     0.065 C 
HETATM   14  C   UNL     1     -44.041 -47.743  11.087  1.00  0.00     0.052 C 
BRANCH  13  15
HETATM   15  C   UNL     1     -45.401 -47.054   9.056  1.00  0.00     0.418 C 
HETATM   16  F   UNL     1     -46.434 -47.105   9.937  1.00  0.00    -0.166 F 
HETATM   17  F   UNL     1     -45.744 -47.865   8.020  1.00  0.00    -0.166 F 
HETATM   18  F   UNL     1     -45.358 -45.790   8.571  1.00  0.00    -0.166 F 
ENDBRANCH  13  15
ENDBRANCH   1   7
BRANCH   4  19
HETATM   19  C   UNL     1     -43.841 -52.318  13.007  1.00  0.00     0.156 C 
BRANCH  19  20
HETATM   20  C   UNL     1     -45.268 -52.709  12.569  1.00  0.00     0.139 C 
HETATM   21  C   UNL     1     -46.337 -51.638  12.826  1.00  0.00     0.034 C 
HETATM   22  C   UNL     1     -46.701 -51.505  14.303  1.00  0.00     0.005 C 
HETATM   23  C   UNL     1     -46.983 -52.871  14.919  1.00  0.00     0.026 C 
HETATM   24  C   UNL     1     -45.876 -53.862  14.591  1.00  0.00     0.168 C 
HETATM   25  O   UNL     1     -45.665 -53.946  13.182  1.00  0.00    -0.384 OA
ENDBRANCH  19  20
ENDBRANCH   4  19
TORSDOF 4
ENDMDL
MODEL 2
REMARK VINA RESULT:      -6.8      2.422      2.892
REMARK  4 active torsions:
REMARK  status: ('A' for Active; 'I' for Inactive)
REMARK    1  A    between atoms: C_2  and  C_5 
REMARK    2  A    between atoms: C_10  and  N_11 
REMARK       I    between atoms: N_11  and  C_12 
REMARK       I    between atoms: C_12  and  N_14 
REMARK    3  A    between atoms: N_14  and  C_15 
REMARK    4  A    between atoms: C_15  and  C_16 
ROOT
HETATM    1  N   UNL     1     -42.970 -47.702  12.381  1.00  0.00    -0.304 N 
HETATM    2  C   UNL     1     -42.331 -48.738  13.010  1.00  0.00     0.320 C 
HETATM    3  O   UNL     1     -42.218 -48.760  14.230  1.00  0.00    -0.247 OA
HETATM    4  N   UNL     1     -41.801 -49.690  12.185  1.00  0.00    -0.340 N 
HETATM    5  H   UNL     1     -43.085 -46.881  12.971  1.00  0.00     0.171 HD
HETATM    6  H   UNL     1     -41.551 -49.376  11.261  1.00  0.00     0.164 HD
ENDROOT
BRANCH   1   7
HETATM    7  C   UNL     1     -43.361 -47.558  11.068  1.00  0.00     0.105 C 
HETATM    8  C   UNL     1     -42.299 -47.164  10.073  1.00  0.00     0.272 C 
HETATM    9  N   UNL     1     -42.689 -47.156   8.753  1.00  0.00    -0.331 N 
HETATM   10  O   UNL     1     -41.155 -46.899  10.422  1.00  0.00    -0.266 OA
HETATM   11  C   UNL     1     -43.956 -47.460   8.318  1.00  0.00     0.107 C 
HETATM   12  H   UNL     1     -41.959 -46.932   8.085  1.00  0.00     0.168 HD
HETATM   13  C   UNL     1     -44.934 -47.743   9.195  1.00  0.00     0.065 C 
HETATM   14  C   UNL     1     -44.615 -47.726  10.611  1.00  0.00     0.052 C 
BRANCH  13  15
HETATM   15  C   UNL     1     -46.315 -48.169   8.778  1.00  0.00     0.418 C 
HETATM   16  F   UNL     1     -46.830 -49.150   9.564  1.00  0.00    -0.166 F 
HETATM   17  F   UNL     1     -46.316 -48.657   7.509  1.00  0.00    -0.166 F 
HETATM   18  F   UNL     1     -47.195 -47.139   8.805  1.00  0.00    -0.166 F 
ENDBRANCH  13  15
ENDBRANCH   1   7
BRANCH   4  19
HETATM   19  C   UNL     1     -41.123 -50.875  12.663  1.00  0.00     0.156 C 
BRANCH  19  20
HETATM   20  C   UNL     1     -41.563 -52.178  11.962  1.00  0.00     0.139 C 
HETATM   21  C   UNL     1     -42.925 -52.722  12.410  1.00  0.00     0.034 C 
HETATM   22  C   UNL     1     -42.885 -53.348  13.803  1.00  0.00     0.005 C 
HETATM   23  C   UNL     1     -41.718 -54.322  13.929  1.00  0.00     0.026 C 
HETATM   24  C   UNL     1     -40.421 -53.693  13.442  1.00  0.00     0.168 C 
HETATM   25  O   UNL     1     -40.561 -53.196  12.111  1.00  0.00    -0.384 OA
ENDBRANCH  19  20
ENDBRANCH   4  19
TORSDOF 4
ENDMDL
MODEL 3
REMARK VINA RESULT:      -6.6      2.005      2.503
REMARK  4 active torsions:
REMARK  status: ('A' for Active; 'I' for Inactive)
REMARK    1  A    between atoms: C_2  and  C_5 
REMARK    2  A    between atoms: C_10  and  N_11 
REMARK       I    between atoms: N_11  and  C_12 
REMARK       I    between atoms: C_12  and  N_14 
REMARK    3  A    between atoms: N_14  and  C_15 
REMARK    4  A    between atoms: C_15  and  C_16 
ROOT
HETATM    1  N   UNL     1     -40.455 -51.034  11.339  1.00  0.00    -0.304 N 
HETATM    2  C   UNL     1     -41.201 -51.994  11.973  1.00  0.00     0.320 C 
HETATM    3  O   UNL     1     -40.782 -53.139  12.093  1.00  0.00    -0.247 OA
HETATM    4  N   UNL     1     -42.435 -51.593  12.402  1.00  0.00    -0.340 N 
HETATM    5  H   UNL     1     -39.698 -51.416  10.778  1.00  0.00     0.171 HD
HETATM    6  H   UNL     1     -42.849 -50.832  11.887  1.00  0.00     0.164 HD
ENDROOT
BRANCH   1   7
HETATM    7  C   UNL     1     -40.644 -49.672  11.247  1.00  0.00     0.105 C 
HETATM    8  C   UNL     1     -39.490 -48.789  11.648  1.00  0.00     0.272 C 
HETATM    9  N   UNL     1     -39.661 -47.442  11.423  1.00  0.00    -0.331 N 
HETATM   10  O   UNL     1     -38.457 -49.251  12.119  1.00  0.00    -0.266 OA
HETATM   11  C   UNL     1     -40.796 -46.885  10.885  1.00  0.00     0.107 C 
HETATM   12  H   UNL     1     -38.866 -46.857  11.655  1.00  0.00     0.168 HD
HETATM   13  C   UNL     1     -41.862 -47.647  10.588  1.00  0.00     0.065 C 
HETATM   14  C   UNL     1     -41.779 -49.075  10.842  1.00  0.00     0.052 C 
BRANCH  13  15
HETATM   15  C   UNL     1     -43.097 -47.111   9.918  1.00  0.00     0.418 C 
HETATM   16  F   UNL     1     -43.045 -45.770   9.700  1.00  0.00    -0.166 F 
HETATM   17  F   UNL     1     -44.203 -47.331  10.677  1.00  0.00    -0.166 F 
HETATM   18  F   UNL     1     -43.319 -47.697   8.717  1.00  0.00    -0.166 F 
ENDBRANCH  13  15
ENDBRANCH   1   7
BRANCH   4  19
HETATM   19  C   UNL     1     -43.350 -52.451  13.121  1.00  0.00     0.156 C 
BRANCH  19  20
HETATM   20  C   UNL     1     -44.745 -52.567  12.472  1.00  0.00     0.139 C 
HETATM   21  C   UNL     1     -45.756 -51.504  12.922  1.00  0.00     0.034 C 
HETATM   22  C   UNL     1     -46.269 -51.735  14.341  1.00  0.00     0.005 C 
HETATM   23  C   UNL     1     -46.714 -53.181  14.531  1.00  0.00     0.026 C 
HETATM   24  C   UNL     1     -45.653 -54.153  14.038  1.00  0.00     0.168 C 
HETATM   25  O   UNL     1     -45.295 -53.878  12.684  1.00  0.00    -0.384 OA
ENDBRANCH  19  20
ENDBRANCH   4  19
TORSDOF 4
ENDMDL
MODEL 4
REMARK VINA RESULT:      -6.3      4.339      6.761
REMARK  4 active torsions:
REMARK  status: ('A' for Active; 'I' for Inactive)
REMARK    1  A    between atoms: C_2  and  C_5 
REMARK    2  A    between atoms: C_10  and  N_11 
REMARK       I    between atoms: N_11  and  C_12 
REMARK       I    between atoms: C_12  and  N_14 
REMARK    3  A    between atoms: N_14  and  C_15 
REMARK    4  A    between atoms: C_15  and  C_16 
ROOT
HETATM    1  N   UNL     1     -44.571 -50.692  12.779  1.00  0.00    -0.304 N 
HETATM    2  C   UNL     1     -43.226 -50.457  12.892  1.00  0.00     0.320 C 
HETATM    3  O   UNL     1     -42.685 -49.572  12.239  1.00  0.00    -0.247 OA
HETATM    4  N   UNL     1     -42.549 -51.297  13.731  1.00  0.00    -0.340 N 
HETATM    5  H   UNL     1     -44.986 -50.271  11.951  1.00  0.00     0.171 HD
HETATM    6  H   UNL     1     -42.954 -52.212  13.850  1.00  0.00     0.164 HD
ENDROOT
BRANCH   1   7
HETATM    7  C   UNL     1     -45.404 -51.495  13.528  1.00  0.00     0.105 C 
HETATM    8  C   UNL     1     -45.604 -52.912  13.052  1.00  0.00     0.272 C 
HETATM    9  N   UNL     1     -46.334 -53.726  13.887  1.00  0.00    -0.331 N 
HETATM   10  O   UNL     1     -45.120 -53.313  12.000  1.00  0.00    -0.266 OA
HETATM   11  C   UNL     1     -46.882 -53.320  15.080  1.00  0.00     0.107 C 
HETATM   12  H   UNL     1     -46.429 -54.689  13.582  1.00  0.00     0.168 HD
HETATM   13  C   UNL     1     -46.775 -52.043  15.486  1.00  0.00     0.065 C 
HETATM   14  C   UNL     1     -46.060 -51.108  14.636  1.00  0.00     0.052 C 
BRANCH  13  15
HETATM   15  C   UNL     1     -47.275 -51.560  16.819  1.00  0.00     0.418 C 
HETATM   16  F   UNL     1     -48.572 -51.154  16.786  1.00  0.00    -0.166 F 
HETATM   17  F   UNL     1     -46.554 -50.494  17.257  1.00  0.00    -0.166 F 
HETATM   18  F   UNL     1     -47.185 -52.517  17.774  1.00  0.00    -0.166 F 
ENDBRANCH  13  15
ENDBRANCH   1   7
BRANCH   4  19
HETATM   19  C   UNL     1     -41.134 -51.183  14.007  1.00  0.00     0.156 C 
BRANCH  19  20
HETATM   20  C   UNL     1     -40.231 -51.863  12.955  1.00  0.00     0.139 C 
HETATM   21  C   UNL     1     -40.837 -53.107  12.293  1.00  0.00     0.034 C 
HETATM   22  C   UNL     1     -40.866 -54.319  13.222  1.00  0.00     0.005 C 
HETATM   23  C   UNL     1     -39.510 -54.527  13.887  1.00  0.00     0.026 C 
HETATM   24  C   UNL     1     -38.989 -53.234  14.494  1.00  0.00     0.168 C 
HETATM   25  O   UNL     1     -38.952 -52.190  13.521  1.00  0.00    -0.384 OA
ENDBRANCH  19  20
ENDBRANCH   4  19
TORSDOF 4
ENDMDL
MODEL 5
REMARK VINA RESULT:      -6.2      3.624      4.780
REMARK  4 active torsions:
REMARK  status: ('A' for Active; 'I' for Inactive)
REMARK    1  A    between atoms: C_2  and  C_5 
REMARK    2  A    between atoms: C_10  and  N_11 
REMARK       I    between atoms: N_11  and  C_12 
REMARK       I    between atoms: C_12  and  N_14 
REMARK    3  A    between atoms: N_14  and  C_15 
REMARK    4  A    between atoms: C_15  and  C_16 
ROOT
HETATM    1  N   UNL     1     -43.106 -47.193  12.378  1.00  0.00    -0.304 N 
HETATM    2  C   UNL     1     -42.346 -48.060  13.120  1.00  0.00     0.320 C 
HETATM    3  O   UNL     1     -42.322 -47.987  14.342  1.00  0.00    -0.247 OA
HETATM    4  N   UNL     1     -41.601 -48.952  12.401  1.00  0.00    -0.340 N 
HETATM    5  H   UNL     1     -43.404 -46.371  12.898  1.00  0.00     0.171 HD
HETATM    6  H   UNL     1     -41.340 -48.655  11.474  1.00  0.00     0.164 HD
ENDROOT
BRANCH   1   7
HETATM    7  C   UNL     1     -43.417 -47.201  11.036  1.00  0.00     0.105 C 
HETATM    8  C   UNL     1     -42.327 -46.801  10.075  1.00  0.00     0.272 C 
HETATM    9  N   UNL     1     -42.625 -46.943   8.739  1.00  0.00    -0.331 N 
HETATM   10  O   UNL     1     -41.236 -46.402  10.466  1.00  0.00    -0.266 OA
HETATM   11  C   UNL     1     -43.829 -47.398   8.258  1.00  0.00     0.107 C 
HETATM   12  H   UNL     1     -41.873 -46.713   8.098  1.00  0.00     0.168 HD
HETATM   13  C   UNL     1     -44.837 -47.691   9.097  1.00  0.00     0.065 C 
HETATM   14  C   UNL     1     -44.618 -47.522  10.523  1.00  0.00     0.052 C 
BRANCH  13  15
HETATM   15  C   UNL     1     -46.145 -48.276   8.639  1.00  0.00     0.418 C 
HETATM   16  F   UNL     1     -46.637 -49.213   9.491  1.00  0.00    -0.166 F 
HETATM   17  F   UNL     1     -46.013 -48.889   7.433  1.00  0.00    -0.166 F 
HETATM   18  F   UNL     1     -47.103 -47.329   8.498  1.00  0.00    -0.166 F 
ENDBRANCH  13  15
ENDBRANCH   1   7
BRANCH   4  19
HETATM   19  C   UNL     1     -40.765 -49.966  13.006  1.00  0.00     0.156 C 
BRANCH  19  20
HETATM   20  C   UNL     1     -39.417 -49.436  13.537  1.00  0.00     0.139 C 
HETATM   21  C   UNL     1     -38.491 -48.842  12.467  1.00  0.00     0.034 C 
HETATM   22  C   UNL     1     -37.854 -49.906  11.576  1.00  0.00     0.005 C 
HETATM   23  C   UNL     1     -37.250 -51.027  12.414  1.00  0.00     0.026 C 
HETATM   24  C   UNL     1     -38.238 -51.532  13.454  1.00  0.00     0.168 C 
HETATM   25  O   UNL     1     -38.721 -50.461  14.264  1.00  0.00    -0.384 OA
ENDBRANCH  19  20
ENDBRANCH   4  19
TORSDOF 4
ENDMDL
MODEL 6
REMARK VINA RESULT:      -6.1      4.291      7.042
REMARK  4 active torsions:
REMARK  status: ('A' for Active; 'I' for Inactive)
REMARK    1  A    between atoms: C_2  and  C_5 
REMARK    2  A    between atoms: C_10  and  N_11 
REMARK       I    between atoms: N_11  and  C_12 
REMARK       I    between atoms: C_12  and  N_14 
REMARK    3  A    between atoms: N_14  and  C_15 
REMARK    4  A    between atoms: C_15  and  C_16 
ROOT
HETATM    1  N   UNL     1     -44.398 -50.788  12.732  1.00  0.00    -0.304 N 
HETATM    2  C   UNL     1     -43.088 -50.452  12.956  1.00  0.00     0.320 C 
HETATM    3  O   UNL     1     -42.528 -49.608  12.267  1.00  0.00    -0.247 OA
HETATM    4  N   UNL     1     -42.461 -51.153  13.947  1.00  0.00    -0.340 N 
HETATM    5  H   UNL     1     -44.742 -50.485  11.824  1.00  0.00     0.171 HD
HETATM    6  H   UNL     1     -42.826 -52.075  14.126  1.00  0.00     0.164 HD
ENDROOT
BRANCH   1   7
HETATM    7  C   UNL     1     -45.262 -51.561  13.476  1.00  0.00     0.105 C 
HETATM    8  C   UNL     1     -45.458 -52.990  13.037  1.00  0.00     0.272 C 
HETATM    9  N   UNL     1     -46.222 -53.773  13.872  1.00  0.00    -0.331 N 
HETATM   10  O   UNL     1     -44.942 -53.427  12.015  1.00  0.00    -0.266 OA
HETATM   11  C   UNL     1     -46.806 -53.327  15.033  1.00  0.00     0.107 C 
HETATM   12  H   UNL     1     -46.315 -54.744  13.594  1.00  0.00     0.168 HD
HETATM   13  C   UNL     1     -46.702 -52.039  15.403  1.00  0.00     0.065 C 
HETATM   14  C   UNL     1     -45.951 -51.135  14.549  1.00  0.00     0.052 C 
BRANCH  13  15
HETATM   15  C   UNL     1     -47.243 -51.510  16.703  1.00  0.00     0.418 C 
HETATM   16  F   UNL     1     -47.158 -52.408  17.719  1.00  0.00    -0.166 F 
HETATM   17  F   UNL     1     -48.558 -51.184  16.592  1.00  0.00    -0.166 F 
HETATM   18  F   UNL     1     -46.592 -50.393  17.108  1.00  0.00    -0.166 F 
ENDBRANCH  13  15
ENDBRANCH   1   7
BRANCH   4  19
HETATM   19  C   UNL     1     -41.093 -50.917  14.353  1.00  0.00     0.156 C 
BRANCH  19  20
HETATM   20  C   UNL     1     -40.092 -51.968  13.828  1.00  0.00     0.139 C 
HETATM   21  C   UNL     1     -38.760 -52.026  14.588  1.00  0.00     0.034 C 
HETATM   22  C   UNL     1     -37.851 -50.837  14.284  1.00  0.00     0.005 C 
HETATM   23  C   UNL     1     -37.736 -50.610  12.781  1.00  0.00     0.026 C 
HETATM   24  C   UNL     1     -39.106 -50.588  12.120  1.00  0.00     0.168 C 
HETATM   25  O   UNL     1     -39.841 -51.773  12.426  1.00  0.00    -0.384 OA
ENDBRANCH  19  20
ENDBRANCH   4  19
TORSDOF 4
ENDMDL
MODEL 7
REMARK VINA RESULT:      -6.1      3.314      6.704
REMARK  4 active torsions:
REMARK  status: ('A' for Active; 'I' for Inactive)
REMARK    1  A    between atoms: C_2  and  C_5 
REMARK    2  A    between atoms: C_10  and  N_11 
REMARK       I    between atoms: N_11  and  C_12 
REMARK       I    between atoms: C_12  and  N_14 
REMARK    3  A    between atoms: N_14  and  C_15 
REMARK    4  A    between atoms: C_15  and  C_16 
ROOT
HETATM    1  N   UNL     1     -41.634 -50.563  13.754  1.00  0.00    -0.304 N 
HETATM    2  C   UNL     1     -40.926 -49.542  13.176  1.00  0.00     0.320 C 
HETATM    3  O   UNL     1     -39.891 -49.128  13.685  1.00  0.00    -0.247 OA
HETATM    4  N   UNL     1     -41.478 -49.007  12.047  1.00  0.00    -0.340 N 
HETATM    5  H   UNL     1     -41.376 -50.735  14.723  1.00  0.00     0.171 HD
HETATM    6  H   UNL     1     -42.480 -49.085  11.974  1.00  0.00     0.164 HD
ENDROOT
BRANCH   1   7
HETATM    7  C   UNL     1     -42.702 -51.291  13.278  1.00  0.00     0.105 C 
HETATM    8  C   UNL     1     -42.394 -52.433  12.343  1.00  0.00     0.272 C 
HETATM    9  N   UNL     1     -43.465 -53.221  11.987  1.00  0.00    -0.331 N 
HETATM   10  O   UNL     1     -41.254 -52.657  11.951  1.00  0.00    -0.266 OA
HETATM   11  C   UNL     1     -44.754 -53.014  12.414  1.00  0.00     0.107 C 
HETATM   12  H   UNL     1     -43.244 -54.013  11.392  1.00  0.00     0.168 HD
HETATM   13  C   UNL     1     -45.061 -51.960  13.189  1.00  0.00     0.065 C 
HETATM   14  C   UNL     1     -43.993 -51.052  13.570  1.00  0.00     0.052 C 
BRANCH  13  15
HETATM   15  C   UNL     1     -46.433 -51.729  13.759  1.00  0.00     0.418 C 
HETATM   16  F   UNL     1     -47.046 -52.877  14.153  1.00  0.00    -0.166 F 
HETATM   17  F   UNL     1     -47.255 -51.154  12.843  1.00  0.00    -0.166 F 
HETATM   18  F   UNL     1     -46.405 -50.907  14.836  1.00  0.00    -0.166 F 
ENDBRANCH  13  15
ENDBRANCH   1   7
BRANCH   4  19
HETATM   19  C   UNL     1     -40.861 -47.950  11.278  1.00  0.00     0.156 C 
BRANCH  19  20
HETATM   20  C   UNL     1     -41.524 -46.568  11.462  1.00  0.00     0.139 C 
HETATM   21  C   UNL     1     -41.184 -45.539  10.377  1.00  0.00     0.034 C 
HETATM   22  C   UNL     1     -39.760 -45.001  10.495  1.00  0.00     0.005 C 
HETATM   23  C   UNL     1     -39.460 -44.565  11.925  1.00  0.00     0.026 C 
HETATM   24  C   UNL     1     -39.850 -45.645  12.923  1.00  0.00     0.168 C 
HETATM   25  O   UNL     1     -41.215 -46.027  12.757  1.00  0.00    -0.384 OA
ENDBRANCH  19  20
ENDBRANCH   4  19
TORSDOF 4
ENDMDL
MODEL 8
REMARK VINA RESULT:      -6.0      4.245      4.935
REMARK  4 active torsions:
REMARK  status: ('A' for Active; 'I' for Inactive)
REMARK    1  A    between atoms: C_2  and  C_5 
REMARK    2  A    between atoms: C_10  and  N_11 
REMARK       I    between atoms: N_11  and  C_12 
REMARK       I    between atoms: C_12  and  N_14 
REMARK    3  A    between atoms: N_14  and  C_15 
REMARK    4  A    between atoms: C_15  and  C_16 
ROOT
HETATM    1  N   UNL     1     -41.539 -51.137  14.671  1.00  0.00    -0.304 N 
HETATM    2  C   UNL     1     -42.375 -52.187  14.951  1.00  0.00     0.320 C 
HETATM    3  O   UNL     1     -42.896 -52.299  16.055  1.00  0.00    -0.247 OA
HETATM    4  N   UNL     1     -42.536 -53.097  13.945  1.00  0.00    -0.340 N 
HETATM    5  H   UNL     1     -41.204 -50.655  15.502  1.00  0.00     0.171 HD
HETATM    6  H   UNL     1     -41.767 -53.171  13.297  1.00  0.00     0.164 HD
ENDROOT
BRANCH   1   7
HETATM    7  C   UNL     1     -40.996 -50.722  13.474  1.00  0.00     0.105 C 
HETATM    8  C   UNL     1     -41.940 -50.128  12.460  1.00  0.00     0.272 C 
HETATM    9  N   UNL     1     -41.352 -49.605  11.331  1.00  0.00    -0.331 N 
HETATM   10  O   UNL     1     -43.150 -50.092  12.649  1.00  0.00    -0.266 OA
HETATM   11  C   UNL     1     -40.001 -49.613  11.086  1.00  0.00     0.107 C 
HETATM   12  H   UNL     1     -41.988 -49.169  10.672  1.00  0.00     0.168 HD
HETATM   13  C   UNL     1     -39.151 -50.202  11.945  1.00  0.00     0.065 C 
HETATM   14  C   UNL     1     -39.698 -50.821  13.139  1.00  0.00     0.052 C 
BRANCH  13  15
HETATM   15  C   UNL     1     -37.657 -50.168  11.777  1.00  0.00     0.418 C 
HETATM   16  F   UNL     1     -37.269 -50.035  10.482  1.00  0.00    -0.166 F 
HETATM   17  F   UNL     1     -37.085 -51.315  12.231  1.00  0.00    -0.166 F 
HETATM   18  F   UNL     1     -37.092 -49.146  12.465  1.00  0.00    -0.166 F 
ENDBRANCH  13  15
ENDBRANCH   1   7
BRANCH   4  19
HETATM   19  C   UNL     1     -43.405 -54.249  14.039  1.00  0.00     0.156 C 
BRANCH  19  20
HETATM   20  C   UNL     1     -44.599 -54.218  13.062  1.00  0.00     0.139 C 
HETATM   21  C   UNL     1     -45.161 -52.819  12.776  1.00  0.00     0.034 C 
HETATM   22  C   UNL     1     -45.956 -52.248  13.948  1.00  0.00     0.005 C 
HETATM   23  C   UNL     1     -46.966 -53.264  14.468  1.00  0.00     0.026 C 
HETATM   24  C   UNL     1     -46.314 -54.619  14.701  1.00  0.00     0.168 C 
HETATM   25  O   UNL     1     -45.653 -55.079  13.523  1.00  0.00    -0.384 OA
ENDBRANCH  19  20
ENDBRANCH   4  19
TORSDOF 4
ENDMDL
MODEL 9
REMARK VINA RESULT:      -5.9      1.739      2.288
REMARK  4 active torsions:
REMARK  status: ('A' for Active; 'I' for Inactive)
REMARK    1  A    between atoms: C_2  and  C_5 
REMARK    2  A    between atoms: C_10  and  N_11 
REMARK       I    between atoms: N_11  and  C_12 
REMARK       I    between atoms: C_12  and  N_14 
REMARK    3  A    between atoms: N_14  and  C_15 
REMARK    4  A    between atoms: C_15  and  C_16 
ROOT
HETATM    1  N   UNL     1     -40.818 -49.406  10.889  1.00  0.00    -0.304 N 
HETATM    2  C   UNL     1     -40.850 -50.266  11.956  1.00  0.00     0.320 C 
HETATM    3  O   UNL     1     -40.042 -51.183  12.050  1.00  0.00    -0.247 OA
HETATM    4  N   UNL     1     -41.857 -50.052  12.854  1.00  0.00    -0.340 N 
HETATM    5  H   UNL     1     -40.271 -49.756  10.105  1.00  0.00     0.171 HD
HETATM    6  H   UNL     1     -42.685 -49.612  12.484  1.00  0.00     0.164 HD
ENDROOT
BRANCH   1   7
HETATM    7  C   UNL     1     -41.496 -48.227  10.670  1.00  0.00     0.105 C 
HETATM    8  C   UNL     1     -40.764 -46.945  10.975  1.00  0.00     0.272 C 
HETATM    9  N   UNL     1     -41.417 -45.785  10.625  1.00  0.00    -0.331 N 
HETATM   10  O   UNL     1     -39.645 -46.945  11.475  1.00  0.00    -0.266 OA
HETATM   11  C   UNL     1     -42.663 -45.742  10.049  1.00  0.00     0.107 C 
HETATM   12  H   UNL     1     -40.901 -44.928  10.793  1.00  0.00     0.168 HD
HETATM   13  C   UNL     1     -43.362 -46.871   9.837  1.00  0.00     0.065 C 
HETATM   14  C   UNL     1     -42.761 -48.135  10.224  1.00  0.00     0.052 C 
BRANCH  13  15
HETATM   15  C   UNL     1     -44.690 -46.896   9.132  1.00  0.00     0.418 C 
HETATM   16  F   UNL     1     -45.692 -47.396   9.903  1.00  0.00    -0.166 F 
HETATM   17  F   UNL     1     -44.641 -47.674   8.019  1.00  0.00    -0.166 F 
HETATM   18  F   UNL     1     -45.078 -45.660   8.734  1.00  0.00    -0.166 F 
ENDBRANCH  13  15
ENDBRANCH   1   7
BRANCH   4  19
HETATM   19  C   UNL     1     -42.033 -50.831  14.060  1.00  0.00     0.156 C 
BRANCH  19  20
HETATM   20  C   UNL     1     -42.913 -52.086  13.876  1.00  0.00     0.139 C 
HETATM   21  C   UNL     1     -44.108 -51.902  12.932  1.00  0.00     0.034 C 
HETATM   22  C   UNL     1     -45.227 -51.065  13.549  1.00  0.00     0.005 C 
HETATM   23  C   UNL     1     -45.570 -51.562  14.949  1.00  0.00     0.026 C 
HETATM   24  C   UNL     1     -44.318 -51.729  15.796  1.00  0.00     0.168 C 
HETATM   25  O   UNL     1     -43.369 -52.575  15.147  1.00  0.00    -0.384 OA
ENDBRANCH  19  20
ENDBRANCH   4  19
TORSDOF 4
ENDMDL
