MODEL 1
REMARK VINA RESULT:      -7.2      0.000      0.000
REMARK  6 active torsions:
REMARK  status: ('A' for Active; 'I' for Inactive)
REMARK    1  A    between atoms: N_2  and  C_16 
REMARK    2  A    between atoms: C_6  and  N_7 
REMARK    3  A    between atoms: C_8  and  C_11 
REMARK       I    between atoms: C_11  and  N_24 
REMARK    4  A    between atoms: C_16  and  C_17 
REMARK    5  A    between atoms: C_17  and  C_22 
REMARK    6  A    between atoms: C_17  and  O_25 
ROOT
HETATM    1  C   UNL     1     -40.528 -51.338  13.097  1.00  0.00     0.117 A 
HETATM    2  N   UNL     1     -39.637 -53.186  13.868  1.00  0.00    -0.325 N 
HETATM    3  C   UNL     1     -40.780 -52.691  13.297  1.00  0.00     0.140 A 
HETATM    4  N   UNL     1     -39.267 -51.011  13.572  1.00  0.00    -0.346 N 
ATOM      5  HN  UNL     1     -38.825 -50.091  13.573  1.00  0.00     0.167 HD
HETATM    6  C   UNL     1     -41.517 -50.569  12.434  1.00  0.00     0.114 A 
HETATM    7  C   UNL     1     -38.766 -52.136  14.020  1.00  0.00     0.185 A 
HETATM    8  N   UNL     1     -41.891 -53.364  12.955  1.00  0.00    -0.336 N 
ATOM      9  HN  UNL     1     -42.041 -54.360  13.120  1.00  0.00     0.168 HD
HETATM   10  N   UNL     1     -42.664 -51.225  12.087  1.00  0.00    -0.341 N 
ATOM     11  HN  UNL     1     -43.423 -50.726  11.623  1.00  0.00     0.167 HD
HETATM   12  C   UNL     1     -42.782 -52.542  12.364  1.00  0.00     0.183 A 
ENDROOT
BRANCH   6  13
HETATM   13  N   UNL     1     -41.400 -49.209  12.150  1.00  0.00    -0.266 NA
HETATM   14  C   UNL     1     -42.614 -48.524  11.693  1.00  0.00     0.115 C 
HETATM   15  C   UNL     1     -42.102 -47.154  11.164  1.00  0.00     0.050 C 
HETATM   16  C   UNL     1     -42.541 -46.028  12.113  1.00  0.00     0.027 C 
HETATM   17  C   UNL     1     -40.562 -47.282  11.163  1.00  0.00     0.035 C 
HETATM   18  C   UNL     1     -40.285 -48.769  11.326  1.00  0.00     0.098 C 
BRANCH  15  19
HETATM   19  C   UNL     1     -42.637 -46.862   9.754  1.00  0.00     0.226 C 
HETATM   20  O   UNL     1     -42.764 -45.729   9.303  1.00  0.00    -0.273 OA
HETATM   21  N   UNL     1     -42.941 -47.985   9.007  1.00  0.00    -0.365 N 
HETATM   22  C   UNL     1     -43.400 -47.909   7.641  1.00  0.00     0.149 C 
HETATM   23  H   UNL     1     -42.797 -48.904   9.405  1.00  0.00     0.161 HD
ENDBRANCH  15  19
ENDBRANCH   6  13
BRANCH   2  24
HETATM   24  C   UNL     1     -39.294 -54.583  14.071  1.00  0.00     0.165 C 
BRANCH  24  25
HETATM   25  C   UNL     1     -38.731 -54.910  15.466  1.00  0.00     0.165 C 
BRANCH  25  26
HETATM   26  C   UNL     1     -39.792 -55.439  16.448  1.00  0.00     0.151 C 
HETATM   27  O   UNL     1     -39.555 -56.838  16.726  1.00  0.00    -0.383 OA
HETATM   28  C   UNL     1     -40.818 -57.439  17.070  1.00  0.00     0.168 C 
HETATM   29  C   UNL     1     -41.875 -56.355  16.970  1.00  0.00     0.029 C 
HETATM   30  C   UNL     1     -41.244 -55.356  16.027  1.00  0.00     0.036 C 
ENDBRANCH  25  26
BRANCH  25  31
HETATM   31  O   UNL     1     -37.721 -55.935  15.362  1.00  0.00    -0.391 OA
HETATM   32  H   UNL     1     -37.133 -55.678  14.623  1.00  0.00     0.210 HD
ENDBRANCH  25  31
ENDBRANCH  24  25
ENDBRANCH   2  24
TORSDOF 6
ENDMDL
MODEL 2
REMARK VINA RESULT:      -7.2      3.750      5.754
REMARK  6 active torsions:
REMARK  status: ('A' for Active; 'I' for Inactive)
REMARK    1  A    between atoms: N_2  and  C_16 
REMARK    2  A    between atoms: C_6  and  N_7 
REMARK    3  A    between atoms: C_8  and  C_11 
REMARK       I    between atoms: C_11  and  N_24 
REMARK    4  A    between atoms: C_16  and  C_17 
REMARK    5  A    between atoms: C_17  and  C_22 
REMARK    6  A    between atoms: C_17  and  O_25 
ROOT
HETATM    1  C   UNL     1     -42.101 -52.903  13.460  1.00  0.00     0.117 A 
HETATM    2  N   UNL     1     -43.979 -53.986  13.139  1.00  0.00    -0.325 N 
HETATM    3  C   UNL     1     -42.815 -54.027  13.862  1.00  0.00     0.140 A 
HETATM    4  N   UNL     1     -42.803 -52.214  12.483  1.00  0.00    -0.346 N 
ATOM      5  HN  UNL     1     -42.515 -51.365  11.995  1.00  0.00     0.167 HD
HETATM    6  C   UNL     1     -40.872 -52.631  14.109  1.00  0.00     0.114 A 
HETATM    7  C   UNL     1     -43.917 -52.886  12.321  1.00  0.00     0.185 A 
HETATM    8  N   UNL     1     -42.453 -54.923  14.794  1.00  0.00    -0.336 N 
ATOM      9  HN  UNL     1     -43.005 -55.738  15.062  1.00  0.00     0.168 HD
HETATM   10  N   UNL     1     -40.470 -53.534  15.053  1.00  0.00    -0.341 N 
ATOM     11  HN  UNL     1     -39.586 -53.407  15.545  1.00  0.00     0.167 HD
HETATM   12  C   UNL     1     -41.257 -54.596  15.328  1.00  0.00     0.183 A 
ENDROOT
BRANCH   6  13
HETATM   13  N   UNL     1     -40.054 -51.537  13.825  1.00  0.00    -0.266 NA
HETATM   14  C   UNL     1     -39.764 -51.279  12.412  1.00  0.00     0.115 C 
HETATM   15  C   UNL     1     -38.608 -50.239  12.443  1.00  0.00     0.050 C 
HETATM   16  C   UNL     1     -39.123 -48.869  11.973  1.00  0.00     0.027 C 
HETATM   17  C   UNL     1     -38.181 -50.169  13.927  1.00  0.00     0.035 C 
HETATM   18  C   UNL     1     -38.823 -51.382  14.584  1.00  0.00     0.098 C 
BRANCH  15  19
HETATM   19  C   UNL     1     -37.439 -50.673  11.547  1.00  0.00     0.226 C 
HETATM   20  O   UNL     1     -36.668 -51.582  11.838  1.00  0.00    -0.273 OA
HETATM   21  N   UNL     1     -37.334 -49.978  10.357  1.00  0.00    -0.365 N 
HETATM   22  C   UNL     1     -36.334 -50.286   9.363  1.00  0.00     0.149 C 
HETATM   23  H   UNL     1     -38.006 -49.253  10.140  1.00  0.00     0.161 HD
ENDBRANCH  15  19
ENDBRANCH   6  13
BRANCH   2  24
HETATM   24  C   UNL     1     -45.164 -54.803  13.342  1.00  0.00     0.165 C 
BRANCH  24  25
HETATM   25  C   UNL     1     -45.791 -54.686  14.742  1.00  0.00     0.165 C 
BRANCH  25  26
HETATM   26  C   UNL     1     -45.903 -53.235  15.246  1.00  0.00     0.151 C 
HETATM   27  O   UNL     1     -46.195 -53.223  16.662  1.00  0.00    -0.383 OA
HETATM   28  C   UNL     1     -46.902 -52.004  16.956  1.00  0.00     0.168 C 
HETATM   29  C   UNL     1     -47.069 -51.253  15.648  1.00  0.00     0.029 C 
HETATM   30  C   UNL     1     -46.956 -52.350  14.614  1.00  0.00     0.036 C 
ENDBRANCH  25  26
BRANCH  25  31
HETATM   31  O   UNL     1     -47.131 -55.219  14.729  1.00  0.00    -0.391 OA
HETATM   32  H   UNL     1     -47.062 -56.163  14.976  1.00  0.00     0.210 HD
ENDBRANCH  25  31
ENDBRANCH  24  25
ENDBRANCH   2  24
TORSDOF 6
ENDMDL
MODEL 3
REMARK VINA RESULT:      -6.9      3.190      4.396
REMARK  6 active torsions:
REMARK  status: ('A' for Active; 'I' for Inactive)
REMARK    1  A    between atoms: N_2  and  C_16 
REMARK    2  A    between atoms: C_6  and  N_7 
REMARK    3  A    between atoms: C_8  and  C_11 
REMARK       I    between atoms: C_11  and  N_24 
REMARK    4  A    between atoms: C_16  and  C_17 
REMARK    5  A    between atoms: C_17  and  C_22 
REMARK    6  A    between atoms: C_17  and  O_25 
ROOT
HETATM    1  C   UNL     1     -40.626 -48.530  11.764  1.00  0.00     0.117 A 
HETATM    2  N   UNL     1     -40.506 -50.718  11.779  1.00  0.00    -0.325 N 
HETATM    3  C   UNL     1     -41.401 -49.682  11.845  1.00  0.00     0.140 A 
HETATM    4  N   UNL     1     -39.282 -48.861  11.687  1.00  0.00    -0.346 N 
ATOM      5  HN  UNL     1     -38.488 -48.222  11.634  1.00  0.00     0.167 HD
HETATM    6  C   UNL     1     -41.296 -47.282  11.722  1.00  0.00     0.114 A 
HETATM    7  C   UNL     1     -39.250 -50.171  11.694  1.00  0.00     0.185 A 
HETATM    8  N   UNL     1     -42.740 -49.751  11.923  1.00  0.00    -0.336 N 
ATOM      9  HN  UNL     1     -43.275 -50.618  11.982  1.00  0.00     0.168 HD
HETATM   10  N   UNL     1     -42.659 -47.320  11.814  1.00  0.00    -0.341 N 
ATOM     11  HN  UNL     1     -43.201 -46.456  11.809  1.00  0.00     0.167 HD
HETATM   12  C   UNL     1     -43.281 -48.515  11.911  1.00  0.00     0.183 A 
ENDROOT
BRANCH   6  13
HETATM   13  N   UNL     1     -40.657 -46.045  11.627  1.00  0.00    -0.266 NA
HETATM   14  C   UNL     1     -41.323 -44.907  12.266  1.00  0.00     0.115 C 
HETATM   15  C   UNL     1     -40.563 -43.665  11.721  1.00  0.00     0.050 C 
HETATM   16  C   UNL     1     -39.718 -43.035  12.841  1.00  0.00     0.027 C 
HETATM   17  C   UNL     1     -39.646 -44.221  10.608  1.00  0.00     0.035 C 
HETATM   18  C   UNL     1     -40.168 -45.621  10.324  1.00  0.00     0.098 C 
BRANCH  15  19
HETATM   19  C   UNL     1     -41.534 -42.611  11.169  1.00  0.00     0.226 C 
HETATM   20  O   UNL     1     -42.596 -42.893  10.623  1.00  0.00    -0.273 OA
HETATM   21  N   UNL     1     -41.135 -41.301  11.361  1.00  0.00    -0.365 N 
HETATM   22  C   UNL     1     -41.946 -40.176  10.961  1.00  0.00     0.149 C 
HETATM   23  H   UNL     1     -40.266 -41.108  11.839  1.00  0.00     0.161 HD
ENDBRANCH  15  19
ENDBRANCH   6  13
BRANCH   2  24
HETATM   24  C   UNL     1     -40.810 -52.127  11.597  1.00  0.00     0.165 C 
BRANCH  24  25
HETATM   25  C   UNL     1     -40.920 -52.934  12.904  1.00  0.00     0.165 C 
BRANCH  25  26
HETATM   26  C   UNL     1     -42.238 -53.720  13.031  1.00  0.00     0.151 C 
HETATM   27  O   UNL     1     -43.356 -52.870  12.687  1.00  0.00    -0.383 OA
HETATM   28  C   UNL     1     -44.513 -53.356  13.394  1.00  0.00     0.168 C 
HETATM   29  C   UNL     1     -44.066 -54.543  14.227  1.00  0.00     0.029 C 
HETATM   30  C   UNL     1     -42.581 -54.303  14.385  1.00  0.00     0.036 C 
ENDBRANCH  25  26
BRANCH  25  31
HETATM   31  O   UNL     1     -39.856 -53.905  12.975  1.00  0.00    -0.391 OA
HETATM   32  H   UNL     1     -40.264 -54.782  12.822  1.00  0.00     0.210 HD
ENDBRANCH  25  31
ENDBRANCH  24  25
ENDBRANCH   2  24
TORSDOF 6
ENDMDL
MODEL 4
REMARK VINA RESULT:      -6.9      3.950      5.647
REMARK  6 active torsions:
REMARK  status: ('A' for Active; 'I' for Inactive)
REMARK    1  A    between atoms: N_2  and  C_16 
REMARK    2  A    between atoms: C_6  and  N_7 
REMARK    3  A    between atoms: C_8  and  C_11 
REMARK       I    between atoms: C_11  and  N_24 
REMARK    4  A    between atoms: C_16  and  C_17 
REMARK    5  A    between atoms: C_17  and  C_22 
REMARK    6  A    between atoms: C_17  and  O_25 
ROOT
HETATM    1  C   UNL     1     -41.582 -52.057  13.316  1.00  0.00     0.117 A 
HETATM    2  N   UNL     1     -43.216 -53.512  13.202  1.00  0.00    -0.325 N 
HETATM    3  C   UNL     1     -42.956 -52.168  13.134  1.00  0.00     0.140 A 
HETATM    4  N   UNL     1     -41.024 -53.308  13.526  1.00  0.00    -0.346 N 
ATOM      5  HN  UNL     1     -40.043 -53.528  13.704  1.00  0.00     0.167 HD
HETATM    6  C   UNL     1     -41.001 -50.769  13.210  1.00  0.00     0.114 A 
HETATM    7  C   UNL     1     -42.027 -54.149  13.448  1.00  0.00     0.185 A 
HETATM    8  N   UNL     1     -43.823 -51.169  12.897  1.00  0.00    -0.336 N 
ATOM      9  HN  UNL     1     -44.828 -51.290  12.770  1.00  0.00     0.168 HD
HETATM   10  N   UNL     1     -41.860 -49.731  12.983  1.00  0.00    -0.341 N 
ATOM     11  HN  UNL     1     -41.509 -48.776  12.915  1.00  0.00     0.167 HD
HETATM   12  C   UNL     1     -43.180 -49.984  12.849  1.00  0.00     0.183 A 
ENDROOT
BRANCH   6  13
HETATM   13  N   UNL     1     -39.638 -50.503  13.352  1.00  0.00    -0.266 NA
HETATM   14  C   UNL     1     -39.248 -49.637  14.469  1.00  0.00     0.115 C 
HETATM   15  C   UNL     1     -37.765 -49.277  14.172  1.00  0.00     0.050 C 
HETATM   16  C   UNL     1     -36.842 -49.985  15.177  1.00  0.00     0.027 C 
HETATM   17  C   UNL     1     -37.508 -49.810  12.744  1.00  0.00     0.035 C 
HETATM   18  C   UNL     1     -38.888 -50.101  12.173  1.00  0.00     0.098 C 
BRANCH  15  19
HETATM   19  C   UNL     1     -37.529 -47.761  14.252  1.00  0.00     0.226 C 
HETATM   20  O   UNL     1     -36.428 -47.261  14.455  1.00  0.00    -0.273 OA
HETATM   21  N   UNL     1     -38.657 -46.989  14.044  1.00  0.00    -0.365 N 
HETATM   22  C   UNL     1     -38.618 -45.546  14.022  1.00  0.00     0.149 C 
HETATM   23  H   UNL     1     -39.542 -47.439  13.851  1.00  0.00     0.161 HD
ENDBRANCH  15  19
ENDBRANCH   6  13
BRANCH   2  24
HETATM   24  C   UNL     1     -44.459 -54.181  12.856  1.00  0.00     0.165 C 
BRANCH  24  25
HETATM   25  C   UNL     1     -45.285 -54.666  14.061  1.00  0.00     0.165 C 
BRANCH  25  26
HETATM   26  C   UNL     1     -46.279 -53.614  14.586  1.00  0.00     0.151 C 
HETATM   27  O   UNL     1     -46.516 -52.608  13.575  1.00  0.00    -0.383 OA
HETATM   28  C   UNL     1     -46.877 -51.385  14.246  1.00  0.00     0.168 C 
HETATM   29  C   UNL     1     -46.830 -51.659  15.737  1.00  0.00     0.029 C 
HETATM   30  C   UNL     1     -45.897 -52.845  15.833  1.00  0.00     0.036 C 
ENDBRANCH  25  26
BRANCH  25  31
HETATM   31  O   UNL     1     -46.067 -55.819  13.692  1.00  0.00    -0.391 OA
HETATM   32  H   UNL     1     -45.536 -56.324  13.042  1.00  0.00     0.210 HD
ENDBRANCH  25  31
ENDBRANCH  24  25
ENDBRANCH   2  24
TORSDOF 6
ENDMDL
MODEL 5
REMARK VINA RESULT:      -6.8      3.143      8.776
REMARK  6 active torsions:
REMARK  status: ('A' for Active; 'I' for Inactive)
REMARK    1  A    between atoms: N_2  and  C_16 
REMARK    2  A    between atoms: C_6  and  N_7 
REMARK    3  A    between atoms: C_8  and  C_11 
REMARK       I    between atoms: C_11  and  N_24 
REMARK    4  A    between atoms: C_16  and  C_17 
REMARK    5  A    between atoms: C_17  and  C_22 
REMARK    6  A    between atoms: C_17  and  O_25 
ROOT
HETATM    1  C   UNL     1     -41.790 -49.060  11.858  1.00  0.00     0.117 A 
HETATM    2  N   UNL     1     -42.515 -47.297  10.778  1.00  0.00    -0.325 N 
HETATM    3  C   UNL     1     -41.368 -47.886  11.244  1.00  0.00     0.140 A 
HETATM    4  N   UNL     1     -43.171 -49.163  11.797  1.00  0.00    -0.346 N 
ATOM      5  HN  UNL     1     -43.755 -49.908  12.179  1.00  0.00     0.167 HD
HETATM    6  C   UNL     1     -40.799 -49.935  12.369  1.00  0.00     0.114 A 
HETATM    7  C   UNL     1     -43.567 -48.098  11.144  1.00  0.00     0.185 A 
HETATM    8  N   UNL     1     -40.103 -47.458  11.103  1.00  0.00    -0.336 N 
ATOM      9  HN  UNL     1     -39.832 -46.587  10.646  1.00  0.00     0.168 HD
HETATM   10  N   UNL     1     -39.503 -49.519  12.252  1.00  0.00    -0.341 N 
ATOM     11  HN  UNL     1     -38.742 -50.092  12.616  1.00  0.00     0.167 HD
HETATM   12  C   UNL     1     -39.240 -48.339  11.649  1.00  0.00     0.183 A 
ENDROOT
BRANCH   6  13
HETATM   13  N   UNL     1     -41.067 -51.152  12.996  1.00  0.00    -0.266 NA
HETATM   14  C   UNL     1     -41.656 -52.207  12.166  1.00  0.00     0.115 C 
HETATM   15  C   UNL     1     -42.123 -53.281  13.188  1.00  0.00     0.050 C 
HETATM   16  C   UNL     1     -41.227 -54.526  13.086  1.00  0.00     0.027 C 
HETATM   17  C   UNL     1     -41.951 -52.611  14.570  1.00  0.00     0.035 C 
HETATM   18  C   UNL     1     -41.760 -51.131  14.275  1.00  0.00     0.098 C 
BRANCH  15  19
HETATM   19  C   UNL     1     -43.584 -53.690  12.945  1.00  0.00     0.226 C 
HETATM   20  O   UNL     1     -44.237 -53.311  11.979  1.00  0.00    -0.273 OA
HETATM   21  N   UNL     1     -44.107 -54.552  13.891  1.00  0.00    -0.365 N 
HETATM   22  C   UNL     1     -45.443 -55.090  13.796  1.00  0.00     0.149 C 
HETATM   23  H   UNL     1     -43.527 -54.864  14.659  1.00  0.00     0.161 HD
ENDBRANCH  15  19
ENDBRANCH   6  13
BRANCH   2  24
HETATM   24  C   UNL     1     -42.611 -46.166   9.870  1.00  0.00     0.165 C 
BRANCH  24  25
HETATM   25  C   UNL     1     -43.086 -44.857  10.524  1.00  0.00     0.165 C 
BRANCH  25  26
HETATM   26  C   UNL     1     -41.937 -43.997  11.083  1.00  0.00     0.151 C 
HETATM   27  O   UNL     1     -40.689 -44.373  10.458  1.00  0.00    -0.383 OA
HETATM   28  C   UNL     1     -39.625 -44.073  11.381  1.00  0.00     0.168 C 
HETATM   29  C   UNL     1     -40.264 -43.511  12.637  1.00  0.00     0.029 C 
HETATM   30  C   UNL     1     -41.672 -44.059  12.572  1.00  0.00     0.036 C 
ENDBRANCH  25  26
BRANCH  25  31
HETATM   31  O   UNL     1     -43.772 -44.041   9.552  1.00  0.00    -0.391 OA
HETATM   32  H   UNL     1     -44.510 -43.602  10.023  1.00  0.00     0.210 HD
ENDBRANCH  25  31
ENDBRANCH  24  25
ENDBRANCH   2  24
TORSDOF 6
ENDMDL
MODEL 6
REMARK VINA RESULT:      -6.8      2.361      2.967
REMARK  6 active torsions:
REMARK  status: ('A' for Active; 'I' for Inactive)
REMARK    1  A    between atoms: N_2  and  C_16 
REMARK    2  A    between atoms: C_6  and  N_7 
REMARK    3  A    between atoms: C_8  and  C_11 
REMARK       I    between atoms: C_11  and  N_24 
REMARK    4  A    between atoms: C_16  and  C_17 
REMARK    5  A    between atoms: C_17  and  C_22 
REMARK    6  A    between atoms: C_17  and  O_25 
ROOT
HETATM    1  C   UNL     1     -41.547 -51.018  13.754  1.00  0.00     0.117 A 
HETATM    2  N   UNL     1     -41.739 -52.636  15.219  1.00  0.00    -0.325 N 
HETATM    3  C   UNL     1     -41.527 -52.403  13.885  1.00  0.00     0.140 A 
HETATM    4  N   UNL     1     -41.803 -50.425  14.980  1.00  0.00    -0.346 N 
ATOM      5  HN  UNL     1     -41.891 -49.428  15.180  1.00  0.00     0.167 HD
HETATM    6  C   UNL     1     -41.268 -50.469  12.478  1.00  0.00     0.114 A 
HETATM    7  C   UNL     1     -41.907 -51.419  15.828  1.00  0.00     0.185 A 
HETATM    8  N   UNL     1     -41.300 -53.303  12.915  1.00  0.00    -0.336 N 
ATOM      9  HN  UNL     1     -41.295 -54.314  13.050  1.00  0.00     0.168 HD
HETATM   10  N   UNL     1     -41.047 -51.361  11.467  1.00  0.00    -0.341 N 
ATOM     11  HN  UNL     1     -40.859 -51.032  10.520  1.00  0.00     0.167 HD
HETATM   12  C   UNL     1     -41.080 -52.684  11.736  1.00  0.00     0.183 A 
ENDROOT
BRANCH   6  13
HETATM   13  N   UNL     1     -41.238 -49.103  12.196  1.00  0.00    -0.266 NA
HETATM   14  C   UNL     1     -42.483 -48.501  11.711  1.00  0.00     0.115 C 
HETATM   15  C   UNL     1     -42.053 -47.100  11.193  1.00  0.00     0.050 C 
HETATM   16  C   UNL     1     -42.588 -46.006  12.132  1.00  0.00     0.027 C 
HETATM   17  C   UNL     1     -40.508 -47.123  11.228  1.00  0.00     0.035 C 
HETATM   18  C   UNL     1     -40.135 -48.589  11.398  1.00  0.00     0.098 C 
BRANCH  15  19
HETATM   19  C   UNL     1     -42.574 -46.843   9.771  1.00  0.00     0.226 C 
HETATM   20  O   UNL     1     -42.675 -45.722   9.283  1.00  0.00    -0.273 OA
HETATM   21  N   UNL     1     -42.897 -47.983   9.060  1.00  0.00    -0.365 N 
HETATM   22  C   UNL     1     -43.347 -47.942   7.688  1.00  0.00     0.149 C 
HETATM   23  H   UNL     1     -42.774 -48.891   9.487  1.00  0.00     0.161 HD
ENDBRANCH  15  19
ENDBRANCH   6  13
BRANCH   2  24
HETATM   24  C   UNL     1     -41.589 -53.901  15.920  1.00  0.00     0.165 C 
BRANCH  24  25
HETATM   25  C   UNL     1     -42.914 -54.603  16.267  1.00  0.00     0.165 C 
BRANCH  25  26
HETATM   26  C   UNL     1     -44.079 -54.206  15.342  1.00  0.00     0.151 C 
HETATM   27  O   UNL     1     -45.330 -54.274  16.064  1.00  0.00    -0.383 OA
HETATM   28  C   UNL     1     -46.376 -54.538  15.110  1.00  0.00     0.168 C 
HETATM   29  C   UNL     1     -45.722 -54.662  13.747  1.00  0.00     0.029 C 
HETATM   30  C   UNL     1     -44.296 -55.029  14.090  1.00  0.00     0.036 C 
ENDBRANCH  25  26
BRANCH  25  31
HETATM   31  O   UNL     1     -42.762 -56.032  16.144  1.00  0.00    -0.391 OA
HETATM   32  H   UNL     1     -43.664 -56.413  16.150  1.00  0.00     0.210 HD
ENDBRANCH  25  31
ENDBRANCH  24  25
ENDBRANCH   2  24
TORSDOF 6
ENDMDL
MODEL 7
REMARK VINA RESULT:      -6.8      2.671      3.495
REMARK  6 active torsions:
REMARK  status: ('A' for Active; 'I' for Inactive)
REMARK    1  A    between atoms: N_2  and  C_16 
REMARK    2  A    between atoms: C_6  and  N_7 
REMARK    3  A    between atoms: C_8  and  C_11 
REMARK       I    between atoms: C_11  and  N_24 
REMARK    4  A    between atoms: C_16  and  C_17 
REMARK    5  A    between atoms: C_17  and  C_22 
REMARK    6  A    between atoms: C_17  and  O_25 
ROOT
HETATM    1  C   UNL     1     -40.490 -49.344  13.019  1.00  0.00     0.117 A 
HETATM    2  N   UNL     1     -40.555 -51.444  13.645  1.00  0.00    -0.325 N 
HETATM    3  C   UNL     1     -39.894 -50.583  12.807  1.00  0.00     0.140 A 
HETATM    4  N   UNL     1     -41.517 -49.459  13.943  1.00  0.00    -0.346 N 
ATOM      5  HN  UNL     1     -42.136 -48.719  14.278  1.00  0.00     0.167 HD
HETATM    6  C   UNL     1     -39.951 -48.223  12.340  1.00  0.00     0.114 A 
HETATM    7  C   UNL     1     -41.523 -50.721  14.295  1.00  0.00     0.185 A 
HETATM    8  N   UNL     1     -38.864 -50.854  11.989  1.00  0.00    -0.336 N 
ATOM      9  HN  UNL     1     -38.454 -51.779  11.858  1.00  0.00     0.168 HD
HETATM   10  N   UNL     1     -38.910 -48.471  11.490  1.00  0.00    -0.341 N 
ATOM     11  HN  UNL     1     -38.487 -47.711  10.957  1.00  0.00     0.167 HD
HETATM   12  C   UNL     1     -38.445 -49.733  11.365  1.00  0.00     0.183 A 
ENDROOT
BRANCH   6  13
HETATM   13  N   UNL     1     -40.430 -46.919  12.464  1.00  0.00    -0.266 NA
HETATM   14  C   UNL     1     -41.859 -46.714  12.210  1.00  0.00     0.115 C 
HETATM   15  C   UNL     1     -42.010 -45.170  12.107  1.00  0.00     0.050 C 
HETATM   16  C   UNL     1     -42.761 -44.634  13.337  1.00  0.00     0.027 C 
HETATM   17  C   UNL     1     -40.562 -44.632  12.088  1.00  0.00     0.035 C 
HETATM   18  C   UNL     1     -39.688 -45.848  11.817  1.00  0.00     0.098 C 
BRANCH  15  19
HETATM   19  C   UNL     1     -42.772 -44.765  10.836  1.00  0.00     0.226 C 
HETATM   20  O   UNL     1     -42.819 -43.613  10.417  1.00  0.00    -0.273 OA
HETATM   21  N   UNL     1     -43.382 -45.811  10.170  1.00  0.00    -0.365 N 
HETATM   22  C   UNL     1     -44.092 -45.632   8.926  1.00  0.00     0.149 C 
HETATM   23  H   UNL     1     -43.297 -46.752  10.532  1.00  0.00     0.161 HD
ENDBRANCH  15  19
ENDBRANCH   6  13
BRANCH   2  24
HETATM   24  C   UNL     1     -40.175 -52.807  13.973  1.00  0.00     0.165 C 
BRANCH  24  25
HETATM   25  C   UNL     1     -40.672 -53.870  12.976  1.00  0.00     0.165 C 
BRANCH  25  26
HETATM   26  C   UNL     1     -42.125 -54.315  13.227  1.00  0.00     0.151 C 
HETATM   27  O   UNL     1     -43.040 -53.410  12.568  1.00  0.00    -0.383 OA
HETATM   28  C   UNL     1     -44.282 -53.432  13.297  1.00  0.00     0.168 C 
HETATM   29  C   UNL     1     -44.100 -54.377  14.469  1.00  0.00     0.029 C 
HETATM   30  C   UNL     1     -42.600 -54.389  14.662  1.00  0.00     0.036 C 
ENDBRANCH  25  26
BRANCH  25  31
HETATM   31  O   UNL     1     -40.631 -53.344  11.634  1.00  0.00    -0.391 OA
HETATM   32  H   UNL     1     -40.304 -52.423  11.701  1.00  0.00     0.210 HD
ENDBRANCH  25  31
ENDBRANCH  24  25
ENDBRANCH   2  24
TORSDOF 6
ENDMDL
MODEL 8
REMARK VINA RESULT:      -6.8      2.212      9.226
REMARK  6 active torsions:
REMARK  status: ('A' for Active; 'I' for Inactive)
REMARK    1  A    between atoms: N_2  and  C_16 
REMARK    2  A    between atoms: C_6  and  N_7 
REMARK    3  A    between atoms: C_8  and  C_11 
REMARK       I    between atoms: C_11  and  N_24 
REMARK    4  A    between atoms: C_16  and  C_17 
REMARK    5  A    between atoms: C_17  and  C_22 
REMARK    6  A    between atoms: C_17  and  O_25 
ROOT
HETATM    1  C   UNL     1     -41.780 -49.002  11.815  1.00  0.00     0.117 A 
HETATM    2  N   UNL     1     -42.337 -47.110  10.861  1.00  0.00    -0.325 N 
HETATM    3  C   UNL     1     -41.253 -47.818  11.310  1.00  0.00     0.140 A 
HETATM    4  N   UNL     1     -43.162 -48.996  11.707  1.00  0.00    -0.346 N 
ATOM      5  HN  UNL     1     -43.811 -49.723  12.011  1.00  0.00     0.167 HD
HETATM    6  C   UNL     1     -40.873 -49.986  12.280  1.00  0.00     0.114 A 
HETATM    7  C   UNL     1     -43.456 -47.855  11.132  1.00  0.00     0.185 A 
HETATM    8  N   UNL     1     -39.956 -47.477  11.239  1.00  0.00    -0.336 N 
ATOM      9  HN  UNL     1     -39.607 -46.595  10.862  1.00  0.00     0.168 HD
HETATM   10  N   UNL     1     -39.547 -49.661  12.234  1.00  0.00    -0.341 N 
ATOM     11  HN  UNL     1     -38.842 -50.317  12.571  1.00  0.00     0.167 HD
HETATM   12  C   UNL     1     -39.178 -48.461  11.736  1.00  0.00     0.183 A 
ENDROOT
BRANCH   6  13
HETATM   13  N   UNL     1     -41.250 -51.225  12.799  1.00  0.00    -0.266 NA
HETATM   14  C   UNL     1     -40.584 -51.654  14.033  1.00  0.00     0.115 C 
HETATM   15  C   UNL     1     -40.962 -53.156  14.168  1.00  0.00     0.050 C 
HETATM   16  C   UNL     1     -41.944 -53.347  15.336  1.00  0.00     0.027 C 
HETATM   17  C   UNL     1     -41.649 -53.512  12.830  1.00  0.00     0.035 C 
HETATM   18  C   UNL     1     -41.315 -52.361  11.892  1.00  0.00     0.098 C 
BRANCH  15  19
HETATM   19  C   UNL     1     -39.720 -54.028  14.407  1.00  0.00     0.226 C 
HETATM   20  O   UNL     1     -38.786 -54.100  13.615  1.00  0.00    -0.273 OA
HETATM   21  N   UNL     1     -39.716 -54.711  15.608  1.00  0.00    -0.365 N 
HETATM   22  C   UNL     1     -38.607 -55.532  16.031  1.00  0.00     0.149 C 
HETATM   23  H   UNL     1     -40.493 -54.604  16.247  1.00  0.00     0.161 HD
ENDBRANCH  15  19
ENDBRANCH   6  13
BRANCH   2  24
HETATM   24  C   UNL     1     -42.320 -45.907  10.045  1.00  0.00     0.165 C 
BRANCH  24  25
HETATM   25  C   UNL     1     -42.616 -44.606  10.813  1.00  0.00     0.165 C 
BRANCH  25  26
HETATM   26  C   UNL     1     -41.355 -43.778  11.126  1.00  0.00     0.151 C 
HETATM   27  O   UNL     1     -40.537 -44.469  12.097  1.00  0.00    -0.383 OA
HETATM   28  C   UNL     1     -39.783 -43.479  12.823  1.00  0.00     0.168 C 
HETATM   29  C   UNL     1     -40.185 -42.121  12.280  1.00  0.00     0.029 C 
HETATM   30  C   UNL     1     -41.550 -42.385  11.686  1.00  0.00     0.036 C 
ENDBRANCH  25  26
BRANCH  25  31
HETATM   31  O   UNL     1     -43.479 -43.757  10.031  1.00  0.00    -0.391 OA
HETATM   32  H   UNL     1     -43.199 -43.852   9.098  1.00  0.00     0.210 HD
ENDBRANCH  25  31
ENDBRANCH  24  25
ENDBRANCH   2  24
TORSDOF 6
ENDMDL
MODEL 9
REMARK VINA RESULT:      -6.7      3.467      7.592
REMARK  6 active torsions:
REMARK  status: ('A' for Active; 'I' for Inactive)
REMARK    1  A    between atoms: N_2  and  C_16 
REMARK    2  A    between atoms: C_6  and  N_7 
REMARK    3  A    between atoms: C_8  and  C_11 
REMARK       I    between atoms: C_11  and  N_24 
REMARK    4  A    between atoms: C_16  and  C_17 
REMARK    5  A    between atoms: C_17  and  C_22 
REMARK    6  A    between atoms: C_17  and  O_25 
ROOT
HETATM    1  C   UNL     1     -42.938 -51.354  12.746  1.00  0.00     0.117 A 
HETATM    2  N   UNL     1     -41.719 -49.773  11.844  1.00  0.00    -0.325 N 
HETATM    3  C   UNL     1     -41.711 -51.112  12.138  1.00  0.00     0.140 A 
HETATM    4  N   UNL     1     -43.661 -50.177  12.853  1.00  0.00    -0.346 N 
ATOM      5  HN  UNL     1     -44.584 -50.051  13.270  1.00  0.00     0.167 HD
HETATM    6  C   UNL     1     -43.255 -52.692  13.091  1.00  0.00     0.114 A 
HETATM    7  C   UNL     1     -42.905 -49.258  12.302  1.00  0.00     0.185 A 
HETATM    8  N   UNL     1     -40.755 -52.013  11.861  1.00  0.00    -0.336 N 
ATOM      9  HN  UNL     1     -39.864 -51.796  11.413  1.00  0.00     0.168 HD
HETATM   10  N   UNL     1     -42.294 -53.629  12.833  1.00  0.00    -0.341 N 
ATOM     11  HN  UNL     1     -42.451 -54.608  13.073  1.00  0.00     0.167 HD
HETATM   12  C   UNL     1     -41.135 -53.246  12.256  1.00  0.00     0.183 A 
ENDROOT
BRANCH   6  13
HETATM   13  N   UNL     1     -44.449 -53.092  13.691  1.00  0.00    -0.266 NA
HETATM   14  C   UNL     1     -44.752 -52.516  15.005  1.00  0.00     0.115 C 
HETATM   15  C   UNL     1     -45.935 -53.376  15.533  1.00  0.00     0.050 C 
HETATM   16  C   UNL     1     -47.228 -52.545  15.533  1.00  0.00     0.027 C 
HETATM   17  C   UNL     1     -46.052 -54.546  14.530  1.00  0.00     0.035 C 
HETATM   18  C   UNL     1     -44.761 -54.512  13.726  1.00  0.00     0.098 C 
BRANCH  15  19
HETATM   19  C   UNL     1     -45.665 -53.887  16.956  1.00  0.00     0.226 C 
HETATM   20  O   UNL     1     -44.871 -54.787  17.209  1.00  0.00    -0.273 OA
HETATM   21  N   UNL     1     -46.368 -53.231  17.949  1.00  0.00    -0.365 N 
HETATM   22  C   UNL     1     -46.200 -53.534  19.350  1.00  0.00     0.149 C 
HETATM   23  H   UNL     1     -46.994 -52.475  17.703  1.00  0.00     0.161 HD
ENDBRANCH  15  19
ENDBRANCH   6  13
BRANCH   2  24
HETATM   24  C   UNL     1     -40.772 -49.055  11.007  1.00  0.00     0.165 C 
BRANCH  24  25
HETATM   25  C   UNL     1     -39.871 -48.062  11.763  1.00  0.00     0.165 C 
BRANCH  25  26
HETATM   26  C   UNL     1     -38.609 -48.711  12.360  1.00  0.00     0.151 C 
HETATM   27  O   UNL     1     -38.250 -49.887  11.601  1.00  0.00    -0.383 OA
HETATM   28  C   UNL     1     -37.545 -50.783  12.481  1.00  0.00     0.168 C 
HETATM   29  C   UNL     1     -37.499 -50.127  13.848  1.00  0.00     0.029 C 
HETATM   30  C   UNL     1     -38.669 -49.169  13.802  1.00  0.00     0.036 C 
ENDBRANCH  25  26
BRANCH  25  31
HETATM   31  O   UNL     1     -39.415 -47.029  10.866  1.00  0.00    -0.391 OA
HETATM   32  H   UNL     1     -39.651 -46.173  11.278  1.00  0.00     0.210 HD
ENDBRANCH  25  31
ENDBRANCH  24  25
ENDBRANCH   2  24
TORSDOF 6
ENDMDL
