MODEL 1
REMARK VINA RESULT:      -6.2      0.000      0.000
REMARK  5 active torsions:
REMARK  status: ('A' for Active; 'I' for Inactive)
REMARK    1  A    between atoms: C_2  and  C_4 
REMARK    2  A    between atoms: C_8  and  C_9 
REMARK    3  A    between atoms: C_9  and  N_10 
REMARK       I    between atoms: N_10  and  C_11 
REMARK    4  A    between atoms: C_11  and  C_13 
REMARK    5  A    between atoms: C_13  and  C_14 
ROOT
HETATM    1  N   UNL     1     -42.307 -50.739  12.111  1.00  0.00    -0.360 N 
HETATM    2  C   UNL     1     -42.414 -49.361  12.117  1.00  0.00     0.222 C 
HETATM    3  O   UNL     1     -42.966 -48.739  13.023  1.00  0.00    -0.273 OA
HETATM    4  H   UNL     1     -41.957 -51.190  11.276  1.00  0.00     0.162 HD
ENDROOT
BRANCH   2   5
HETATM    5  C   UNL     1     -41.760 -48.660  10.936  1.00  0.00     0.145 C 
BRANCH   5   6
HETATM    6  C   UNL     1     -42.135 -47.216  10.830  1.00  0.00    -0.002 A 
HETATM    7  C   UNL     1     -43.281 -46.655  10.196  1.00  0.00     0.030 A 
HETATM    8  C   UNL     1     -44.395 -47.340   9.491  1.00  0.00     0.070 C 
HETATM    9  N   UNL     1     -43.297 -45.323  10.292  1.00  0.00    -0.303 N 
HETATM   10  N   UNL     1     -42.197 -45.021  10.995  1.00  0.00    -0.300 N 
ATOM     11  HN  UNL     1     -43.991 -44.679   9.914  1.00  0.00     0.186 HD
HETATM   12  C   UNL     1     -41.893 -43.631  11.245  1.00  0.00     0.177 C 
HETATM   13  C   UNL     1     -41.483 -46.124  11.391  1.00  0.00     0.033 A 
HETATM   14  C   UNL     1     -40.284 -46.059  12.265  1.00  0.00     0.070 C 
ENDBRANCH   5   6
ENDBRANCH   2   5
BRANCH   1  15
HETATM   15  C   UNL     1     -42.927 -51.565  13.137  1.00  0.00     0.130 C 
BRANCH  15  16
HETATM   16  C   UNL     1     -43.622 -52.807  12.550  1.00  0.00     0.035 C 
HETATM   17  C   UNL     1     -45.103 -52.929  12.946  1.00  0.00     0.130 C 
HETATM   18  O   UNL     1     -45.084 -53.471  14.281  1.00  0.00    -0.385 OA
HETATM   19  C   UNL     1     -43.857 -54.200  14.459  1.00  0.00     0.168 C 
HETATM   20  C   UNL     1     -43.093 -54.100  13.154  1.00  0.00     0.035 C 
BRANCH  17  21
HETATM   21  C   UNL     1     -45.966 -51.655  12.890  1.00  0.00     0.007 C 
HETATM   22  C   UNL     1     -46.988 -51.721  11.753  1.00  0.00     0.012 C 
HETATM   23  C   UNL     1     -46.698 -51.409  14.215  1.00  0.00     0.012 C 
ENDBRANCH  17  21
ENDBRANCH  15  16
ENDBRANCH   1  15
TORSDOF 5
ENDMDL
MODEL 2
REMARK VINA RESULT:      -6.1      1.506      2.437
REMARK  5 active torsions:
REMARK  status: ('A' for Active; 'I' for Inactive)
REMARK    1  A    between atoms: C_2  and  C_4 
REMARK    2  A    between atoms: C_8  and  C_9 
REMARK    3  A    between atoms: C_9  and  N_10 
REMARK       I    between atoms: N_10  and  C_11 
REMARK    4  A    between atoms: C_11  and  C_13 
REMARK    5  A    between atoms: C_13  and  C_14 
ROOT
HETATM    1  N   UNL     1     -42.365 -50.806  12.195  1.00  0.00    -0.360 N 
HETATM    2  C   UNL     1     -40.998 -50.858  12.003  1.00  0.00     0.222 C 
HETATM    3  O   UNL     1     -40.273 -51.666  12.580  1.00  0.00    -0.273 OA
HETATM    4  H   UNL     1     -42.879 -50.035  11.789  1.00  0.00     0.162 HD
ENDROOT
BRANCH   2   5
HETATM    5  C   UNL     1     -40.452 -49.863  10.990  1.00  0.00     0.145 C 
BRANCH   5   6
HETATM    6  C   UNL     1     -40.703 -48.439  11.372  1.00  0.00    -0.002 A 
HETATM    7  C   UNL     1     -40.000 -47.654  12.330  1.00  0.00     0.030 A 
HETATM    8  C   UNL     1     -38.843 -48.028  13.185  1.00  0.00     0.070 C 
HETATM    9  N   UNL     1     -40.496 -46.417  12.417  1.00  0.00    -0.303 N 
HETATM   10  N   UNL     1     -41.489 -46.386  11.517  1.00  0.00    -0.300 N 
ATOM     11  HN  UNL     1     -40.189 -45.663  13.032  1.00  0.00     0.186 HD
HETATM   12  C   UNL     1     -42.270 -45.179  11.387  1.00  0.00     0.177 C 
HETATM   13  C   UNL     1     -41.628 -47.560  10.820  1.00  0.00     0.033 A 
HETATM   14  C   UNL     1     -42.587 -47.743   9.701  1.00  0.00     0.070 C 
ENDBRANCH   5   6
ENDBRANCH   2   5
BRANCH   1  15
HETATM   15  C   UNL     1     -43.040 -51.650  13.171  1.00  0.00     0.130 C 
BRANCH  15  16
HETATM   16  C   UNL     1     -43.733 -52.861  12.521  1.00  0.00     0.035 C 
HETATM   17  C   UNL     1     -45.230 -52.968  12.856  1.00  0.00     0.130 C 
HETATM   18  O   UNL     1     -45.273 -53.548  14.174  1.00  0.00    -0.385 OA
HETATM   19  C   UNL     1     -44.066 -54.304  14.377  1.00  0.00     0.168 C 
HETATM   20  C   UNL     1     -43.249 -54.180  13.107  1.00  0.00     0.035 C 
BRANCH  17  21
HETATM   21  C   UNL     1     -46.068 -51.677  12.805  1.00  0.00     0.007 C 
HETATM   22  C   UNL     1     -47.099 -51.724  11.675  1.00  0.00     0.012 C 
HETATM   23  C   UNL     1     -46.787 -51.417  14.134  1.00  0.00     0.012 C 
ENDBRANCH  17  21
ENDBRANCH  15  16
ENDBRANCH   1  15
TORSDOF 5
ENDMDL
MODEL 3
REMARK VINA RESULT:      -6.1      1.629      1.995
REMARK  5 active torsions:
REMARK  status: ('A' for Active; 'I' for Inactive)
REMARK    1  A    between atoms: C_2  and  C_4 
REMARK    2  A    between atoms: C_8  and  C_9 
REMARK    3  A    between atoms: C_9  and  N_10 
REMARK       I    between atoms: N_10  and  C_11 
REMARK    4  A    between atoms: C_11  and  C_13 
REMARK    5  A    between atoms: C_13  and  C_14 
ROOT
HETATM    1  N   UNL     1     -42.285 -50.803  12.171  1.00  0.00    -0.360 N 
HETATM    2  C   UNL     1     -40.915 -50.922  12.033  1.00  0.00     0.222 C 
HETATM    3  O   UNL     1     -40.251 -51.750  12.653  1.00  0.00    -0.273 OA
HETATM    4  H   UNL     1     -42.747 -50.018  11.730  1.00  0.00     0.162 HD
ENDROOT
BRANCH   2   5
HETATM    5  C   UNL     1     -40.286 -49.975  11.021  1.00  0.00     0.145 C 
BRANCH   5   6
HETATM    6  C   UNL     1     -40.402 -48.536  11.413  1.00  0.00    -0.002 A 
HETATM    7  C   UNL     1     -41.341 -47.575  10.940  1.00  0.00     0.030 A 
HETATM    8  C   UNL     1     -42.442 -47.740   9.956  1.00  0.00     0.070 C 
HETATM    9  N   UNL     1     -41.153 -46.380  11.507  1.00  0.00    -0.303 N 
HETATM   10  N   UNL     1     -40.128 -46.562  12.351  1.00  0.00    -0.300 N 
ATOM     11  HN  UNL     1     -41.673 -45.520  11.335  1.00  0.00     0.186 HD
HETATM   12  C   UNL     1     -39.641 -45.431  13.105  1.00  0.00     0.177 C 
HETATM   13  C   UNL     1     -39.666 -47.854  12.375  1.00  0.00     0.033 A 
HETATM   14  C   UNL     1     -38.608 -48.333  13.301  1.00  0.00     0.070 C 
ENDBRANCH   5   6
ENDBRANCH   2   5
BRANCH   1  15
HETATM   15  C   UNL     1     -43.034 -51.594  13.136  1.00  0.00     0.130 C 
BRANCH  15  16
HETATM   16  C   UNL     1     -43.708 -52.821  12.495  1.00  0.00     0.035 C 
HETATM   17  C   UNL     1     -45.202 -52.952  12.835  1.00  0.00     0.130 C 
HETATM   18  O   UNL     1     -45.231 -53.525  14.156  1.00  0.00    -0.385 OA
HETATM   19  C   UNL     1     -44.011 -54.259  14.360  1.00  0.00     0.168 C 
HETATM   20  C   UNL     1     -43.200 -54.128  13.087  1.00  0.00     0.035 C 
BRANCH  17  21
HETATM   21  C   UNL     1     -46.062 -51.676  12.778  1.00  0.00     0.007 C 
HETATM   22  C   UNL     1     -47.100 -51.751  11.656  1.00  0.00     0.012 C 
HETATM   23  C   UNL     1     -46.775 -51.415  14.110  1.00  0.00     0.012 C 
ENDBRANCH  17  21
ENDBRANCH  15  16
ENDBRANCH   1  15
TORSDOF 5
ENDMDL
MODEL 4
REMARK VINA RESULT:      -5.7      3.822      4.807
REMARK  5 active torsions:
REMARK  status: ('A' for Active; 'I' for Inactive)
REMARK    1  A    between atoms: C_2  and  C_4 
REMARK    2  A    between atoms: C_8  and  C_9 
REMARK    3  A    between atoms: C_9  and  N_10 
REMARK       I    between atoms: N_10  and  C_11 
REMARK    4  A    between atoms: C_11  and  C_13 
REMARK    5  A    between atoms: C_13  and  C_14 
ROOT
HETATM    1  N   UNL     1     -42.675 -52.144  12.113  1.00  0.00    -0.360 N 
HETATM    2  C   UNL     1     -41.297 -52.146  12.004  1.00  0.00     0.222 C 
HETATM    3  O   UNL     1     -40.622 -53.169  12.105  1.00  0.00    -0.273 OA
HETATM    4  H   UNL     1     -43.153 -51.253  12.150  1.00  0.00     0.162 HD
ENDROOT
BRANCH   2   5
HETATM    5  C   UNL     1     -40.673 -50.791  11.709  1.00  0.00     0.145 C 
BRANCH   5   6
HETATM    6  C   UNL     1     -39.986 -50.190  12.893  1.00  0.00    -0.002 A 
HETATM    7  C   UNL     1     -40.582 -49.549  14.017  1.00  0.00     0.030 A 
HETATM    8  C   UNL     1     -42.020 -49.317  14.314  1.00  0.00     0.070 C 
HETATM    9  N   UNL     1     -39.664 -49.128  14.891  1.00  0.00    -0.303 N 
HETATM   10  N   UNL     1     -38.493 -49.507  14.362  1.00  0.00    -0.300 N 
ATOM     11  HN  UNL     1     -39.820 -48.628  15.767  1.00  0.00     0.186 HD
HETATM   12  C   UNL     1     -37.274 -49.161  15.054  1.00  0.00     0.177 C 
HETATM   13  C   UNL     1     -38.626 -50.196  13.182  1.00  0.00     0.033 A 
HETATM   14  C   UNL     1     -37.486 -50.809  12.454  1.00  0.00     0.070 C 
ENDBRANCH   5   6
ENDBRANCH   2   5
BRANCH   1  15
HETATM   15  C   UNL     1     -43.424 -53.346  12.450  1.00  0.00     0.130 C 
BRANCH  15  16
HETATM   16  C   UNL     1     -44.222 -53.193  13.758  1.00  0.00     0.035 C 
HETATM   17  C   UNL     1     -43.741 -54.121  14.886  1.00  0.00     0.130 C 
HETATM   18  O   UNL     1     -44.325 -55.403  14.584  1.00  0.00    -0.385 OA
HETATM   19  C   UNL     1     -45.509 -55.188  13.796  1.00  0.00     0.168 C 
HETATM   20  C   UNL     1     -45.653 -53.690  13.617  1.00  0.00     0.035 C 
BRANCH  17  21
HETATM   21  C   UNL     1     -42.222 -54.256  15.102  1.00  0.00     0.007 C 
HETATM   22  C   UNL     1     -41.619 -52.962  15.653  1.00  0.00     0.012 C 
HETATM   23  C   UNL     1     -41.886 -55.414  16.050  1.00  0.00     0.012 C 
ENDBRANCH  17  21
ENDBRANCH  15  16
ENDBRANCH   1  15
TORSDOF 5
ENDMDL
MODEL 5
REMARK VINA RESULT:      -5.7      3.666      6.935
REMARK  5 active torsions:
REMARK  status: ('A' for Active; 'I' for Inactive)
REMARK    1  A    between atoms: C_2  and  C_4 
REMARK    2  A    between atoms: C_8  and  C_9 
REMARK    3  A    between atoms: C_9  and  N_10 
REMARK       I    between atoms: N_10  and  C_11 
REMARK    4  A    between atoms: C_11  and  C_13 
REMARK    5  A    between atoms: C_13  and  C_14 
ROOT
HETATM    1  N   UNL     1     -42.858 -52.611  12.108  1.00  0.00    -0.360 N 
HETATM    2  C   UNL     1     -43.153 -53.633  12.991  1.00  0.00     0.222 C 
HETATM    3  O   UNL     1     -42.304 -54.165  13.703  1.00  0.00    -0.273 OA
HETATM    4  H   UNL     1     -43.577 -52.311  11.463  1.00  0.00     0.162 HD
ENDROOT
BRANCH   2   5
HETATM    5  C   UNL     1     -44.621 -54.030  13.048  1.00  0.00     0.145 C 
BRANCH   5   6
HETATM    6  C   UNL     1     -45.454 -53.082  13.851  1.00  0.00    -0.002 A 
HETATM    7  C   UNL     1     -46.343 -52.077  13.371  1.00  0.00     0.030 A 
HETATM    8  C   UNL     1     -46.682 -51.713  11.971  1.00  0.00     0.070 C 
HETATM    9  N   UNL     1     -46.923 -51.411  14.373  1.00  0.00    -0.303 N 
HETATM   10  N   UNL     1     -46.443 -51.985  15.484  1.00  0.00    -0.300 N 
ATOM     11  HN  UNL     1     -47.585 -50.638  14.306  1.00  0.00     0.186 HD
HETATM   12  C   UNL     1     -46.851 -51.461  16.767  1.00  0.00     0.177 C 
HETATM   13  C   UNL     1     -45.591 -53.031  15.233  1.00  0.00     0.033 A 
HETATM   14  C   UNL     1     -45.009 -53.891  16.295  1.00  0.00     0.070 C 
ENDBRANCH   5   6
ENDBRANCH   2   5
BRANCH   1  15
HETATM   15  C   UNL     1     -41.495 -52.151  11.890  1.00  0.00     0.130 C 
BRANCH  15  16
HETATM   16  C   UNL     1     -41.382 -50.616  11.915  1.00  0.00     0.035 C 
HETATM   17  C   UNL     1     -40.122 -50.102  12.631  1.00  0.00     0.130 C 
HETATM   18  O   UNL     1     -40.435 -50.183  14.035  1.00  0.00    -0.385 OA
HETATM   19  C   UNL     1     -41.864 -50.115  14.186  1.00  0.00     0.168 C 
HETATM   20  C   UNL     1     -42.448 -49.978  12.794  1.00  0.00     0.035 C 
BRANCH  17  21
HETATM   21  C   UNL     1     -38.789 -50.813  12.331  1.00  0.00     0.007 C 
HETATM   22  C   UNL     1     -37.791 -49.869  11.656  1.00  0.00     0.012 C 
HETATM   23  C   UNL     1     -38.158 -51.391  13.603  1.00  0.00     0.012 C 
ENDBRANCH  17  21
ENDBRANCH  15  16
ENDBRANCH   1  15
TORSDOF 5
ENDMDL
MODEL 6
REMARK VINA RESULT:      -5.7      1.552      2.260
REMARK  5 active torsions:
REMARK  status: ('A' for Active; 'I' for Inactive)
REMARK    1  A    between atoms: C_2  and  C_4 
REMARK    2  A    between atoms: C_8  and  C_9 
REMARK    3  A    between atoms: C_9  and  N_10 
REMARK       I    between atoms: N_10  and  C_11 
REMARK    4  A    between atoms: C_11  and  C_13 
REMARK    5  A    between atoms: C_13  and  C_14 
ROOT
HETATM    1  N   UNL     1     -43.468 -50.671  13.019  1.00  0.00    -0.360 N 
HETATM    2  C   UNL     1     -42.862 -49.464  12.727  1.00  0.00     0.222 C 
HETATM    3  O   UNL     1     -43.012 -48.459  13.418  1.00  0.00    -0.273 OA
HETATM    4  H   UNL     1     -43.405 -51.418  12.339  1.00  0.00     0.162 HD
ENDROOT
BRANCH   2   5
HETATM    5  C   UNL     1     -41.957 -49.477  11.505  1.00  0.00     0.145 C 
BRANCH   5   6
HETATM    6  C   UNL     1     -41.624 -48.107  11.006  1.00  0.00    -0.002 A 
HETATM    7  C   UNL     1     -42.388 -47.289  10.124  1.00  0.00     0.030 A 
HETATM    8  C   UNL     1     -43.699 -47.567   9.483  1.00  0.00     0.070 C 
HETATM    9  N   UNL     1     -41.787 -46.120   9.889  1.00  0.00    -0.303 N 
HETATM   10  N   UNL     1     -40.665 -46.163  10.621  1.00  0.00    -0.300 N 
ATOM     11  HN  UNL     1     -42.109 -45.363   9.287  1.00  0.00     0.186 HD
HETATM   12  C   UNL     1     -39.752 -45.045  10.557  1.00  0.00     0.177 C 
HETATM   13  C   UNL     1     -40.537 -47.315  11.355  1.00  0.00     0.033 A 
HETATM   14  C   UNL     1     -39.435 -47.558  12.321  1.00  0.00     0.070 C 
ENDBRANCH   5   6
ENDBRANCH   2   5
BRANCH   1  15
HETATM   15  C   UNL     1     -44.409 -50.816  14.120  1.00  0.00     0.130 C 
BRANCH  15  16
HETATM   16  C   UNL     1     -45.806 -51.255  13.645  1.00  0.00     0.035 C 
HETATM   17  C   UNL     1     -46.639 -51.949  14.736  1.00  0.00     0.130 C 
HETATM   18  O   UNL     1     -46.140 -53.300  14.779  1.00  0.00    -0.385 OA
HETATM   19  C   UNL     1     -45.568 -53.613  13.497  1.00  0.00     0.168 C 
HETATM   20  C   UNL     1     -45.736 -52.384  12.627  1.00  0.00     0.035 C 
BRANCH  17  21
HETATM   21  C   UNL     1     -46.635 -51.324  16.144  1.00  0.00     0.007 C 
HETATM   22  C   UNL     1     -48.057 -51.133  16.675  1.00  0.00     0.012 C 
HETATM   23  C   UNL     1     -45.834 -52.174  17.137  1.00  0.00     0.012 C 
ENDBRANCH  17  21
ENDBRANCH  15  16
ENDBRANCH   1  15
TORSDOF 5
ENDMDL
MODEL 7
REMARK VINA RESULT:      -5.7      2.666      7.651
REMARK  5 active torsions:
REMARK  status: ('A' for Active; 'I' for Inactive)
REMARK    1  A    between atoms: C_2  and  C_4 
REMARK    2  A    between atoms: C_8  and  C_9 
REMARK    3  A    between atoms: C_9  and  N_10 
REMARK       I    between atoms: N_10  and  C_11 
REMARK    4  A    between atoms: C_11  and  C_13 
REMARK    5  A    between atoms: C_13  and  C_14 
ROOT
HETATM    1  N   UNL     1     -40.923 -50.232  11.183  1.00  0.00    -0.360 N 
HETATM    2  C   UNL     1     -41.102 -51.108  12.237  1.00  0.00     0.222 C 
HETATM    3  O   UNL     1     -41.078 -50.751  13.413  1.00  0.00    -0.273 OA
HETATM    4  H   UNL     1     -40.826 -50.614  10.251  1.00  0.00     0.162 HD
ENDROOT
BRANCH   2   5
HETATM    5  C   UNL     1     -41.373 -52.550  11.835  1.00  0.00     0.145 C 
BRANCH   5   6
HETATM    6  C   UNL     1     -41.930 -53.375  12.952  1.00  0.00    -0.002 A 
HETATM    7  C   UNL     1     -43.298 -53.660  13.230  1.00  0.00     0.030 A 
HETATM    8  C   UNL     1     -44.516 -53.230  12.495  1.00  0.00     0.070 C 
HETATM    9  N   UNL     1     -43.433 -54.431  14.312  1.00  0.00    -0.303 N 
HETATM   10  N   UNL     1     -42.178 -54.667  14.718  1.00  0.00    -0.300 N 
ATOM     11  HN  UNL     1     -44.298 -54.767  14.734  1.00  0.00     0.186 HD
HETATM   12  C   UNL     1     -41.971 -55.453  15.912  1.00  0.00     0.177 C 
HETATM   13  C   UNL     1     -41.227 -54.097  13.909  1.00  0.00     0.033 A 
HETATM   14  C   UNL     1     -39.766 -54.297  14.088  1.00  0.00     0.070 C 
ENDBRANCH   5   6
ENDBRANCH   2   5
BRANCH   1  15
HETATM   15  C   UNL     1     -40.598 -48.829  11.393  1.00  0.00     0.130 C 
BRANCH  15  16
HETATM   16  C   UNL     1     -41.502 -47.888  10.577  1.00  0.00     0.035 C 
HETATM   17  C   UNL     1     -41.305 -46.400  10.911  1.00  0.00     0.130 C 
HETATM   18  O   UNL     1     -42.050 -46.193  12.127  1.00  0.00    -0.385 OA
HETATM   19  C   UNL     1     -43.089 -47.185  12.198  1.00  0.00     0.168 C 
HETATM   20  C   UNL     1     -42.970 -48.037  10.950  1.00  0.00     0.035 C 
BRANCH  17  21
HETATM   21  C   UNL     1     -39.862 -45.886  11.066  1.00  0.00     0.007 C 
HETATM   22  C   UNL     1     -39.494 -44.906   9.950  1.00  0.00     0.012 C 
HETATM   23  C   UNL     1     -39.645 -45.210  12.425  1.00  0.00     0.012 C 
ENDBRANCH  17  21
ENDBRANCH  15  16
ENDBRANCH   1  15
TORSDOF 5
ENDMDL
MODEL 8
REMARK VINA RESULT:      -5.6      2.820      7.164
REMARK  5 active torsions:
REMARK  status: ('A' for Active; 'I' for Inactive)
REMARK    1  A    between atoms: C_2  and  C_4 
REMARK    2  A    between atoms: C_8  and  C_9 
REMARK    3  A    between atoms: C_9  and  N_10 
REMARK       I    between atoms: N_10  and  C_11 
REMARK    4  A    between atoms: C_11  and  C_13 
REMARK    5  A    between atoms: C_13  and  C_14 
ROOT
HETATM    1  N   UNL     1     -41.556 -50.573  11.399  1.00  0.00    -0.360 N 
HETATM    2  C   UNL     1     -40.918 -51.331  12.362  1.00  0.00     0.222 C 
HETATM    3  O   UNL     1     -40.405 -50.840  13.365  1.00  0.00    -0.273 OA
HETATM    4  H   UNL     1     -41.840 -51.026  10.540  1.00  0.00     0.162 HD
ENDROOT
BRANCH   2   5
HETATM    5  C   UNL     1     -40.931 -52.832  12.112  1.00  0.00     0.145 C 
BRANCH   5   6
HETATM    6  C   UNL     1     -41.639 -53.599  13.183  1.00  0.00    -0.002 A 
HETATM    7  C   UNL     1     -43.037 -53.847  13.301  1.00  0.00     0.030 A 
HETATM    8  C   UNL     1     -44.145 -53.428  12.405  1.00  0.00     0.070 C 
HETATM    9  N   UNL     1     -43.320 -54.570  14.388  1.00  0.00    -0.303 N 
HETATM   10  N   UNL     1     -42.130 -54.810  14.955  1.00  0.00    -0.300 N 
ATOM     11  HN  UNL     1     -44.238 -54.872  14.713  1.00  0.00     0.186 HD
HETATM   12  C   UNL     1     -42.090 -55.549  16.195  1.00  0.00     0.177 C 
HETATM   13  C   UNL     1     -41.075 -54.292  14.247  1.00  0.00     0.033 A 
HETATM   14  C   UNL     1     -39.652 -54.510  14.613  1.00  0.00     0.070 C 
ENDBRANCH   5   6
ENDBRANCH   2   5
BRANCH   1  15
HETATM   15  C   UNL     1     -41.585 -49.119  11.456  1.00  0.00     0.130 C 
BRANCH  15  16
HETATM   16  C   UNL     1     -42.835 -48.584  12.179  1.00  0.00     0.035 C 
HETATM   17  C   UNL     1     -43.488 -47.383  11.475  1.00  0.00     0.130 C 
HETATM   18  O   UNL     1     -42.684 -46.250  11.856  1.00  0.00    -0.385 OA
HETATM   19  C   UNL     1     -42.044 -46.547  13.109  1.00  0.00     0.168 C 
HETATM   20  C   UNL     1     -42.492 -47.938  13.513  1.00  0.00     0.035 C 
BRANCH  17  21
HETATM   21  C   UNL     1     -43.642 -47.448   9.944  1.00  0.00     0.007 C 
HETATM   22  C   UNL     1     -45.114 -47.525   9.533  1.00  0.00     0.012 C 
HETATM   23  C   UNL     1     -42.987 -46.244   9.258  1.00  0.00     0.012 C 
ENDBRANCH  17  21
ENDBRANCH  15  16
ENDBRANCH   1  15
TORSDOF 5
ENDMDL
MODEL 9
REMARK VINA RESULT:      -5.5      1.764      3.397
REMARK  5 active torsions:
REMARK  status: ('A' for Active; 'I' for Inactive)
REMARK    1  A    between atoms: C_2  and  C_4 
REMARK    2  A    between atoms: C_8  and  C_9 
REMARK    3  A    between atoms: C_9  and  N_10 
REMARK       I    between atoms: N_10  and  C_11 
REMARK    4  A    between atoms: C_11  and  C_13 
REMARK    5  A    between atoms: C_13  and  C_14 
ROOT
HETATM    1  N   UNL     1     -43.590 -51.200  12.767  1.00  0.00    -0.360 N 
HETATM    2  C   UNL     1     -42.873 -50.018  12.804  1.00  0.00     0.222 C 
HETATM    3  O   UNL     1     -43.242 -49.036  13.444  1.00  0.00    -0.273 OA
HETATM    4  H   UNL     1     -43.296 -51.920  12.119  1.00  0.00     0.162 HD
ENDROOT
BRANCH   2   5
HETATM    5  C   UNL     1     -41.567 -50.034  12.025  1.00  0.00     0.145 C 
BRANCH   5   6
HETATM    6  C   UNL     1     -41.006 -48.666  11.794  1.00  0.00    -0.002 A 
HETATM    7  C   UNL     1     -39.883 -48.063  12.431  1.00  0.00     0.030 A 
HETATM    8  C   UNL     1     -38.979 -48.621  13.470  1.00  0.00     0.070 C 
HETATM    9  N   UNL     1     -39.665 -46.825  11.979  1.00  0.00    -0.303 N 
HETATM   10  N   UNL     1     -40.609 -46.632  11.048  1.00  0.00    -0.300 N 
ATOM     11  HN  UNL     1     -38.940 -46.172  12.276  1.00  0.00     0.186 HD
HETATM   12  C   UNL     1     -40.676 -45.353  10.382  1.00  0.00     0.177 C 
HETATM   13  C   UNL     1     -41.417 -47.726  10.857  1.00  0.00     0.033 A 
HETATM   14  C   UNL     1     -42.470 -47.798   9.812  1.00  0.00     0.070 C 
ENDBRANCH   5   6
ENDBRANCH   2   5
BRANCH   1  15
HETATM   15  C   UNL     1     -44.888 -51.336  13.411  1.00  0.00     0.130 C 
BRANCH  15  16
HETATM   16  C   UNL     1     -44.769 -51.720  14.896  1.00  0.00     0.035 C 
HETATM   17  C   UNL     1     -45.091 -53.197  15.179  1.00  0.00     0.130 C 
HETATM   18  O   UNL     1     -46.530 -53.265  15.193  1.00  0.00    -0.385 OA
HETATM   19  C   UNL     1     -47.044 -51.966  15.534  1.00  0.00     0.168 C 
HETATM   20  C   UNL     1     -45.847 -51.061  15.746  1.00  0.00     0.035 C 
BRANCH  17  21
HETATM   21  C   UNL     1     -44.507 -54.252  14.221  1.00  0.00     0.007 C 
HETATM   22  C   UNL     1     -43.341 -55.006  14.863  1.00  0.00     0.012 C 
HETATM   23  C   UNL     1     -45.573 -55.258  13.770  1.00  0.00     0.012 C 
ENDBRANCH  17  21
ENDBRANCH  15  16
ENDBRANCH   1  15
TORSDOF 5
ENDMDL
