MODEL 1
REMARK VINA RESULT:      -5.0      0.000      0.000
REMARK  3 active torsions:
REMARK  status: ('A' for Active; 'I' for Inactive)
REMARK    1  A    between atoms: N_2  and  C_4 
REMARK    2  A    between atoms: C_7  and  N_8 
REMARK       I    between atoms: N_8  and  C_9 
REMARK    3  A    between atoms: C_9  and  C_11 
ROOT
HETATM    1  C   UNL     1     -40.361 -46.450  10.964  1.00  0.00     0.102 A 
HETATM    2  C   UNL     1     -39.709 -47.222  11.924  1.00  0.00     0.050 A 
HETATM    3  C   UNL     1     -40.069 -48.553  12.134  1.00  0.00     0.035 A 
HETATM    4  C   UNL     1     -41.076 -49.137  11.381  1.00  0.00     0.050 A 
HETATM    5  C   UNL     1     -41.659 -48.321  10.419  1.00  0.00     0.119 A 
HETATM    6  N   UNL     1     -41.326 -47.015  10.199  1.00  0.00    -0.350 N 
ATOM      7  HN  UNL     1     -41.795 -46.474   9.472  1.00  0.00     0.166 HD
ENDROOT
BRANCH   4   8
HETATM    8  N   UNL     1     -41.479 -50.485  11.543  1.00  0.00    -0.324 N 
HETATM    9  C   UNL     1     -42.357 -50.943  12.508  1.00  0.00     0.251 C 
HETATM   10  O   UNL     1     -42.996 -50.246  13.294  1.00  0.00    -0.270 OA
HETATM   11  H   UNL     1     -41.145 -51.179  10.878  1.00  0.00     0.169 HD
BRANCH   9  12
HETATM   12  C   UNL     1     -42.520 -52.464  12.551  1.00  0.00     0.213 C 
HETATM   13  C   UNL     1     -44.001 -52.824  12.526  1.00  0.00     0.044 C 
HETATM   14  C   UNL     1     -44.090 -54.127  13.290  1.00  0.00     0.029 C 
HETATM   15  C   UNL     1     -42.658 -54.427  13.681  1.00  0.00     0.168 C 
HETATM   16  O   UNL     1     -41.983 -53.158  13.676  1.00  0.00    -0.376 OA
ENDBRANCH   9  12
ENDBRANCH   4   8
BRANCH   1  17
HETATM   17  N   UNL     1     -39.993 -45.111  10.765  1.00  0.00    -0.376 N 
HETATM   18  C   UNL     1     -39.194 -44.864   9.572  1.00  0.00     0.150 C 
HETATM   19  C   UNL     1     -40.993 -44.101  11.099  1.00  0.00     0.150 C 
ENDBRANCH   1  17
TORSDOF 3
ENDMDL
MODEL 2
REMARK VINA RESULT:      -5.0      2.097      2.823
REMARK  3 active torsions:
REMARK  status: ('A' for Active; 'I' for Inactive)
REMARK    1  A    between atoms: N_2  and  C_4 
REMARK    2  A    between atoms: C_7  and  N_8 
REMARK       I    between atoms: N_8  and  C_9 
REMARK    3  A    between atoms: C_9  and  C_11 
ROOT
HETATM    1  C   UNL     1     -42.328 -47.842  10.783  1.00  0.00     0.102 A 
HETATM    2  C   UNL     1     -42.901 -48.388  11.931  1.00  0.00     0.050 A 
HETATM    3  C   UNL     1     -42.442 -49.597  12.451  1.00  0.00     0.035 A 
HETATM    4  C   UNL     1     -41.397 -50.274  11.840  1.00  0.00     0.050 A 
HETATM    5  C   UNL     1     -40.850 -49.656  10.722  1.00  0.00     0.119 A 
HETATM    6  N   UNL     1     -41.287 -48.475  10.193  1.00  0.00    -0.350 N 
ATOM      7  HN  UNL     1     -40.836 -48.077   9.369  1.00  0.00     0.166 HD
ENDROOT
BRANCH   4   8
HETATM    8  N   UNL     1     -40.883 -51.501  12.327  1.00  0.00    -0.324 N 
HETATM    9  C   UNL     1     -41.604 -52.675  12.447  1.00  0.00     0.251 C 
HETATM   10  O   UNL     1     -42.755 -52.860  12.055  1.00  0.00    -0.270 OA
HETATM   11  H   UNL     1     -39.895 -51.557  12.568  1.00  0.00     0.169 HD
BRANCH   9  12
HETATM   12  C   UNL     1     -40.849 -53.820  13.125  1.00  0.00     0.213 C 
HETATM   13  C   UNL     1     -41.500 -54.144  14.465  1.00  0.00     0.044 C 
HETATM   14  C   UNL     1     -40.368 -54.659  15.326  1.00  0.00     0.029 C 
HETATM   15  C   UNL     1     -39.159 -54.609  14.416  1.00  0.00     0.168 C 
HETATM   16  O   UNL     1     -39.467 -53.623  13.418  1.00  0.00    -0.376 OA
ENDBRANCH   9  12
ENDBRANCH   4   8
BRANCH   1  17
HETATM   17  N   UNL     1     -42.802 -46.626  10.267  1.00  0.00    -0.376 N 
HETATM   18  C   UNL     1     -41.975 -45.466  10.569  1.00  0.00     0.150 C 
HETATM   19  C   UNL     1     -43.400 -46.669   8.936  1.00  0.00     0.150 C 
ENDBRANCH   1  17
TORSDOF 3
ENDMDL
MODEL 3
REMARK VINA RESULT:      -5.0      1.238      1.649
REMARK  3 active torsions:
REMARK  status: ('A' for Active; 'I' for Inactive)
REMARK    1  A    between atoms: N_2  and  C_4 
REMARK    2  A    between atoms: C_7  and  N_8 
REMARK       I    between atoms: N_8  and  C_9 
REMARK    3  A    between atoms: C_9  and  C_11 
ROOT
HETATM    1  C   UNL     1     -41.539 -46.613  10.929  1.00  0.00     0.102 A 
HETATM    2  C   UNL     1     -42.640 -46.869  11.743  1.00  0.00     0.050 A 
HETATM    3  C   UNL     1     -42.954 -48.171  12.130  1.00  0.00     0.035 A 
HETATM    4  C   UNL     1     -42.166 -49.236  11.720  1.00  0.00     0.050 A 
HETATM    5  C   UNL     1     -41.065 -48.905  10.940  1.00  0.00     0.119 A 
HETATM    6  N   UNL     1     -40.742 -47.638  10.546  1.00  0.00    -0.350 N 
ATOM      7  HN  UNL     1     -39.915 -47.468   9.973  1.00  0.00     0.166 HD
ENDROOT
BRANCH   4   8
HETATM    8  N   UNL     1     -42.430 -50.579  12.087  1.00  0.00    -0.324 N 
HETATM    9  C   UNL     1     -41.802 -51.262  13.112  1.00  0.00     0.251 C 
HETATM   10  O   UNL     1     -41.007 -50.784  13.919  1.00  0.00    -0.270 OA
HETATM   11  H   UNL     1     -43.171 -51.081  11.603  1.00  0.00     0.169 HD
BRANCH   9  12
HETATM   12  C   UNL     1     -42.177 -52.742  13.214  1.00  0.00     0.213 C 
HETATM   13  C   UNL     1     -43.484 -52.995  12.472  1.00  0.00     0.044 C 
HETATM   14  C   UNL     1     -44.122 -54.153  13.207  1.00  0.00     0.029 C 
HETATM   15  C   UNL     1     -43.132 -54.490  14.301  1.00  0.00     0.168 C 
HETATM   16  O   UNL     1     -42.373 -53.289  14.517  1.00  0.00    -0.376 OA
ENDBRANCH   9  12
ENDBRANCH   4   8
BRANCH   1  17
HETATM   17  N   UNL     1     -41.235 -45.298  10.542  1.00  0.00    -0.376 N 
HETATM   18  C   UNL     1     -42.026 -44.267  11.200  1.00  0.00     0.150 C 
HETATM   19  C   UNL     1     -39.827 -44.992  10.313  1.00  0.00     0.150 C 
ENDBRANCH   1  17
TORSDOF 3
ENDMDL
MODEL 4
REMARK VINA RESULT:      -4.9      3.675      5.433
REMARK  3 active torsions:
REMARK  status: ('A' for Active; 'I' for Inactive)
REMARK    1  A    between atoms: N_2  and  C_4 
REMARK    2  A    between atoms: C_7  and  N_8 
REMARK       I    between atoms: N_8  and  C_9 
REMARK    3  A    between atoms: C_9  and  C_11 
ROOT
HETATM    1  C   UNL     1     -42.616 -47.443   9.790  1.00  0.00     0.102 A 
HETATM    2  C   UNL     1     -41.885 -46.311  10.143  1.00  0.00     0.050 A 
HETATM    3  C   UNL     1     -40.792 -46.407  11.004  1.00  0.00     0.035 A 
HETATM    4  C   UNL     1     -40.405 -47.637  11.515  1.00  0.00     0.050 A 
HETATM    5  C   UNL     1     -41.156 -48.728  11.093  1.00  0.00     0.119 A 
HETATM    6  N   UNL     1     -42.232 -48.656  10.256  1.00  0.00    -0.350 N 
ATOM      7  HN  UNL     1     -42.737 -49.500   9.986  1.00  0.00     0.166 HD
ENDROOT
BRANCH   4   8
HETATM    8  N   UNL     1     -39.299 -47.798  12.385  1.00  0.00    -0.324 N 
HETATM    9  C   UNL     1     -39.304 -47.513  13.738  1.00  0.00     0.251 C 
HETATM   10  O   UNL     1     -40.283 -47.185  14.405  1.00  0.00    -0.270 OA
HETATM   11  H   UNL     1     -38.439 -48.198  12.015  1.00  0.00     0.169 HD
BRANCH   9  12
HETATM   12  C   UNL     1     -37.941 -47.648  14.422  1.00  0.00     0.213 C 
HETATM   13  C   UNL     1     -37.501 -49.108  14.411  1.00  0.00     0.044 C 
HETATM   14  C   UNL     1     -36.651 -49.259  15.653  1.00  0.00     0.029 C 
HETATM   15  C   UNL     1     -36.649 -47.878  16.273  1.00  0.00     0.168 C 
HETATM   16  O   UNL     1     -37.837 -47.234  15.783  1.00  0.00    -0.376 OA
ENDBRANCH   9  12
ENDBRANCH   4   8
BRANCH   1  17
HETATM   17  N   UNL     1     -43.717 -47.334   8.927  1.00  0.00    -0.376 N 
HETATM   18  C   UNL     1     -43.545 -47.969   7.627  1.00  0.00     0.150 C 
HETATM   19  C   UNL     1     -45.040 -47.444   9.535  1.00  0.00     0.150 C 
ENDBRANCH   1  17
TORSDOF 3
ENDMDL
MODEL 5
REMARK VINA RESULT:      -4.9      4.792      9.207
REMARK  3 active torsions:
REMARK  status: ('A' for Active; 'I' for Inactive)
REMARK    1  A    between atoms: N_2  and  C_4 
REMARK    2  A    between atoms: C_7  and  N_8 
REMARK       I    between atoms: N_8  and  C_9 
REMARK    3  A    between atoms: C_9  and  C_11 
ROOT
HETATM    1  C   UNL     1     -41.922 -45.794  10.357  1.00  0.00     0.102 A 
HETATM    2  C   UNL     1     -40.550 -45.551  10.325  1.00  0.00     0.050 A 
HETATM    3  C   UNL     1     -40.030 -44.341  10.784  1.00  0.00     0.035 A 
HETATM    4  C   UNL     1     -40.870 -43.360  11.291  1.00  0.00     0.050 A 
HETATM    5  C   UNL     1     -42.221 -43.683  11.324  1.00  0.00     0.119 A 
HETATM    6  N   UNL     1     -42.753 -44.859  10.877  1.00  0.00    -0.350 N 
ATOM      7  HN  UNL     1     -43.757 -45.030  10.934  1.00  0.00     0.166 HD
ENDROOT
BRANCH   4   8
HETATM    8  N   UNL     1     -40.399 -42.116  11.778  1.00  0.00    -0.324 N 
HETATM    9  C   UNL     1     -39.927 -41.890  13.057  1.00  0.00     0.251 C 
HETATM   10  O   UNL     1     -39.745 -42.743  13.923  1.00  0.00    -0.270 OA
HETATM   11  H   UNL     1     -40.352 -41.327  11.137  1.00  0.00     0.169 HD
BRANCH   9  12
HETATM   12  C   UNL     1     -39.604 -40.426  13.367  1.00  0.00     0.213 C 
HETATM   13  C   UNL     1     -40.129 -39.535  12.248  1.00  0.00     0.044 C 
HETATM   14  C   UNL     1     -39.186 -38.352  12.227  1.00  0.00     0.029 C 
HETATM   15  C   UNL     1     -38.204 -38.641  13.343  1.00  0.00     0.168 C 
HETATM   16  O   UNL     1     -38.232 -40.067  13.522  1.00  0.00    -0.376 OA
ENDBRANCH   9  12
ENDBRANCH   4   8
BRANCH   1  17
HETATM   17  N   UNL     1     -42.434 -47.014   9.888  1.00  0.00    -0.376 N 
HETATM   18  C   UNL     1     -41.755 -48.200  10.392  1.00  0.00     0.150 C 
HETATM   19  C   UNL     1     -43.885 -47.104   9.748  1.00  0.00     0.150 C 
ENDBRANCH   1  17
TORSDOF 3
ENDMDL
MODEL 6
REMARK VINA RESULT:      -4.7      2.559      7.090
REMARK  3 active torsions:
REMARK  status: ('A' for Active; 'I' for Inactive)
REMARK    1  A    between atoms: N_2  and  C_4 
REMARK    2  A    between atoms: C_7  and  N_8 
REMARK       I    between atoms: N_8  and  C_9 
REMARK    3  A    between atoms: C_9  and  C_11 
ROOT
HETATM    1  C   UNL     1     -40.580 -53.503  13.803  1.00  0.00     0.102 A 
HETATM    2  C   UNL     1     -41.720 -53.425  13.004  1.00  0.00     0.050 A 
HETATM    3  C   UNL     1     -41.930 -52.329  12.167  1.00  0.00     0.035 A 
HETATM    4  C   UNL     1     -41.000 -51.302  12.106  1.00  0.00     0.050 A 
HETATM    5  C   UNL     1     -39.873 -51.462  12.902  1.00  0.00     0.119 A 
HETATM    6  N   UNL     1     -39.649 -52.523  13.732  1.00  0.00    -0.350 N 
ATOM      7  HN  UNL     1     -38.795 -52.576  14.288  1.00  0.00     0.166 HD
ENDROOT
BRANCH   4   8
HETATM    8  N   UNL     1     -41.155 -50.169  11.270  1.00  0.00    -0.324 N 
HETATM    9  C   UNL     1     -41.957 -49.078  11.548  1.00  0.00     0.251 C 
HETATM   10  O   UNL     1     -42.566 -48.876  12.597  1.00  0.00    -0.270 OA
HETATM   11  H   UNL     1     -40.605 -50.114  10.415  1.00  0.00     0.169 HD
BRANCH   9  12
HETATM   12  C   UNL     1     -42.050 -48.051  10.417  1.00  0.00     0.213 C 
HETATM   13  C   UNL     1     -41.356 -46.760  10.835  1.00  0.00     0.044 C 
HETATM   14  C   UNL     1     -42.097 -45.670  10.092  1.00  0.00     0.029 C 
HETATM   15  C   UNL     1     -43.145 -46.414   9.291  1.00  0.00     0.168 C 
HETATM   16  O   UNL     1     -43.351 -47.656   9.985  1.00  0.00    -0.376 OA
ENDBRANCH   9  12
ENDBRANCH   4   8
BRANCH   1  17
HETATM   17  N   UNL     1     -40.382 -54.608  14.645  1.00  0.00    -0.376 N 
HETATM   18  C   UNL     1     -39.023 -54.763  15.146  1.00  0.00     0.150 C 
HETATM   19  C   UNL     1     -41.459 -54.921  15.579  1.00  0.00     0.150 C 
ENDBRANCH   1  17
TORSDOF 3
ENDMDL
MODEL 7
REMARK VINA RESULT:      -4.6      2.394      7.243
REMARK  3 active torsions:
REMARK  status: ('A' for Active; 'I' for Inactive)
REMARK    1  A    between atoms: N_2  and  C_4 
REMARK    2  A    between atoms: C_7  and  N_8 
REMARK       I    between atoms: N_8  and  C_9 
REMARK    3  A    between atoms: C_9  and  C_11 
ROOT
HETATM    1  C   UNL     1     -43.374 -52.179  12.905  1.00  0.00     0.102 A 
HETATM    2  C   UNL     1     -43.952 -50.968  13.283  1.00  0.00     0.050 A 
HETATM    3  C   UNL     1     -43.288 -49.761  13.064  1.00  0.00     0.035 A 
HETATM    4  C   UNL     1     -42.041 -49.744  12.456  1.00  0.00     0.050 A 
HETATM    5  C   UNL     1     -41.540 -50.983  12.075  1.00  0.00     0.119 A 
HETATM    6  N   UNL     1     -42.171 -52.176  12.283  1.00  0.00    -0.350 N 
ATOM      7  HN  UNL     1     -41.744 -53.050  11.974  1.00  0.00     0.166 HD
ENDROOT
BRANCH   4   8
HETATM    8  N   UNL     1     -41.323 -48.550  12.202  1.00  0.00    -0.324 N 
HETATM    9  C   UNL     1     -41.325 -47.860  11.003  1.00  0.00     0.251 C 
HETATM   10  O   UNL     1     -42.023 -48.114  10.024  1.00  0.00    -0.270 OA
HETATM   11  H   UNL     1     -40.798 -48.124  12.962  1.00  0.00     0.169 HD
BRANCH   9  12
HETATM   12  C   UNL     1     -40.360 -46.674  10.950  1.00  0.00     0.213 C 
HETATM   13  C   UNL     1     -40.009 -46.231  12.366  1.00  0.00     0.044 C 
HETATM   14  C   UNL     1     -39.738 -44.748  12.246  1.00  0.00     0.029 C 
HETATM   15  C   UNL     1     -39.933 -44.452  10.774  1.00  0.00     0.168 C 
HETATM   16  O   UNL     1     -40.798 -45.491  10.284  1.00  0.00    -0.376 OA
ENDBRANCH   9  12
ENDBRANCH   4   8
BRANCH   1  17
HETATM   17  N   UNL     1     -44.049 -53.387  13.134  1.00  0.00    -0.376 N 
HETATM   18  C   UNL     1     -43.410 -54.276  14.095  1.00  0.00     0.150 C 
HETATM   19  C   UNL     1     -45.507 -53.324  13.176  1.00  0.00     0.150 C 
ENDBRANCH   1  17
TORSDOF 3
ENDMDL
MODEL 8
REMARK VINA RESULT:      -4.6      5.189      8.368
REMARK  3 active torsions:
REMARK  status: ('A' for Active; 'I' for Inactive)
REMARK    1  A    between atoms: N_2  and  C_4 
REMARK    2  A    between atoms: C_7  and  N_8 
REMARK       I    between atoms: N_8  and  C_9 
REMARK    3  A    between atoms: C_9  and  C_11 
ROOT
HETATM    1  C   UNL     1     -47.385 -51.776  17.717  1.00  0.00     0.102 A 
HETATM    2  C   UNL     1     -47.667 -51.267  16.450  1.00  0.00     0.050 A 
HETATM    3  C   UNL     1     -46.759 -51.417  15.403  1.00  0.00     0.035 A 
HETATM    4  C   UNL     1     -45.561 -52.087  15.600  1.00  0.00     0.050 A 
HETATM    5  C   UNL     1     -45.360 -52.598  16.877  1.00  0.00     0.119 A 
HETATM    6  N   UNL     1     -46.233 -52.459  17.918  1.00  0.00    -0.350 N 
ATOM      7  HN  UNL     1     -46.022 -52.863  18.830  1.00  0.00     0.166 HD
ENDROOT
BRANCH   4   8
HETATM    8  N   UNL     1     -44.604 -52.277  14.573  1.00  0.00    -0.324 N 
HETATM    9  C   UNL     1     -44.549 -53.371  13.729  1.00  0.00     0.251 C 
HETATM   10  O   UNL     1     -45.373 -54.281  13.670  1.00  0.00    -0.270 OA
HETATM   11  H   UNL     1     -43.926 -51.540  14.395  1.00  0.00     0.169 HD
BRANCH   9  12
HETATM   12  C   UNL     1     -43.338 -53.394  12.795  1.00  0.00     0.213 C 
HETATM   13  C   UNL     1     -42.203 -54.180  13.442  1.00  0.00     0.044 C 
HETATM   14  C   UNL     1     -40.941 -53.553  12.892  1.00  0.00     0.029 C 
HETATM   15  C   UNL     1     -41.441 -52.469  11.960  1.00  0.00     0.168 C 
HETATM   16  O   UNL     1     -42.763 -52.142  12.422  1.00  0.00    -0.376 OA
ENDBRANCH   9  12
ENDBRANCH   4   8
BRANCH   1  17
HETATM   17  N   UNL     1     -48.305 -51.615  18.764  1.00  0.00    -0.376 N 
HETATM   18  C   UNL     1     -48.295 -52.679  19.759  1.00  0.00     0.150 C 
HETATM   19  C   UNL     1     -48.495 -50.257  19.266  1.00  0.00     0.150 C 
ENDBRANCH   1  17
TORSDOF 3
ENDMDL
MODEL 9
REMARK VINA RESULT:      -4.6     15.999     17.903
REMARK  3 active torsions:
REMARK  status: ('A' for Active; 'I' for Inactive)
REMARK    1  A    between atoms: N_2  and  C_4 
REMARK    2  A    between atoms: C_7  and  N_8 
REMARK       I    between atoms: N_8  and  C_9 
REMARK    3  A    between atoms: C_9  and  C_11 
ROOT
HETATM    1  C   UNL     1     -52.351 -55.251  -2.870  1.00  0.00     0.102 A 
HETATM    2  C   UNL     1     -52.987 -54.965  -1.664  1.00  0.00     0.050 A 
HETATM    3  C   UNL     1     -52.710 -53.786  -0.973  1.00  0.00     0.035 A 
HETATM    4  C   UNL     1     -51.802 -52.869  -1.481  1.00  0.00     0.050 A 
HETATM    5  C   UNL     1     -51.231 -53.201  -2.704  1.00  0.00     0.119 A 
HETATM    6  N   UNL     1     -51.485 -54.351  -3.395  1.00  0.00    -0.350 N 
ATOM      7  HN  UNL     1     -51.030 -54.530  -4.291  1.00  0.00     0.166 HD
ENDROOT
BRANCH   4   8
HETATM    8  N   UNL     1     -51.487 -51.652  -0.829  1.00  0.00    -0.324 N 
HETATM    9  C   UNL     1     -50.366 -51.434  -0.048  1.00  0.00     0.251 C 
HETATM   10  O   UNL     1     -49.432 -52.217   0.110  1.00  0.00    -0.270 OA
HETATM   11  H   UNL     1     -52.094 -50.848  -0.973  1.00  0.00     0.169 HD
BRANCH   9  12
HETATM   12  C   UNL     1     -50.331 -50.073   0.650  1.00  0.00     0.213 C 
HETATM   13  C   UNL     1     -50.570 -48.965  -0.368  1.00  0.00     0.044 C 
HETATM   14  C   UNL     1     -49.813 -47.775   0.178  1.00  0.00     0.029 C 
HETATM   15  C   UNL     1     -49.213 -48.279   1.473  1.00  0.00     0.168 C 
HETATM   16  O   UNL     1     -49.132 -49.707   1.331  1.00  0.00    -0.376 OA
ENDBRANCH   9  12
ENDBRANCH   4   8
BRANCH   1  17
HETATM   17  N   UNL     1     -52.635 -56.442  -3.554  1.00  0.00    -0.376 N 
HETATM   18  C   UNL     1     -51.515 -57.007  -4.295  1.00  0.00     0.150 C 
HETATM   19  C   UNL     1     -53.513 -57.393  -2.878  1.00  0.00     0.150 C 
ENDBRANCH   1  17
TORSDOF 3
ENDMDL
