MODEL 1
REMARK VINA RESULT:      -5.9      0.000      0.000
REMARK  5 active torsions:
REMARK  status: ('A' for Active; 'I' for Inactive)
REMARK    1  A    between atoms: C_2  and  C_3 
REMARK    2  A    between atoms: C_2  and  N_13 
REMARK    3  A    between atoms: C_3  and  C_4 
REMARK       I    between atoms: N_13  and  C_14 
REMARK       I    between atoms: C_14  and  N_16 
REMARK    4  A    between atoms: C_20  and  C_21 
REMARK    5  A    between atoms: C_21  and  O_22 
ROOT
HETATM    1  C   UNL     1     -40.318 -50.164  12.168  1.00  0.00     0.032 C 
HETATM    2  C   UNL     1     -41.556 -49.267  12.057  1.00  0.00     0.086 C 
ENDROOT
BRANCH   2   3
HETATM    3  C   UNL     1     -41.651 -48.634  10.641  1.00  0.00     0.067 C 
BRANCH   3   4
HETATM    4  C   UNL     1     -42.118 -47.203  10.619  1.00  0.00    -0.009 A 
HETATM    5  C   UNL     1     -43.326 -46.684  10.071  1.00  0.00     0.030 A 
HETATM    6  C   UNL     1     -44.428 -47.394   9.377  1.00  0.00     0.070 C 
HETATM    7  N   UNL     1     -43.421 -45.362  10.247  1.00  0.00    -0.303 N 
HETATM    8  N   UNL     1     -42.281 -45.021  10.864  1.00  0.00    -0.300 N 
ATOM      9  HN  UNL     1     -44.190 -44.749   9.973  1.00  0.00     0.186 HD
HETATM   10  C   UNL     1     -42.076 -43.639  11.231  1.00  0.00     0.177 C 
HETATM   11  C   UNL     1     -41.441 -46.083  11.084  1.00  0.00     0.032 A 
HETATM   12  C   UNL     1     -40.089 -45.956  11.688  1.00  0.00     0.070 C 
ENDBRANCH   3   4
ENDBRANCH   2   3
BRANCH   2  13
HETATM   13  N   UNL     1     -42.742 -50.061  12.413  1.00  0.00    -0.338 N 
HETATM   14  C   UNL     1     -43.249 -50.067  13.690  1.00  0.00     0.319 C 
HETATM   15  O   UNL     1     -42.746 -49.435  14.611  1.00  0.00    -0.247 OA
HETATM   16  N   UNL     1     -44.402 -50.795  13.843  1.00  0.00    -0.327 N 
HETATM   17  C   UNL     1     -45.082 -50.818  15.128  1.00  0.00     0.128 C 
HETATM   18  C   UNL     1     -45.131 -51.573  12.842  1.00  0.00     0.112 C 
HETATM   19  C   UNL     1     -46.414 -51.513  14.877  1.00  0.00     0.022 C 
HETATM   20  C   UNL     1     -46.567 -51.523  13.359  1.00  0.00     0.029 C 
HETATM   21  H   UNL     1     -42.751 -51.008  12.050  1.00  0.00     0.164 HD
BRANCH  18  22
HETATM   22  C   UNL     1     -44.583 -53.007  12.756  1.00  0.00     0.189 C 
BRANCH  22  23
HETATM   23  O   UNL     1     -43.481 -53.054  11.847  1.00  0.00    -0.399 OA
HETATM   24  H   UNL     1     -43.812 -53.430  11.011  1.00  0.00     0.209 HD
ENDBRANCH  22  23
ENDBRANCH  18  22
ENDBRANCH   2  13
TORSDOF 5
ENDMDL
MODEL 2
REMARK VINA RESULT:      -5.7      2.161      3.409
REMARK  5 active torsions:
REMARK  status: ('A' for Active; 'I' for Inactive)
REMARK    1  A    between atoms: C_2  and  C_3 
REMARK    2  A    between atoms: C_2  and  N_13 
REMARK    3  A    between atoms: C_3  and  C_4 
REMARK       I    between atoms: N_13  and  C_14 
REMARK       I    between atoms: C_14  and  N_16 
REMARK    4  A    between atoms: C_20  and  C_21 
REMARK    5  A    between atoms: C_21  and  O_22 
ROOT
HETATM    1  C   UNL     1     -40.585 -53.613  13.340  1.00  0.00     0.032 C 
HETATM    2  C   UNL     1     -41.157 -52.206  13.126  1.00  0.00     0.086 C 
ENDROOT
BRANCH   2   3
HETATM    3  C   UNL     1     -40.776 -51.666  11.719  1.00  0.00     0.067 C 
BRANCH   3   4
HETATM    4  C   UNL     1     -40.336 -50.227  11.694  1.00  0.00    -0.009 A 
HETATM    5  C   UNL     1     -39.006 -49.719  11.647  1.00  0.00     0.030 A 
HETATM    6  C   UNL     1     -37.717 -50.452  11.622  1.00  0.00     0.070 C 
HETATM    7  N   UNL     1     -38.988 -48.382  11.617  1.00  0.00    -0.303 N 
HETATM    8  N   UNL     1     -40.279 -48.026  11.682  1.00  0.00    -0.300 N 
ATOM      9  HN  UNL     1     -38.174 -47.770  11.559  1.00  0.00     0.186 HD
HETATM   10  C   UNL     1     -40.615 -46.622  11.641  1.00  0.00     0.177 C 
HETATM   11  C   UNL     1     -41.136 -49.094  11.764  1.00  0.00     0.032 A 
HETATM   12  C   UNL     1     -42.608 -48.961  11.915  1.00  0.00     0.070 C 
ENDBRANCH   3   4
ENDBRANCH   2   3
BRANCH   2  13
HETATM   13  N   UNL     1     -42.610 -52.253  13.349  1.00  0.00    -0.338 N 
HETATM   14  C   UNL     1     -43.172 -51.837  14.532  1.00  0.00     0.319 C 
HETATM   15  O   UNL     1     -42.510 -51.419  15.475  1.00  0.00    -0.247 OA
HETATM   16  N   UNL     1     -44.543 -51.871  14.555  1.00  0.00    -0.327 N 
HETATM   17  C   UNL     1     -45.262 -51.382  15.720  1.00  0.00     0.128 C 
HETATM   18  C   UNL     1     -45.465 -52.313  13.509  1.00  0.00     0.112 C 
HETATM   19  C   UNL     1     -46.731 -51.354  15.317  1.00  0.00     0.022 C 
HETATM   20  C   UNL     1     -46.718 -51.491  13.797  1.00  0.00     0.029 C 
HETATM   21  H   UNL     1     -43.063 -53.111  13.052  1.00  0.00     0.164 HD
BRANCH  18  22
HETATM   22  C   UNL     1     -45.716 -53.827  13.603  1.00  0.00     0.189 C 
BRANCH  22  23
HETATM   23  O   UNL     1     -44.863 -54.520  12.689  1.00  0.00    -0.399 OA
HETATM   24  H   UNL     1     -44.682 -53.914  11.948  1.00  0.00     0.209 HD
ENDBRANCH  22  23
ENDBRANCH  18  22
ENDBRANCH   2  13
TORSDOF 5
ENDMDL
MODEL 3
REMARK VINA RESULT:      -5.3      3.583      5.310
REMARK  5 active torsions:
REMARK  status: ('A' for Active; 'I' for Inactive)
REMARK    1  A    between atoms: C_2  and  C_3 
REMARK    2  A    between atoms: C_2  and  N_13 
REMARK    3  A    between atoms: C_3  and  C_4 
REMARK       I    between atoms: N_13  and  C_14 
REMARK       I    between atoms: C_14  and  N_16 
REMARK    4  A    between atoms: C_20  and  C_21 
REMARK    5  A    between atoms: C_21  and  O_22 
ROOT
HETATM    1  C   UNL     1     -41.115 -55.115  16.228  1.00  0.00     0.032 C 
HETATM    2  C   UNL     1     -41.155 -53.778  15.479  1.00  0.00     0.086 C 
ENDROOT
BRANCH   2   3
HETATM    3  C   UNL     1     -39.981 -53.680  14.466  1.00  0.00     0.067 C 
BRANCH   3   4
HETATM    4  C   UNL     1     -39.746 -52.304  13.903  1.00  0.00    -0.009 A 
HETATM    5  C   UNL     1     -38.970 -51.249  14.462  1.00  0.00     0.030 A 
HETATM    6  C   UNL     1     -38.204 -51.214  15.732  1.00  0.00     0.070 C 
HETATM    7  N   UNL     1     -38.968 -50.166  13.678  1.00  0.00    -0.303 N 
HETATM    8  N   UNL     1     -39.758 -50.497  12.646  1.00  0.00    -0.300 N 
ATOM      9  HN  UNL     1     -38.476 -49.286  13.830  1.00  0.00     0.186 HD
HETATM   10  C   UNL     1     -39.948 -49.538  11.582  1.00  0.00     0.177 C 
HETATM   11  C   UNL     1     -40.283 -51.760  12.743  1.00  0.00     0.032 A 
HETATM   12  C   UNL     1     -41.242 -52.333  11.763  1.00  0.00     0.070 C 
ENDBRANCH   3   4
ENDBRANCH   2   3
BRANCH   2  13
HETATM   13  N   UNL     1     -42.475 -53.637  14.844  1.00  0.00    -0.338 N 
HETATM   14  C   UNL     1     -43.318 -52.598  15.158  1.00  0.00     0.319 C 
HETATM   15  O   UNL     1     -43.040 -51.739  15.987  1.00  0.00    -0.247 OA
HETATM   16  N   UNL     1     -44.477 -52.563  14.425  1.00  0.00    -0.327 N 
HETATM   17  C   UNL     1     -45.418 -51.470  14.605  1.00  0.00     0.128 C 
HETATM   18  C   UNL     1     -44.933 -53.491  13.391  1.00  0.00     0.112 C 
HETATM   19  C   UNL     1     -46.449 -51.625  13.494  1.00  0.00     0.022 C 
HETATM   20  C   UNL     1     -45.816 -52.608  12.513  1.00  0.00     0.029 C 
HETATM   21  H   UNL     1     -43.015 -54.493  14.781  1.00  0.00     0.164 HD
BRANCH  18  22
HETATM   22  C   UNL     1     -45.704 -54.669  14.011  1.00  0.00     0.189 C 
BRANCH  22  23
HETATM   23  O   UNL     1     -44.793 -55.703  14.388  1.00  0.00    -0.399 OA
HETATM   24  H   UNL     1     -45.232 -56.238  15.074  1.00  0.00     0.209 HD
ENDBRANCH  22  23
ENDBRANCH  18  22
ENDBRANCH   2  13
TORSDOF 5
ENDMDL
MODEL 4
REMARK VINA RESULT:      -5.3      2.239      2.410
REMARK  5 active torsions:
REMARK  status: ('A' for Active; 'I' for Inactive)
REMARK    1  A    between atoms: C_2  and  C_3 
REMARK    2  A    between atoms: C_2  and  N_13 
REMARK    3  A    between atoms: C_3  and  C_4 
REMARK       I    between atoms: N_13  and  C_14 
REMARK       I    between atoms: C_14  and  N_16 
REMARK    4  A    between atoms: C_20  and  C_21 
REMARK    5  A    between atoms: C_21  and  O_22 
ROOT
HETATM    1  C   UNL     1     -40.914 -49.292  11.033  1.00  0.00     0.032 C 
HETATM    2  C   UNL     1     -41.731 -49.354  12.328  1.00  0.00     0.086 C 
ENDROOT
BRANCH   2   3
HETATM    3  C   UNL     1     -43.084 -48.606  12.161  1.00  0.00     0.067 C 
BRANCH   3   4
HETATM    4  C   UNL     1     -42.968 -47.204  11.628  1.00  0.00    -0.009 A 
HETATM    5  C   UNL     1     -43.380 -46.713  10.356  1.00  0.00     0.030 A 
HETATM    6  C   UNL     1     -44.015 -47.436   9.227  1.00  0.00     0.070 C 
HETATM    7  N   UNL     1     -43.139 -45.404  10.228  1.00  0.00    -0.303 N 
HETATM    8  N   UNL     1     -42.545 -45.057  11.379  1.00  0.00    -0.300 N 
ATOM      9  HN  UNL     1     -43.357 -44.803   9.433  1.00  0.00     0.186 HD
HETATM   10  C   UNL     1     -42.174 -43.676  11.580  1.00  0.00     0.177 C 
HETATM   11  C   UNL     1     -42.384 -46.106  12.248  1.00  0.00     0.032 A 
HETATM   12  C   UNL     1     -41.693 -45.994  13.559  1.00  0.00     0.070 C 
ENDBRANCH   3   4
ENDBRANCH   2   3
BRANCH   2  13
HETATM   13  N   UNL     1     -41.899 -50.765  12.708  1.00  0.00    -0.338 N 
HETATM   14  C   UNL     1     -41.929 -51.158  14.024  1.00  0.00     0.319 C 
HETATM   15  O   UNL     1     -41.805 -50.376  14.958  1.00  0.00    -0.247 OA
HETATM   16  N   UNL     1     -42.169 -52.496  14.214  1.00  0.00    -0.327 N 
HETATM   17  C   UNL     1     -42.303 -53.026  15.561  1.00  0.00     0.128 C 
HETATM   18  C   UNL     1     -42.364 -53.542  13.211  1.00  0.00     0.112 C 
HETATM   19  C   UNL     1     -42.784 -54.462  15.394  1.00  0.00     0.022 C 
HETATM   20  C   UNL     1     -43.247 -54.549  13.942  1.00  0.00     0.029 C 
HETATM   21  H   UNL     1     -41.334 -51.423  12.180  1.00  0.00     0.164 HD
BRANCH  18  22
HETATM   22  C   UNL     1     -41.017 -54.143  12.775  1.00  0.00     0.189 C 
BRANCH  22  23
HETATM   23  O   UNL     1     -40.544 -53.479  11.601  1.00  0.00    -0.399 OA
HETATM   24  H   UNL     1     -39.649 -53.818  11.418  1.00  0.00     0.209 HD
ENDBRANCH  22  23
ENDBRANCH  18  22
ENDBRANCH   2  13
TORSDOF 5
ENDMDL
MODEL 5
REMARK VINA RESULT:      -5.3      2.221      3.234
REMARK  5 active torsions:
REMARK  status: ('A' for Active; 'I' for Inactive)
REMARK    1  A    between atoms: C_2  and  C_3 
REMARK    2  A    between atoms: C_2  and  N_13 
REMARK    3  A    between atoms: C_3  and  C_4 
REMARK       I    between atoms: N_13  and  C_14 
REMARK       I    between atoms: C_14  and  N_16 
REMARK    4  A    between atoms: C_20  and  C_21 
REMARK    5  A    between atoms: C_21  and  O_22 
ROOT
HETATM    1  C   UNL     1     -40.918 -50.492  14.490  1.00  0.00     0.032 C 
HETATM    2  C   UNL     1     -42.060 -50.592  13.472  1.00  0.00     0.086 C 
ENDROOT
BRANCH   2   3
HETATM    3  C   UNL     1     -41.513 -50.499  12.021  1.00  0.00     0.067 C 
BRANCH   3   4
HETATM    4  C   UNL     1     -41.057 -49.126  11.605  1.00  0.00    -0.009 A 
HETATM    5  C   UNL     1     -39.724 -48.629  11.537  1.00  0.00     0.030 A 
HETATM    6  C   UNL     1     -38.446 -49.310  11.860  1.00  0.00     0.070 C 
HETATM    7  N   UNL     1     -39.689 -47.363  11.107  1.00  0.00    -0.303 N 
HETATM    8  N   UNL     1     -40.976 -47.030  10.935  1.00  0.00    -0.300 N 
ATOM      9  HN  UNL     1     -38.866 -46.781  10.946  1.00  0.00     0.186 HD
HETATM   10  C   UNL     1     -41.292 -45.711  10.439  1.00  0.00     0.177 C 
HETATM   11  C   UNL     1     -41.848 -48.040  11.251  1.00  0.00     0.032 A 
HETATM   12  C   UNL     1     -43.326 -47.898  11.211  1.00  0.00     0.070 C 
ENDBRANCH   3   4
ENDBRANCH   2   3
BRANCH   2  13
HETATM   13  N   UNL     1     -42.805 -51.835  13.726  1.00  0.00    -0.338 N 
HETATM   14  C   UNL     1     -44.021 -51.828  14.366  1.00  0.00     0.319 C 
HETATM   15  O   UNL     1     -44.553 -50.805  14.778  1.00  0.00    -0.247 OA
HETATM   16  N   UNL     1     -44.624 -53.057  14.458  1.00  0.00    -0.327 N 
HETATM   17  C   UNL     1     -45.949 -53.174  15.043  1.00  0.00     0.128 C 
HETATM   18  C   UNL     1     -44.132 -54.354  13.994  1.00  0.00     0.112 C 
HETATM   19  C   UNL     1     -46.394 -54.607  14.776  1.00  0.00     0.022 C 
HETATM   20  C   UNL     1     -45.421 -55.124  13.720  1.00  0.00     0.029 C 
HETATM   21  H   UNL     1     -42.249 -52.605  14.082  1.00  0.00     0.164 HD
BRANCH  18  22
HETATM   22  C   UNL     1     -43.259 -55.026  15.068  1.00  0.00     0.189 C 
BRANCH  22  23
HETATM   23  O   UNL     1     -41.900 -54.607  14.923  1.00  0.00    -0.399 OA
HETATM   24  H   UNL     1     -41.914 -53.707  14.549  1.00  0.00     0.209 HD
ENDBRANCH  22  23
ENDBRANCH  18  22
ENDBRANCH   2  13
TORSDOF 5
ENDMDL
MODEL 6
REMARK VINA RESULT:      -5.3      2.802      6.644
REMARK  5 active torsions:
REMARK  status: ('A' for Active; 'I' for Inactive)
REMARK    1  A    between atoms: C_2  and  C_3 
REMARK    2  A    between atoms: C_2  and  N_13 
REMARK    3  A    between atoms: C_3  and  C_4 
REMARK       I    between atoms: N_13  and  C_14 
REMARK       I    between atoms: C_14  and  N_16 
REMARK    4  A    between atoms: C_20  and  C_21 
REMARK    5  A    between atoms: C_21  and  O_22 
ROOT
HETATM    1  C   UNL     1     -37.792 -50.166  11.842  1.00  0.00     0.032 C 
HETATM    2  C   UNL     1     -39.317 -50.037  11.760  1.00  0.00     0.086 C 
ENDROOT
BRANCH   2   3
HETATM    3  C   UNL     1     -39.983 -50.530  13.075  1.00  0.00     0.067 C 
BRANCH   3   4
HETATM    4  C   UNL     1     -41.368 -51.093  12.909  1.00  0.00    -0.009 A 
HETATM    5  C   UNL     1     -42.606 -50.389  12.913  1.00  0.00     0.030 A 
HETATM    6  C   UNL     1     -42.866 -48.938  13.090  1.00  0.00     0.070 C 
HETATM    7  N   UNL     1     -43.644 -51.209  12.719  1.00  0.00    -0.303 N 
HETATM    8  N   UNL     1     -43.095 -52.429  12.627  1.00  0.00    -0.300 N 
ATOM      9  HN  UNL     1     -44.632 -50.963  12.655  1.00  0.00     0.186 HD
HETATM   10  C   UNL     1     -43.958 -53.562  12.383  1.00  0.00     0.177 C 
HETATM   11  C   UNL     1     -41.731 -52.426  12.768  1.00  0.00     0.032 A 
HETATM   12  C   UNL     1     -40.899 -53.657  12.774  1.00  0.00     0.070 C 
ENDBRANCH   3   4
ENDBRANCH   2   3
BRANCH   2  13
HETATM   13  N   UNL     1     -39.652 -48.642  11.434  1.00  0.00    -0.338 N 
HETATM   14  C   UNL     1     -39.571 -47.643  12.374  1.00  0.00     0.319 C 
HETATM   15  O   UNL     1     -39.234 -47.844  13.535  1.00  0.00    -0.247 OA
HETATM   16  N   UNL     1     -39.841 -46.386  11.896  1.00  0.00    -0.327 N 
HETATM   17  C   UNL     1     -39.713 -45.232  12.771  1.00  0.00     0.128 C 
HETATM   18  C   UNL     1     -40.225 -45.986  10.542  1.00  0.00     0.112 C 
HETATM   19  C   UNL     1     -39.858 -44.012  11.869  1.00  0.00     0.022 C 
HETATM   20  C   UNL     1     -39.698 -44.556  10.452  1.00  0.00     0.029 C 
HETATM   21  H   UNL     1     -40.502 -48.519  10.894  1.00  0.00     0.164 HD
BRANCH  18  22
HETATM   22  C   UNL     1     -41.750 -46.067  10.358  1.00  0.00     0.189 C 
BRANCH  22  23
HETATM   23  O   UNL     1     -42.098 -47.293   9.710  1.00  0.00    -0.399 OA
HETATM   24  H   UNL     1     -41.580 -47.342   8.886  1.00  0.00     0.209 HD
ENDBRANCH  22  23
ENDBRANCH  18  22
ENDBRANCH   2  13
TORSDOF 5
ENDMDL
MODEL 7
REMARK VINA RESULT:      -5.2      3.900      4.859
REMARK  5 active torsions:
REMARK  status: ('A' for Active; 'I' for Inactive)
REMARK    1  A    between atoms: C_2  and  C_3 
REMARK    2  A    between atoms: C_2  and  N_13 
REMARK    3  A    between atoms: C_3  and  C_4 
REMARK       I    between atoms: N_13  and  C_14 
REMARK       I    between atoms: C_14  and  N_16 
REMARK    4  A    between atoms: C_20  and  C_21 
REMARK    5  A    between atoms: C_21  and  O_22 
ROOT
HETATM    1  C   UNL     1     -41.135 -54.204  16.718  1.00  0.00     0.032 C 
HETATM    2  C   UNL     1     -41.159 -53.110  15.645  1.00  0.00     0.086 C 
ENDROOT
BRANCH   2   3
HETATM    3  C   UNL     1     -39.984 -53.295  14.645  1.00  0.00     0.067 C 
BRANCH   3   4
HETATM    4  C   UNL     1     -39.775 -52.144  13.697  1.00  0.00    -0.009 A 
HETATM    5  C   UNL     1     -40.397 -51.926  12.435  1.00  0.00     0.030 A 
HETATM    6  C   UNL     1     -41.392 -52.759  11.717  1.00  0.00     0.070 C 
HETATM    7  N   UNL     1     -39.986 -50.785  11.871  1.00  0.00    -0.303 N 
HETATM    8  N   UNL     1     -39.085 -50.290  12.732  1.00  0.00    -0.300 N 
ATOM      9  HN  UNL     1     -40.289 -50.382  10.984  1.00  0.00     0.186 HD
HETATM   10  C   UNL     1     -38.459 -49.024  12.429  1.00  0.00     0.177 C 
HETATM   11  C   UNL     1     -38.891 -51.081  13.835  1.00  0.00     0.032 A 
HETATM   12  C   UNL     1     -37.897 -50.786  14.898  1.00  0.00     0.070 C 
ENDBRANCH   3   4
ENDBRANCH   2   3
BRANCH   2  13
HETATM   13  N   UNL     1     -42.477 -53.125  14.991  1.00  0.00    -0.338 N 
HETATM   14  C   UNL     1     -43.437 -52.187  15.284  1.00  0.00     0.319 C 
HETATM   15  O   UNL     1     -43.272 -51.297  16.108  1.00  0.00    -0.247 OA
HETATM   16  N   UNL     1     -44.582 -52.291  14.535  1.00  0.00    -0.327 N 
HETATM   17  C   UNL     1     -45.644 -51.311  14.692  1.00  0.00     0.128 C 
HETATM   18  C   UNL     1     -44.914 -53.273  13.503  1.00  0.00     0.112 C 
HETATM   19  C   UNL     1     -46.635 -51.591  13.568  1.00  0.00     0.022 C 
HETATM   20  C   UNL     1     -45.880 -52.503  12.605  1.00  0.00     0.029 C 
HETATM   21  H   UNL     1     -42.915 -54.038  14.928  1.00  0.00     0.164 HD
BRANCH  18  22
HETATM   22  C   UNL     1     -45.555 -54.526  14.123  1.00  0.00     0.189 C 
BRANCH  22  23
HETATM   23  O   UNL     1     -44.536 -55.422  14.573  1.00  0.00    -0.399 OA
HETATM   24  H   UNL     1     -43.724 -55.205  14.081  1.00  0.00     0.209 HD
ENDBRANCH  22  23
ENDBRANCH  18  22
ENDBRANCH   2  13
TORSDOF 5
ENDMDL
MODEL 8
REMARK VINA RESULT:      -5.1      4.304      6.759
REMARK  5 active torsions:
REMARK  status: ('A' for Active; 'I' for Inactive)
REMARK    1  A    between atoms: C_2  and  C_3 
REMARK    2  A    between atoms: C_2  and  N_13 
REMARK    3  A    between atoms: C_3  and  C_4 
REMARK       I    between atoms: N_13  and  C_14 
REMARK       I    between atoms: C_14  and  N_16 
REMARK    4  A    between atoms: C_20  and  C_21 
REMARK    5  A    between atoms: C_21  and  O_22 
ROOT
HETATM    1  C   UNL     1     -44.766 -53.824  15.792  1.00  0.00     0.032 C 
HETATM    2  C   UNL     1     -43.988 -54.683  14.790  1.00  0.00     0.086 C 
ENDROOT
BRANCH   2   3
HETATM    3  C   UNL     1     -44.224 -54.183  13.337  1.00  0.00     0.067 C 
BRANCH   3   4
HETATM    4  C   UNL     1     -43.839 -52.749  13.093  1.00  0.00    -0.009 A 
HETATM    5  C   UNL     1     -44.678 -51.598  13.127  1.00  0.00     0.030 A 
HETATM    6  C   UNL     1     -46.134 -51.501  13.396  1.00  0.00     0.070 C 
HETATM    7  N   UNL     1     -43.992 -50.477  12.879  1.00  0.00    -0.303 N 
HETATM    8  N   UNL     1     -42.739 -50.894  12.650  1.00  0.00    -0.300 N 
ATOM      9  HN  UNL     1     -44.344 -49.520  12.866  1.00  0.00     0.186 HD
HETATM   10  C   UNL     1     -41.719 -49.908  12.375  1.00  0.00     0.177 C 
HETATM   11  C   UNL     1     -42.592 -52.255  12.732  1.00  0.00     0.032 A 
HETATM   12  C   UNL     1     -41.317 -52.966  12.453  1.00  0.00     0.070 C 
ENDBRANCH   3   4
ENDBRANCH   2   3
BRANCH   2  13
HETATM   13  N   UNL     1     -42.568 -54.680  15.174  1.00  0.00    -0.338 N 
HETATM   14  C   UNL     1     -42.056 -55.610  16.046  1.00  0.00     0.319 C 
HETATM   15  O   UNL     1     -42.738 -56.483  16.569  1.00  0.00    -0.247 OA
HETATM   16  N   UNL     1     -40.701 -55.521  16.244  1.00  0.00    -0.327 N 
HETATM   17  C   UNL     1     -40.023 -56.496  17.083  1.00  0.00     0.128 C 
HETATM   18  C   UNL     1     -39.755 -54.561  15.675  1.00  0.00     0.112 C 
HETATM   19  C   UNL     1     -38.533 -56.239  16.894  1.00  0.00     0.022 C 
HETATM   20  C   UNL     1     -38.447 -55.349  15.657  1.00  0.00     0.029 C 
HETATM   21  H   UNL     1     -42.186 -53.768  15.402  1.00  0.00     0.164 HD
BRANCH  18  22
HETATM   22  C   UNL     1     -39.670 -53.294  16.543  1.00  0.00     0.189 C 
BRANCH  22  23
HETATM   23  O   UNL     1     -40.688 -52.369  16.154  1.00  0.00    -0.399 OA
HETATM   24  H   UNL     1     -41.373 -52.875  15.682  1.00  0.00     0.209 HD
ENDBRANCH  22  23
ENDBRANCH  18  22
ENDBRANCH   2  13
TORSDOF 5
ENDMDL
MODEL 9
REMARK VINA RESULT:      -5.1      2.977      7.189
REMARK  5 active torsions:
REMARK  status: ('A' for Active; 'I' for Inactive)
REMARK    1  A    between atoms: C_2  and  C_3 
REMARK    2  A    between atoms: C_2  and  N_13 
REMARK    3  A    between atoms: C_3  and  C_4 
REMARK       I    between atoms: N_13  and  C_14 
REMARK       I    between atoms: C_14  and  N_16 
REMARK    4  A    between atoms: C_20  and  C_21 
REMARK    5  A    between atoms: C_21  and  O_22 
ROOT
HETATM    1  C   UNL     1     -43.448 -49.960  13.294  1.00  0.00     0.032 C 
HETATM    2  C   UNL     1     -41.949 -49.957  12.976  1.00  0.00     0.086 C 
ENDROOT
BRANCH   2   3
HETATM    3  C   UNL     1     -41.559 -51.214  12.149  1.00  0.00     0.067 C 
BRANCH   3   4
HETATM    4  C   UNL     1     -41.248 -52.437  12.969  1.00  0.00    -0.009 A 
HETATM    5  C   UNL     1     -42.109 -53.531  13.272  1.00  0.00     0.030 A 
HETATM    6  C   UNL     1     -43.522 -53.755  12.879  1.00  0.00     0.070 C 
HETATM    7  N   UNL     1     -41.492 -54.456  14.013  1.00  0.00    -0.303 N 
HETATM    8  N   UNL     1     -40.265 -53.957  14.222  1.00  0.00    -0.300 N 
ATOM      9  HN  UNL     1     -41.870 -55.344  14.347  1.00  0.00     0.186 HD
HETATM   10  C   UNL     1     -39.317 -54.740  14.980  1.00  0.00     0.177 C 
HETATM   11  C   UNL     1     -40.070 -52.728  13.645  1.00  0.00     0.032 A 
HETATM   12  C   UNL     1     -38.821 -51.937  13.790  1.00  0.00     0.070 C 
ENDBRANCH   3   4
ENDBRANCH   2   3
BRANCH   2  13
HETATM   13  N   UNL     1     -41.618 -48.696  12.294  1.00  0.00    -0.338 N 
HETATM   14  C   UNL     1     -41.151 -47.604  12.985  1.00  0.00     0.319 C 
HETATM   15  O   UNL     1     -40.995 -47.599  14.200  1.00  0.00    -0.247 OA
HETATM   16  N   UNL     1     -40.815 -46.532  12.198  1.00  0.00    -0.327 N 
HETATM   17  C   UNL     1     -40.235 -45.342  12.800  1.00  0.00     0.128 C 
HETATM   18  C   UNL     1     -40.916 -46.397  10.746  1.00  0.00     0.112 C 
HETATM   19  C   UNL     1     -39.783 -44.469  11.635  1.00  0.00     0.022 C 
HETATM   20  C   UNL     1     -39.810 -45.396  10.423  1.00  0.00     0.029 C 
HETATM   21  H   UNL     1     -42.298 -48.386  11.608  1.00  0.00     0.164 HD
BRANCH  18  22
HETATM   22  C   UNL     1     -42.310 -45.889  10.337  1.00  0.00     0.189 C 
BRANCH  22  23
HETATM   23  O   UNL     1     -42.387 -45.769   8.915  1.00  0.00    -0.399 OA
HETATM   24  H   UNL     1     -42.372 -46.671   8.548  1.00  0.00     0.209 HD
ENDBRANCH  22  23
ENDBRANCH  18  22
ENDBRANCH   2  13
TORSDOF 5
ENDMDL
