MODEL 1
REMARK VINA RESULT:      -6.0      0.000      0.000
REMARK  7 active torsions:
REMARK  status: ('A' for Active; 'I' for Inactive)
REMARK    1  A    between atoms: O_1  and  C_2 
REMARK    2  A    between atoms: C_2  and  C_3 
REMARK    3  A    between atoms: C_2  and  C_12 
REMARK    4  A    between atoms: C_3  and  O_4 
REMARK    5  A    between atoms: O_4  and  C_5 
REMARK    6  A    between atoms: C_5  and  C_6 
REMARK    7  A    between atoms: C_12  and  N_13 
ROOT
HETATM    1  C   UNL     1     -41.047 -53.009  12.531  1.00  0.00     0.160 C 
ENDROOT
BRANCH   1   2
HETATM    2  O   UNL     1     -40.511 -53.515  11.302  1.00  0.00    -0.392 OA
HETATM    3  H   UNL     1     -40.813 -54.436  11.208  1.00  0.00     0.210 HD
ENDBRANCH   1   2
BRANCH   1   4
HETATM    4  C   UNL     1     -41.198 -54.188  13.498  1.00  0.00     0.201 C 
BRANCH   4   5
HETATM    5  O   UNL     1     -42.571 -54.470  13.734  1.00  0.00    -0.384 OA
BRANCH   5   6
HETATM    6  C   UNL     1     -43.096 -53.651  14.778  1.00  0.00     0.206 C 
BRANCH   6   7
HETATM    7  C   UNL     1     -44.304 -52.919  14.258  1.00  0.00    -0.035 A 
HETATM    8  C   UNL     1     -44.972 -51.983  15.058  1.00  0.00     0.009 A 
HETATM    9  C   UNL     1     -46.085 -51.298  14.566  1.00  0.00     0.001 A 
HETATM   10  C   UNL     1     -46.540 -51.544  13.271  1.00  0.00     0.000 A 
HETATM   11  C   UNL     1     -45.882 -52.473  12.469  1.00  0.00     0.001 A 
HETATM   12  C   UNL     1     -44.769 -53.157  12.958  1.00  0.00     0.009 A 
ENDBRANCH   6   7
ENDBRANCH   5   6
ENDBRANCH   4   5
ENDBRANCH   1   4
BRANCH   1  13
HETATM   13  C   UNL     1     -40.111 -51.940  13.109  1.00  0.00     0.164 C 
BRANCH  13  14
HETATM   14  N   UNL     1     -40.181 -50.688  12.373  1.00  0.00    -0.339 N 
HETATM   15  C   UNL     1     -39.135 -50.122  11.697  1.00  0.00     0.184 A 
HETATM   16  N   UNL     1     -39.480 -48.995  11.120  1.00  0.00    -0.350 N 
HETATM   17  C   UNL     1     -40.804 -48.822  11.437  1.00  0.00     0.060 A 
ATOM     18  HN  UNL     1     -38.891 -48.379  10.558  1.00  0.00     0.166 HD
HETATM   19  C   UNL     1     -41.676 -47.786  11.071  1.00  0.00     0.032 A 
HETATM   20  C   UNL     1     -41.272 -49.865  12.237  1.00  0.00     0.062 A 
HETATM   21  C   UNL     1     -42.998 -47.825  11.529  1.00  0.00     0.002 A 
HETATM   22  C   UNL     1     -43.443 -48.873  12.339  1.00  0.00     0.002 A 
HETATM   23  C   UNL     1     -42.589 -49.919  12.710  1.00  0.00     0.032 A 
ENDBRANCH  13  14
ENDBRANCH   1  13
TORSDOF 7
ENDMDL
MODEL 2
REMARK VINA RESULT:      -5.8      2.415      4.433
REMARK  7 active torsions:
REMARK  status: ('A' for Active; 'I' for Inactive)
REMARK    1  A    between atoms: O_1  and  C_2 
REMARK    2  A    between atoms: C_2  and  C_3 
REMARK    3  A    between atoms: C_2  and  C_12 
REMARK    4  A    between atoms: C_3  and  O_4 
REMARK    5  A    between atoms: O_4  and  C_5 
REMARK    6  A    between atoms: C_5  and  C_6 
REMARK    7  A    between atoms: C_12  and  N_13 
ROOT
HETATM    1  C   UNL     1     -41.228 -50.604  12.429  1.00  0.00     0.160 C 
ENDROOT
BRANCH   1   2
HETATM    2  O   UNL     1     -42.452 -50.267  11.763  1.00  0.00    -0.392 OA
HETATM    3  H   UNL     1     -43.183 -50.474  12.372  1.00  0.00     0.210 HD
ENDBRANCH   1   2
BRANCH   1   4
HETATM    4  C   UNL     1     -41.434 -50.380  13.930  1.00  0.00     0.201 C 
BRANCH   4   5
HETATM    5  O   UNL     1     -42.812 -50.195  14.226  1.00  0.00    -0.384 OA
BRANCH   5   6
HETATM    6  C   UNL     1     -43.143 -50.725  15.509  1.00  0.00     0.206 C 
BRANCH   6   7
HETATM    7  C   UNL     1     -44.560 -51.233  15.472  1.00  0.00    -0.035 A 
HETATM    8  C   UNL     1     -45.400 -50.930  14.392  1.00  0.00     0.009 A 
HETATM    9  C   UNL     1     -46.710 -51.414  14.358  1.00  0.00     0.001 A 
HETATM   10  C   UNL     1     -47.190 -52.203  15.402  1.00  0.00     0.000 A 
HETATM   11  C   UNL     1     -46.362 -52.509  16.479  1.00  0.00     0.001 A 
HETATM   12  C   UNL     1     -45.053 -52.029  16.515  1.00  0.00     0.009 A 
ENDBRANCH   6   7
ENDBRANCH   5   6
ENDBRANCH   4   5
ENDBRANCH   1   4
BRANCH   1  13
HETATM   13  C   UNL     1     -40.859 -52.064  12.135  1.00  0.00     0.164 C 
BRANCH  13  14
HETATM   14  N   UNL     1     -41.344 -52.974  13.160  1.00  0.00    -0.339 N 
HETATM   15  C   UNL     1     -40.601 -53.423  14.217  1.00  0.00     0.184 A 
HETATM   16  N   UNL     1     -41.291 -54.231  14.989  1.00  0.00    -0.350 N 
HETATM   17  C   UNL     1     -42.530 -54.310  14.406  1.00  0.00     0.060 A 
ATOM     18  HN  UNL     1     -40.974 -54.700  15.838  1.00  0.00     0.166 HD
HETATM   19  C   UNL     1     -43.662 -55.029  14.820  1.00  0.00     0.032 A 
HETATM   20  C   UNL     1     -42.592 -53.540  13.244  1.00  0.00     0.062 A 
HETATM   21  C   UNL     1     -44.826 -54.959  14.046  1.00  0.00     0.002 A 
HETATM   22  C   UNL     1     -44.862 -54.190  12.880  1.00  0.00     0.002 A 
HETATM   23  C   UNL     1     -43.745 -53.461  12.453  1.00  0.00     0.032 A 
ENDBRANCH  13  14
ENDBRANCH   1  13
TORSDOF 7
ENDMDL
MODEL 3
REMARK VINA RESULT:      -5.7      1.709      2.090
REMARK  7 active torsions:
REMARK  status: ('A' for Active; 'I' for Inactive)
REMARK    1  A    between atoms: O_1  and  C_2 
REMARK    2  A    between atoms: C_2  and  C_3 
REMARK    3  A    between atoms: C_2  and  C_12 
REMARK    4  A    between atoms: C_3  and  O_4 
REMARK    5  A    between atoms: O_4  and  C_5 
REMARK    6  A    between atoms: C_5  and  C_6 
REMARK    7  A    between atoms: C_12  and  N_13 
ROOT
HETATM    1  C   UNL     1     -39.966 -54.113  13.740  1.00  0.00     0.160 C 
ENDROOT
BRANCH   1   2
HETATM    2  O   UNL     1     -38.796 -54.891  13.459  1.00  0.00    -0.392 OA
HETATM    3  H   UNL     1     -38.059 -54.505  13.964  1.00  0.00     0.210 HD
ENDBRANCH   1   2
BRANCH   1   4
HETATM    4  C   UNL     1     -40.565 -54.624  15.055  1.00  0.00     0.201 C 
BRANCH   4   5
HETATM    5  O   UNL     1     -41.836 -54.035  15.290  1.00  0.00    -0.384 OA
BRANCH   5   6
HETATM    6  C   UNL     1     -42.796 -54.469  14.327  1.00  0.00     0.206 C 
BRANCH   6   7
HETATM    7  C   UNL     1     -43.867 -53.419  14.203  1.00  0.00    -0.035 A 
HETATM    8  C   UNL     1     -44.266 -52.669  15.317  1.00  0.00     0.009 A 
HETATM    9  C   UNL     1     -45.252 -51.688  15.193  1.00  0.00     0.001 A 
HETATM   10  C   UNL     1     -45.847 -51.449  13.956  1.00  0.00     0.000 A 
HETATM   11  C   UNL     1     -45.457 -52.189  12.842  1.00  0.00     0.001 A 
HETATM   12  C   UNL     1     -44.471 -53.168  12.964  1.00  0.00     0.009 A 
ENDBRANCH   6   7
ENDBRANCH   5   6
ENDBRANCH   4   5
ENDBRANCH   1   4
BRANCH   1  13
HETATM   13  C   UNL     1     -39.593 -52.628  13.846  1.00  0.00     0.164 C 
BRANCH  13  14
HETATM   14  N   UNL     1     -40.603 -51.761  13.261  1.00  0.00    -0.339 N 
HETATM   15  C   UNL     1     -40.975 -51.776  11.945  1.00  0.00     0.184 A 
HETATM   16  N   UNL     1     -41.911 -50.891  11.692  1.00  0.00    -0.350 N 
HETATM   17  C   UNL     1     -42.153 -50.275  12.895  1.00  0.00     0.060 A 
ATOM     18  HN  UNL     1     -42.361 -50.700  10.797  1.00  0.00     0.166 HD
HETATM   19  C   UNL     1     -43.068 -49.256  13.203  1.00  0.00     0.032 A 
HETATM   20  C   UNL     1     -41.336 -50.792  13.901  1.00  0.00     0.062 A 
HETATM   21  C   UNL     1     -43.128 -48.779  14.517  1.00  0.00     0.002 A 
HETATM   22  C   UNL     1     -42.292 -49.302  15.506  1.00  0.00     0.002 A 
HETATM   23  C   UNL     1     -41.377 -50.324  15.220  1.00  0.00     0.032 A 
ENDBRANCH  13  14
ENDBRANCH   1  13
TORSDOF 7
ENDMDL
MODEL 4
REMARK VINA RESULT:      -5.6      2.148      2.971
REMARK  7 active torsions:
REMARK  status: ('A' for Active; 'I' for Inactive)
REMARK    1  A    between atoms: O_1  and  C_2 
REMARK    2  A    between atoms: C_2  and  C_3 
REMARK    3  A    between atoms: C_2  and  C_12 
REMARK    4  A    between atoms: C_3  and  O_4 
REMARK    5  A    between atoms: O_4  and  C_5 
REMARK    6  A    between atoms: C_5  and  C_6 
REMARK    7  A    between atoms: C_12  and  N_13 
ROOT
HETATM    1  C   UNL     1     -41.273 -49.932  11.532  1.00  0.00     0.160 C 
ENDROOT
BRANCH   1   2
HETATM    2  O   UNL     1     -40.366 -50.083  10.433  1.00  0.00    -0.392 OA
HETATM    3  H   UNL     1     -39.508 -50.365  10.798  1.00  0.00     0.210 HD
ENDBRANCH   1   2
BRANCH   1   4
HETATM    4  C   UNL     1     -40.946 -51.018  12.562  1.00  0.00     0.201 C 
BRANCH   4   5
HETATM    5  O   UNL     1     -41.994 -51.137  13.516  1.00  0.00    -0.384 OA
BRANCH   5   6
HETATM    6  C   UNL     1     -42.856 -52.231  13.205  1.00  0.00     0.206 C 
BRANCH   6   7
HETATM    7  C   UNL     1     -44.237 -51.920  13.716  1.00  0.00    -0.035 A 
HETATM    8  C   UNL     1     -44.434 -51.518  15.044  1.00  0.00     0.009 A 
HETATM    9  C   UNL     1     -45.716 -51.220  15.509  1.00  0.00     0.001 A 
HETATM   10  C   UNL     1     -46.811 -51.320  14.652  1.00  0.00     0.000 A 
HETATM   11  C   UNL     1     -46.625 -51.718  13.331  1.00  0.00     0.001 A 
HETATM   12  C   UNL     1     -45.345 -52.015  12.863  1.00  0.00     0.009 A 
ENDBRANCH   6   7
ENDBRANCH   5   6
ENDBRANCH   4   5
ENDBRANCH   1   4
BRANCH   1  13
HETATM   13  C   UNL     1     -41.127 -48.532  12.143  1.00  0.00     0.164 C 
BRANCH  13  14
HETATM   14  N   UNL     1     -41.469 -47.479  11.201  1.00  0.00    -0.339 N 
HETATM   15  C   UNL     1     -40.616 -46.489  10.795  1.00  0.00     0.184 A 
HETATM   16  N   UNL     1     -41.187 -45.676   9.936  1.00  0.00    -0.350 N 
HETATM   17  C   UNL     1     -42.462 -46.158   9.782  1.00  0.00     0.060 A 
ATOM     18  HN  UNL     1     -40.772 -44.862   9.483  1.00  0.00     0.166 HD
HETATM   19  C   UNL     1     -43.502 -45.676   8.971  1.00  0.00     0.032 A 
HETATM   20  C   UNL     1     -42.676 -47.286  10.575  1.00  0.00     0.062 A 
HETATM   21  C   UNL     1     -44.733 -46.340   8.988  1.00  0.00     0.002 A 
HETATM   22  C   UNL     1     -44.929 -47.461   9.799  1.00  0.00     0.002 A 
HETATM   23  C   UNL     1     -43.903 -47.961  10.611  1.00  0.00     0.032 A 
ENDBRANCH  13  14
ENDBRANCH   1  13
TORSDOF 7
ENDMDL
MODEL 5
REMARK VINA RESULT:      -5.6      2.111      5.899
REMARK  7 active torsions:
REMARK  status: ('A' for Active; 'I' for Inactive)
REMARK    1  A    between atoms: O_1  and  C_2 
REMARK    2  A    between atoms: C_2  and  C_3 
REMARK    3  A    between atoms: C_2  and  C_12 
REMARK    4  A    between atoms: C_3  and  O_4 
REMARK    5  A    between atoms: O_4  and  C_5 
REMARK    6  A    between atoms: C_5  and  C_6 
REMARK    7  A    between atoms: C_12  and  N_13 
ROOT
HETATM    1  C   UNL     1     -40.957 -52.654  12.600  1.00  0.00     0.160 C 
ENDROOT
BRANCH   1   2
HETATM    2  O   UNL     1     -40.577 -53.198  11.330  1.00  0.00    -0.392 OA
HETATM    3  H   UNL     1     -41.136 -52.779  10.652  1.00  0.00     0.210 HD
ENDBRANCH   1   2
BRANCH   1   4
HETATM    4  C   UNL     1     -39.971 -51.532  12.943  1.00  0.00     0.201 C 
BRANCH   4   5
HETATM    5  O   UNL     1     -40.549 -50.260  12.683  1.00  0.00    -0.384 OA
BRANCH   5   6
HETATM    6  C   UNL     1     -39.701 -49.464  11.855  1.00  0.00     0.206 C 
BRANCH   6   7
HETATM    7  C   UNL     1     -40.497 -48.304  11.320  1.00  0.00    -0.035 A 
HETATM    8  C   UNL     1     -39.977 -47.004  11.353  1.00  0.00     0.009 A 
HETATM    9  C   UNL     1     -40.715 -45.933  10.844  1.00  0.00     0.001 A 
HETATM   10  C   UNL     1     -41.978 -46.153  10.298  1.00  0.00     0.000 A 
HETATM   11  C   UNL     1     -42.504 -47.442  10.261  1.00  0.00     0.001 A 
HETATM   12  C   UNL     1     -41.768 -48.513  10.767  1.00  0.00     0.009 A 
ENDBRANCH   6   7
ENDBRANCH   5   6
ENDBRANCH   4   5
ENDBRANCH   1   4
BRANCH   1  13
HETATM   13  C   UNL     1     -42.395 -52.122  12.532  1.00  0.00     0.164 C 
BRANCH  13  14
HETATM   14  N   UNL     1     -43.322 -52.933  13.303  1.00  0.00    -0.339 N 
HETATM   15  C   UNL     1     -43.082 -54.217  13.709  1.00  0.00     0.184 A 
HETATM   16  N   UNL     1     -44.089 -54.708  14.394  1.00  0.00    -0.350 N 
HETATM   17  C   UNL     1     -45.020 -53.700  14.431  1.00  0.00     0.060 A 
ATOM     18  HN  UNL     1     -44.164 -55.637  14.808  1.00  0.00     0.166 HD
HETATM   19  C   UNL     1     -46.283 -53.680  15.043  1.00  0.00     0.032 A 
HETATM   20  C   UNL     1     -44.573 -52.573  13.742  1.00  0.00     0.062 A 
HETATM   21  C   UNL     1     -47.066 -52.525  14.937  1.00  0.00     0.002 A 
HETATM   22  C   UNL     1     -46.602 -51.412  14.231  1.00  0.00     0.002 A 
HETATM   23  C   UNL     1     -45.343 -51.410  13.618  1.00  0.00     0.032 A 
ENDBRANCH  13  14
ENDBRANCH   1  13
TORSDOF 7
ENDMDL
MODEL 6
REMARK VINA RESULT:      -5.5      2.241      4.178
REMARK  7 active torsions:
REMARK  status: ('A' for Active; 'I' for Inactive)
REMARK    1  A    between atoms: O_1  and  C_2 
REMARK    2  A    between atoms: C_2  and  C_3 
REMARK    3  A    between atoms: C_2  and  C_12 
REMARK    4  A    between atoms: C_3  and  O_4 
REMARK    5  A    between atoms: O_4  and  C_5 
REMARK    6  A    between atoms: C_5  and  C_6 
REMARK    7  A    between atoms: C_12  and  N_13 
ROOT
HETATM    1  C   UNL     1     -40.164 -50.497  13.806  1.00  0.00     0.160 C 
ENDROOT
BRANCH   1   2
HETATM    2  O   UNL     1     -39.328 -49.355  14.033  1.00  0.00    -0.392 OA
HETATM    3  H   UNL     1     -38.416 -49.610  13.806  1.00  0.00     0.210 HD
ENDBRANCH   1   2
BRANCH   1   4
HETATM    4  C   UNL     1     -39.289 -51.749  13.919  1.00  0.00     0.201 C 
BRANCH   4   5
HETATM    5  O   UNL     1     -39.807 -52.798  13.111  1.00  0.00    -0.384 OA
BRANCH   5   6
HETATM    6  C   UNL     1     -39.999 -53.990  13.871  1.00  0.00     0.206 C 
BRANCH   6   7
HETATM    7  C   UNL     1     -41.477 -54.242  14.011  1.00  0.00    -0.035 A 
HETATM    8  C   UNL     1     -42.009 -54.724  15.214  1.00  0.00     0.009 A 
HETATM    9  C   UNL     1     -43.383 -54.944  15.341  1.00  0.00     0.001 A 
HETATM   10  C   UNL     1     -44.234 -54.686  14.268  1.00  0.00     0.000 A 
HETATM   11  C   UNL     1     -43.714 -54.206  13.069  1.00  0.00     0.001 A 
HETATM   12  C   UNL     1     -42.343 -53.984  12.940  1.00  0.00     0.009 A 
ENDBRANCH   6   7
ENDBRANCH   5   6
ENDBRANCH   4   5
ENDBRANCH   1   4
BRANCH   1  13
HETATM   13  C   UNL     1     -41.301 -50.525  14.837  1.00  0.00     0.164 C 
BRANCH  13  14
HETATM   14  N   UNL     1     -42.610 -50.623  14.213  1.00  0.00    -0.339 N 
HETATM   15  C   UNL     1     -42.873 -50.331  12.903  1.00  0.00     0.184 A 
HETATM   16  N   UNL     1     -44.140 -50.511  12.608  1.00  0.00    -0.350 N 
HETATM   17  C   UNL     1     -44.722 -50.934  13.777  1.00  0.00     0.060 A 
ATOM     18  HN  UNL     1     -44.594 -50.366  11.706  1.00  0.00     0.166 HD
HETATM   19  C   UNL     1     -46.058 -51.281  14.028  1.00  0.00     0.032 A 
HETATM   20  C   UNL     1     -43.788 -51.002  14.811  1.00  0.00     0.062 A 
HETATM   21  C   UNL     1     -46.419 -51.680  15.320  1.00  0.00     0.002 A 
HETATM   22  C   UNL     1     -45.469 -51.730  16.343  1.00  0.00     0.002 A 
HETATM   23  C   UNL     1     -44.129 -51.393  16.111  1.00  0.00     0.032 A 
ENDBRANCH  13  14
ENDBRANCH   1  13
TORSDOF 7
ENDMDL
MODEL 7
REMARK VINA RESULT:      -5.5      1.815      2.389
REMARK  7 active torsions:
REMARK  status: ('A' for Active; 'I' for Inactive)
REMARK    1  A    between atoms: O_1  and  C_2 
REMARK    2  A    between atoms: C_2  and  C_3 
REMARK    3  A    between atoms: C_2  and  C_12 
REMARK    4  A    between atoms: C_3  and  O_4 
REMARK    5  A    between atoms: O_4  and  C_5 
REMARK    6  A    between atoms: C_5  and  C_6 
REMARK    7  A    between atoms: C_12  and  N_13 
ROOT
HETATM    1  C   UNL     1     -41.066 -52.287  12.167  1.00  0.00     0.160 C 
ENDROOT
BRANCH   1   2
HETATM    2  O   UNL     1     -40.542 -53.474  11.558  1.00  0.00    -0.392 OA
HETATM    3  H   UNL     1     -40.331 -54.101  12.273  1.00  0.00     0.210 HD
ENDBRANCH   1   2
BRANCH   1   4
HETATM    4  C   UNL     1     -41.957 -52.715  13.338  1.00  0.00     0.201 C 
BRANCH   4   5
HETATM    5  O   UNL     1     -42.867 -53.729  12.932  1.00  0.00    -0.384 OA
BRANCH   5   6
HETATM    6  C   UNL     1     -44.004 -53.171  12.275  1.00  0.00     0.206 C 
BRANCH   6   7
HETATM    7  C   UNL     1     -45.072 -52.902  13.301  1.00  0.00    -0.035 A 
HETATM    8  C   UNL     1     -45.678 -51.642  13.389  1.00  0.00     0.009 A 
HETATM    9  C   UNL     1     -46.677 -51.402  14.335  1.00  0.00     0.001 A 
HETATM   10  C   UNL     1     -47.078 -52.419  15.200  1.00  0.00     0.000 A 
HETATM   11  C   UNL     1     -46.481 -53.675  15.121  1.00  0.00     0.001 A 
HETATM   12  C   UNL     1     -45.485 -53.917  14.175  1.00  0.00     0.009 A 
ENDBRANCH   6   7
ENDBRANCH   5   6
ENDBRANCH   4   5
ENDBRANCH   1   4
BRANCH   1  13
HETATM   13  C   UNL     1     -39.914 -51.395  12.649  1.00  0.00     0.164 C 
BRANCH  13  14
HETATM   14  N   UNL     1     -40.059 -50.018  12.205  1.00  0.00    -0.339 N 
HETATM   15  C   UNL     1     -40.648 -49.635  11.032  1.00  0.00     0.184 A 
HETATM   16  N   UNL     1     -40.645 -48.330  10.888  1.00  0.00    -0.350 N 
HETATM   17  C   UNL     1     -40.026 -47.849  12.014  1.00  0.00     0.060 A 
ATOM     18  HN  UNL     1     -41.020 -47.791  10.108  1.00  0.00     0.166 HD
HETATM   19  C   UNL     1     -39.764 -46.521  12.383  1.00  0.00     0.032 A 
HETATM   20  C   UNL     1     -39.632 -48.887  12.858  1.00  0.00     0.062 A 
HETATM   21  C   UNL     1     -39.104 -46.275  13.593  1.00  0.00     0.002 A 
HETATM   22  C   UNL     1     -38.708 -47.331  14.417  1.00  0.00     0.002 A 
HETATM   23  C   UNL     1     -38.966 -48.663  14.069  1.00  0.00     0.032 A 
ENDBRANCH  13  14
ENDBRANCH   1  13
TORSDOF 7
ENDMDL
MODEL 8
REMARK VINA RESULT:      -5.5      2.841      5.003
REMARK  7 active torsions:
REMARK  status: ('A' for Active; 'I' for Inactive)
REMARK    1  A    between atoms: O_1  and  C_2 
REMARK    2  A    between atoms: C_2  and  C_3 
REMARK    3  A    between atoms: C_2  and  C_12 
REMARK    4  A    between atoms: C_3  and  O_4 
REMARK    5  A    between atoms: O_4  and  C_5 
REMARK    6  A    between atoms: C_5  and  C_6 
REMARK    7  A    between atoms: C_12  and  N_13 
ROOT
HETATM    1  C   UNL     1     -41.472 -52.802  12.307  1.00  0.00     0.160 C 
ENDROOT
BRANCH   1   2
HETATM    2  O   UNL     1     -41.070 -52.563  10.952  1.00  0.00    -0.392 OA
HETATM    3  H   UNL     1     -40.473 -51.793  10.955  1.00  0.00     0.210 HD
ENDBRANCH   1   2
BRANCH   1   4
HETATM    4  C   UNL     1     -40.294 -52.438  13.216  1.00  0.00     0.201 C 
BRANCH   4   5
HETATM    5  O   UNL     1     -40.736 -51.669  14.326  1.00  0.00    -0.384 OA
BRANCH   5   6
HETATM    6  C   UNL     1     -40.409 -52.305  15.561  1.00  0.00     0.206 C 
BRANCH   6   7
HETATM    7  C   UNL     1     -41.644 -52.975  16.102  1.00  0.00    -0.035 A 
HETATM    8  C   UNL     1     -41.919 -54.316  15.803  1.00  0.00     0.009 A 
HETATM    9  C   UNL     1     -43.060 -54.935  16.318  1.00  0.00     0.001 A 
HETATM   10  C   UNL     1     -43.935 -54.220  17.135  1.00  0.00     0.000 A 
HETATM   11  C   UNL     1     -43.670 -52.887  17.437  1.00  0.00     0.001 A 
HETATM   12  C   UNL     1     -42.530 -52.267  16.926  1.00  0.00     0.009 A 
ENDBRANCH   6   7
ENDBRANCH   5   6
ENDBRANCH   4   5
ENDBRANCH   1   4
BRANCH   1  13
HETATM   13  C   UNL     1     -42.708 -51.957  12.642  1.00  0.00     0.164 C 
BRANCH  13  14
HETATM   14  N   UNL     1     -43.829 -52.768  13.086  1.00  0.00    -0.339 N 
HETATM   15  C   UNL     1     -44.028 -54.077  12.742  1.00  0.00     0.184 A 
HETATM   16  N   UNL     1     -45.118 -54.565  13.288  1.00  0.00    -0.350 N 
HETATM   17  C   UNL     1     -45.648 -53.528  14.015  1.00  0.00     0.060 A 
ATOM     18  HN  UNL     1     -45.491 -55.509  13.193  1.00  0.00     0.166 HD
HETATM   19  C   UNL     1     -46.806 -53.499  14.806  1.00  0.00     0.032 A 
HETATM   20  C   UNL     1     -44.867 -52.378  13.897  1.00  0.00     0.062 A 
HETATM   21  C   UNL     1     -47.151 -52.307  15.453  1.00  0.00     0.002 A 
HETATM   22  C   UNL     1     -46.360 -51.164  15.312  1.00  0.00     0.002 A 
HETATM   23  C   UNL     1     -45.197 -51.174  14.532  1.00  0.00     0.032 A 
ENDBRANCH  13  14
ENDBRANCH   1  13
TORSDOF 7
ENDMDL
MODEL 9
REMARK VINA RESULT:      -5.4      2.370      3.598
REMARK  7 active torsions:
REMARK  status: ('A' for Active; 'I' for Inactive)
REMARK    1  A    between atoms: O_1  and  C_2 
REMARK    2  A    between atoms: C_2  and  C_3 
REMARK    3  A    between atoms: C_2  and  C_12 
REMARK    4  A    between atoms: C_3  and  O_4 
REMARK    5  A    between atoms: O_4  and  C_5 
REMARK    6  A    between atoms: C_5  and  C_6 
REMARK    7  A    between atoms: C_12  and  N_13 
ROOT
HETATM    1  C   UNL     1     -40.742 -52.172  12.201  1.00  0.00     0.160 C 
ENDROOT
BRANCH   1   2
HETATM    2  O   UNL     1     -40.488 -53.350  11.427  1.00  0.00    -0.392 OA
HETATM    3  H   UNL     1     -40.033 -53.989  12.004  1.00  0.00     0.210 HD
ENDBRANCH   1   2
BRANCH   1   4
HETATM    4  C   UNL     1     -42.062 -52.380  12.952  1.00  0.00     0.201 C 
BRANCH   4   5
HETATM    5  O   UNL     1     -42.259 -51.354  13.915  1.00  0.00    -0.384 OA
BRANCH   5   6
HETATM    6  C   UNL     1     -43.258 -50.427  13.488  1.00  0.00     0.206 C 
BRANCH   6   7
HETATM    7  C   UNL     1     -44.566 -50.794  14.136  1.00  0.00    -0.035 A 
HETATM    8  C   UNL     1     -45.635 -51.272  13.367  1.00  0.00     0.009 A 
HETATM    9  C   UNL     1     -46.843 -51.622  13.976  1.00  0.00     0.001 A 
HETATM   10  C   UNL     1     -46.991 -51.497  15.356  1.00  0.00     0.000 A 
HETATM   11  C   UNL     1     -45.934 -51.023  16.128  1.00  0.00     0.001 A 
HETATM   12  C   UNL     1     -44.727 -50.675  15.523  1.00  0.00     0.009 A 
ENDBRANCH   6   7
ENDBRANCH   5   6
ENDBRANCH   4   5
ENDBRANCH   1   4
BRANCH   1  13
HETATM   13  C   UNL     1     -39.585 -51.930  13.179  1.00  0.00     0.164 C 
BRANCH  13  14
HETATM   14  N   UNL     1     -39.142 -50.545  13.179  1.00  0.00    -0.339 N 
HETATM   15  C   UNL     1     -39.532 -49.602  12.269  1.00  0.00     0.184 A 
HETATM   16  N   UNL     1     -38.981 -48.435  12.509  1.00  0.00    -0.350 N 
HETATM   17  C   UNL     1     -38.200 -48.631  13.620  1.00  0.00     0.060 A 
ATOM     18  HN  UNL     1     -39.105 -47.569  11.983  1.00  0.00     0.166 HD
HETATM   19  C   UNL     1     -37.397 -47.713  14.314  1.00  0.00     0.032 A 
HETATM   20  C   UNL     1     -38.269 -49.953  14.059  1.00  0.00     0.062 A 
HETATM   21  C   UNL     1     -36.677 -48.156  15.430  1.00  0.00     0.002 A 
HETATM   22  C   UNL     1     -36.752 -49.487  15.845  1.00  0.00     0.002 A 
HETATM   23  C   UNL     1     -37.552 -50.417  15.169  1.00  0.00     0.032 A 
ENDBRANCH  13  14
ENDBRANCH   1  13
TORSDOF 7
ENDMDL
