MODEL 1
REMARK VINA RESULT:      -5.7      0.000      0.000
REMARK  5 active torsions:
REMARK  status: ('A' for Active; 'I' for Inactive)
REMARK    1  A    between atoms: C_2  and  N_3 
REMARK    2  A    between atoms: C_2  and  C_12 
REMARK    3  A    between atoms: N_3  and  C_4 
REMARK    4  A    between atoms: C_4  and  C_5 
REMARK    5  A    between atoms: C_5  and  N_6 
ROOT
HETATM    1  N   UNL     1     -42.721 -52.630  11.761  1.00  0.00     0.089 N 
HETATM    2  H   UNL     1     -43.182 -51.779  11.439  1.00  0.00     0.316 HD
ENDROOT
BRANCH   1   3
HETATM    3  C   UNL     1     -43.392 -53.141  12.973  1.00  0.00     0.220 C 
HETATM    4  C   UNL     1     -42.404 -54.115  13.613  1.00  0.00     0.043 C 
BRANCH   3   5
HETATM    5  C   UNL     1     -44.840 -53.666  12.712  1.00  0.00     0.022 C 
HETATM    6  C   UNL     1     -45.906 -52.561  12.607  1.00  0.00     0.033 C 
HETATM    7  C   UNL     1     -46.534 -52.172  13.937  1.00  0.00     0.168 C 
HETATM    8  O   UNL     1     -46.992 -53.317  14.648  1.00  0.00    -0.391 OA
HETATM    9  C   UNL     1     -45.945 -54.238  14.938  1.00  0.00     0.168 C 
HETATM   10  C   UNL     1     -45.332 -54.776  13.654  1.00  0.00     0.033 C 
ENDBRANCH   3   5
ENDBRANCH   1   3
BRANCH   1  11
HETATM   11  C   UNL     1     -41.280 -52.373  11.905  1.00  0.00     0.291 C 
BRANCH  11  12
HETATM   12  C   UNL     1     -40.917 -50.890  11.956  1.00  0.00     0.178 C 
BRANCH  12  13
HETATM   13  N   UNL     1     -39.485 -50.682  11.987  1.00  0.00    -0.302 N 
HETATM   14  C   UNL     1     -38.625 -51.044  12.982  1.00  0.00     0.111 A 
HETATM   15  C   UNL     1     -37.393 -50.563  12.608  1.00  0.00     0.037 A 
HETATM   16  C   UNL     1     -37.616 -49.932  11.370  1.00  0.00     0.108 A 
HETATM   17  N   UNL     1     -38.890 -50.014  10.981  1.00  0.00    -0.310 N 
ATOM     18  HN  UNL     1     -39.311 -49.656  10.125  1.00  0.00     0.186 HD
ENDBRANCH  12  13
ENDBRANCH  11  12
ENDBRANCH   1  11
TORSDOF 5
ENDMDL
MODEL 2
REMARK VINA RESULT:      -5.2      1.778      2.561
REMARK  5 active torsions:
REMARK  status: ('A' for Active; 'I' for Inactive)
REMARK    1  A    between atoms: C_2  and  N_3 
REMARK    2  A    between atoms: C_2  and  C_12 
REMARK    3  A    between atoms: N_3  and  C_4 
REMARK    4  A    between atoms: C_4  and  C_5 
REMARK    5  A    between atoms: C_5  and  N_6 
ROOT
HETATM    1  N   UNL     1     -42.783 -52.062  11.993  1.00  0.00     0.089 N 
HETATM    2  H   UNL     1     -43.287 -51.185  12.121  1.00  0.00     0.316 HD
ENDROOT
BRANCH   1   3
HETATM    3  C   UNL     1     -43.213 -53.044  13.008  1.00  0.00     0.220 C 
HETATM    4  C   UNL     1     -42.032 -53.999  13.186  1.00  0.00     0.043 C 
BRANCH   3   5
HETATM    5  C   UNL     1     -44.606 -53.685  12.708  1.00  0.00     0.022 C 
HETATM    6  C   UNL     1     -45.744 -52.667  12.515  1.00  0.00     0.033 C 
HETATM    7  C   UNL     1     -46.456 -52.278  13.802  1.00  0.00     0.168 C 
HETATM    8  O   UNL     1     -46.861 -53.428  14.538  1.00  0.00    -0.391 OA
HETATM    9  C   UNL     1     -45.763 -54.257  14.907  1.00  0.00     0.168 C 
HETATM   10  C   UNL     1     -45.057 -54.794  13.672  1.00  0.00     0.033 C 
ENDBRANCH   3   5
ENDBRANCH   1   3
BRANCH   1  11
HETATM   11  C   UNL     1     -41.338 -51.789  11.959  1.00  0.00     0.291 C 
BRANCH  11  12
HETATM   12  C   UNL     1     -40.958 -50.403  12.477  1.00  0.00     0.178 C 
BRANCH  12  13
HETATM   13  N   UNL     1     -41.630 -49.348  11.748  1.00  0.00    -0.302 N 
HETATM   14  C   UNL     1     -42.722 -48.639  12.152  1.00  0.00     0.111 A 
HETATM   15  C   UNL     1     -43.049 -47.817  11.099  1.00  0.00     0.037 A 
HETATM   16  C   UNL     1     -42.088 -48.104  10.111  1.00  0.00     0.108 A 
HETATM   17  N   UNL     1     -41.212 -49.028  10.509  1.00  0.00    -0.310 N 
ATOM     18  HN  UNL     1     -40.414 -49.403   9.995  1.00  0.00     0.186 HD
ENDBRANCH  12  13
ENDBRANCH  11  12
ENDBRANCH   1  11
TORSDOF 5
ENDMDL
MODEL 3
REMARK VINA RESULT:      -5.0      2.661      3.615
REMARK  5 active torsions:
REMARK  status: ('A' for Active; 'I' for Inactive)
REMARK    1  A    between atoms: C_2  and  N_3 
REMARK    2  A    between atoms: C_2  and  C_12 
REMARK    3  A    between atoms: N_3  and  C_4 
REMARK    4  A    between atoms: C_4  and  C_5 
REMARK    5  A    between atoms: C_5  and  N_6 
ROOT
HETATM    1  N   UNL     1     -42.500 -51.464  12.116  1.00  0.00     0.089 N 
HETATM    2  H   UNL     1     -42.978 -51.152  11.271  1.00  0.00     0.316 HD
ENDROOT
BRANCH   1   3
HETATM    3  C   UNL     1     -43.471 -52.067  13.052  1.00  0.00     0.220 C 
HETATM    4  C   UNL     1     -43.932 -53.365  12.389  1.00  0.00     0.043 C 
BRANCH   3   5
HETATM    5  C   UNL     1     -44.583 -51.077  13.524  1.00  0.00     0.022 C 
HETATM    6  C   UNL     1     -44.482 -50.672  15.006  1.00  0.00     0.033 C 
HETATM    7  C   UNL     1     -45.226 -51.599  15.956  1.00  0.00     0.168 C 
HETATM    8  O   UNL     1     -46.568 -51.811  15.530  1.00  0.00    -0.391 OA
HETATM    9  C   UNL     1     -46.644 -52.398  14.234  1.00  0.00     0.168 C 
HETATM   10  C   UNL     1     -46.027 -51.480  13.191  1.00  0.00     0.033 C 
ENDBRANCH   3   5
ENDBRANCH   1   3
BRANCH   1  11
HETATM   11  C   UNL     1     -41.712 -50.351  12.665  1.00  0.00     0.291 C 
BRANCH  11  12
HETATM   12  C   UNL     1     -41.067 -49.465  11.600  1.00  0.00     0.178 C 
BRANCH  12  13
HETATM   13  N   UNL     1     -42.035 -48.610  10.946  1.00  0.00    -0.302 N 
HETATM   14  C   UNL     1     -43.160 -48.073  11.500  1.00  0.00     0.111 A 
HETATM   15  C   UNL     1     -43.803 -47.412  10.479  1.00  0.00     0.037 A 
HETATM   16  C   UNL     1     -42.981 -47.606   9.354  1.00  0.00     0.108 A 
HETATM   17  N   UNL     1     -41.894 -48.325   9.638  1.00  0.00    -0.310 N 
ATOM     18  HN  UNL     1     -41.135 -48.595   9.012  1.00  0.00     0.186 HD
ENDBRANCH  12  13
ENDBRANCH  11  12
ENDBRANCH   1  11
TORSDOF 5
ENDMDL
MODEL 4
REMARK VINA RESULT:      -4.8      1.226      1.326
REMARK  5 active torsions:
REMARK  status: ('A' for Active; 'I' for Inactive)
REMARK    1  A    between atoms: C_2  and  N_3 
REMARK    2  A    between atoms: C_2  and  C_12 
REMARK    3  A    between atoms: N_3  and  C_4 
REMARK    4  A    between atoms: C_4  and  C_5 
REMARK    5  A    between atoms: C_5  and  N_6 
ROOT
HETATM    1  N   UNL     1     -41.820 -54.195  12.821  1.00  0.00     0.089 N 
HETATM    2  H   UNL     1     -42.061 -54.821  12.054  1.00  0.00     0.316 HD
ENDROOT
BRANCH   1   3
HETATM    3  C   UNL     1     -42.967 -54.059  13.742  1.00  0.00     0.220 C 
HETATM    4  C   UNL     1     -42.662 -54.984  14.920  1.00  0.00     0.043 C 
BRANCH   3   5
HETATM    5  C   UNL     1     -44.354 -54.232  13.044  1.00  0.00     0.022 C 
HETATM    6  C   UNL     1     -44.996 -52.913  12.577  1.00  0.00     0.033 C 
HETATM    7  C   UNL     1     -45.867 -52.239  13.627  1.00  0.00     0.168 C 
HETATM    8  O   UNL     1     -46.811 -53.150  14.181  1.00  0.00    -0.391 OA
HETATM    9  C   UNL     1     -46.190 -54.267  14.812  1.00  0.00     0.168 C 
HETATM   10  C   UNL     1     -45.388 -55.076  13.804  1.00  0.00     0.033 C 
ENDBRANCH   3   5
ENDBRANCH   1   3
BRANCH   1  11
HETATM   11  C   UNL     1     -41.306 -52.932  12.271  1.00  0.00     0.291 C 
BRANCH  11  12
HETATM   12  C   UNL     1     -41.206 -51.805  13.298  1.00  0.00     0.178 C 
BRANCH  12  13
HETATM   13  N   UNL     1     -40.253 -50.791  12.901  1.00  0.00    -0.302 N 
HETATM   14  C   UNL     1     -39.803 -49.748  13.655  1.00  0.00     0.111 A 
HETATM   15  C   UNL     1     -38.985 -49.011  12.830  1.00  0.00     0.037 A 
HETATM   16  C   UNL     1     -39.006 -49.698  11.602  1.00  0.00     0.108 A 
HETATM   17  N   UNL     1     -39.767 -50.792  11.645  1.00  0.00    -0.310 N 
ATOM     18  HN  UNL     1     -39.940 -51.470  10.902  1.00  0.00     0.186 HD
ENDBRANCH  12  13
ENDBRANCH  11  12
ENDBRANCH   1  11
TORSDOF 5
ENDMDL
MODEL 5
REMARK VINA RESULT:      -4.8      3.184      4.477
REMARK  5 active torsions:
REMARK  status: ('A' for Active; 'I' for Inactive)
REMARK    1  A    between atoms: C_2  and  N_3 
REMARK    2  A    between atoms: C_2  and  C_12 
REMARK    3  A    between atoms: N_3  and  C_4 
REMARK    4  A    between atoms: C_4  and  C_5 
REMARK    5  A    between atoms: C_5  and  N_6 
ROOT
HETATM    1  N   UNL     1     -46.425 -53.869  14.145  1.00  0.00     0.089 N 
HETATM    2  H   UNL     1     -47.242 -54.471  14.043  1.00  0.00     0.316 HD
ENDROOT
BRANCH   1   3
HETATM    3  C   UNL     1     -46.729 -52.515  13.639  1.00  0.00     0.220 C 
HETATM    4  C   UNL     1     -45.911 -52.361  12.356  1.00  0.00     0.043 C 
BRANCH   3   5
HETATM    5  C   UNL     1     -46.578 -51.395  14.717  1.00  0.00     0.022 C 
HETATM    6  C   UNL     1     -45.126 -50.954  14.974  1.00  0.00     0.033 C 
HETATM    7  C   UNL     1     -44.410 -51.763  16.045  1.00  0.00     0.168 C 
HETATM    8  O   UNL     1     -45.183 -51.843  17.238  1.00  0.00    -0.391 OA
HETATM    9  C   UNL     1     -46.450 -52.462  17.029  1.00  0.00     0.168 C 
HETATM   10  C   UNL     1     -47.289 -51.650  16.054  1.00  0.00     0.033 C 
ENDBRANCH   3   5
ENDBRANCH   1   3
BRANCH   1  11
HETATM   11  C   UNL     1     -45.262 -54.522  13.525  1.00  0.00     0.291 C 
BRANCH  11  12
HETATM   12  C   UNL     1     -44.182 -54.937  14.522  1.00  0.00     0.178 C 
BRANCH  12  13
HETATM   13  N   UNL     1     -42.864 -54.509  14.104  1.00  0.00    -0.302 N 
HETATM   14  C   UNL     1     -41.730 -54.487  14.862  1.00  0.00     0.111 A 
HETATM   15  C   UNL     1     -40.758 -53.924  14.068  1.00  0.00     0.037 A 
HETATM   16  C   UNL     1     -41.407 -53.646  12.851  1.00  0.00     0.108 A 
HETATM   17  N   UNL     1     -42.689 -54.014  12.864  1.00  0.00    -0.310 N 
ATOM     18  HN  UNL     1     -43.374 -53.940  12.112  1.00  0.00     0.186 HD
ENDBRANCH  12  13
ENDBRANCH  11  12
ENDBRANCH   1  11
TORSDOF 5
ENDMDL
MODEL 6
REMARK VINA RESULT:      -4.8      2.757      3.612
REMARK  5 active torsions:
REMARK  status: ('A' for Active; 'I' for Inactive)
REMARK    1  A    between atoms: C_2  and  N_3 
REMARK    2  A    between atoms: C_2  and  C_12 
REMARK    3  A    between atoms: N_3  and  C_4 
REMARK    4  A    between atoms: C_4  and  C_5 
REMARK    5  A    between atoms: C_5  and  N_6 
ROOT
HETATM    1  N   UNL     1     -42.532 -51.010  12.182  1.00  0.00     0.089 N 
HETATM    2  H   UNL     1     -43.419 -50.572  11.937  1.00  0.00     0.316 HD
ENDROOT
BRANCH   1   3
HETATM    3  C   UNL     1     -42.713 -51.903  13.344  1.00  0.00     0.220 C 
HETATM    4  C   UNL     1     -41.636 -51.496  14.350  1.00  0.00     0.043 C 
BRANCH   3   5
HETATM    5  C   UNL     1     -42.795 -53.416  12.963  1.00  0.00     0.022 C 
HETATM    6  C   UNL     1     -44.211 -53.906  12.614  1.00  0.00     0.033 C 
HETATM    7  C   UNL     1     -45.012 -54.400  13.809  1.00  0.00     0.168 C 
HETATM    8  O   UNL     1     -44.272 -55.346  14.574  1.00  0.00    -0.391 OA
HETATM    9  C   UNL     1     -43.056 -54.807  15.084  1.00  0.00     0.168 C 
HETATM   10  C   UNL     1     -42.134 -54.393  13.948  1.00  0.00     0.033 C 
ENDBRANCH   3   5
ENDBRANCH   1   3
BRANCH   1  11
HETATM   11  C   UNL     1     -41.508 -49.968  12.348  1.00  0.00     0.291 C 
BRANCH  11  12
HETATM   12  C   UNL     1     -40.935 -49.447  11.031  1.00  0.00     0.178 C 
BRANCH  12  13
HETATM   13  N   UNL     1     -41.450 -48.137  10.694  1.00  0.00    -0.302 N 
HETATM   14  C   UNL     1     -42.728 -47.827  10.332  1.00  0.00     0.111 A 
HETATM   15  C   UNL     1     -42.717 -46.486  10.025  1.00  0.00     0.037 A 
HETATM   16  C   UNL     1     -41.387 -46.082  10.240  1.00  0.00     0.108 A 
HETATM   17  N   UNL     1     -40.613 -47.083  10.661  1.00  0.00    -0.310 N 
ATOM     18  HN  UNL     1     -39.622 -47.056  10.902  1.00  0.00     0.186 HD
ENDBRANCH  12  13
ENDBRANCH  11  12
ENDBRANCH   1  11
TORSDOF 5
ENDMDL
MODEL 7
REMARK VINA RESULT:      -4.6      3.491      6.118
REMARK  5 active torsions:
REMARK  status: ('A' for Active; 'I' for Inactive)
REMARK    1  A    between atoms: C_2  and  N_3 
REMARK    2  A    between atoms: C_2  and  C_12 
REMARK    3  A    between atoms: N_3  and  C_4 
REMARK    4  A    between atoms: C_4  and  C_5 
REMARK    5  A    between atoms: C_5  and  N_6 
ROOT
HETATM    1  N   UNL     1     -41.925 -53.008  15.501  1.00  0.00     0.089 N 
HETATM    2  H   UNL     1     -41.037 -52.552  15.296  1.00  0.00     0.316 HD
ENDROOT
BRANCH   1   3
HETATM    3  C   UNL     1     -42.317 -53.880  14.375  1.00  0.00     0.220 C 
HETATM    4  C   UNL     1     -42.890 -55.145  15.014  1.00  0.00     0.043 C 
BRANCH   3   5
HETATM    5  C   UNL     1     -41.192 -54.068  13.309  1.00  0.00     0.022 C 
HETATM    6  C   UNL     1     -39.800 -54.356  13.900  1.00  0.00     0.033 C 
HETATM    7  C   UNL     1     -38.984 -53.109  14.206  1.00  0.00     0.168 C 
HETATM    8  O   UNL     1     -38.938 -52.231  13.086  1.00  0.00    -0.391 OA
HETATM    9  C   UNL     1     -40.232 -51.791  12.682  1.00  0.00     0.168 C 
HETATM   10  C   UNL     1     -41.087 -52.969  12.241  1.00  0.00     0.033 C 
ENDBRANCH   3   5
ENDBRANCH   1   3
BRANCH   1  11
HETATM   11  C   UNL     1     -42.916 -51.988  15.877  1.00  0.00     0.291 C 
BRANCH  11  12
HETATM   12  C   UNL     1     -43.247 -51.004  14.756  1.00  0.00     0.178 C 
BRANCH  12  13
HETATM   13  N   UNL     1     -44.604 -51.162  14.278  1.00  0.00    -0.302 N 
HETATM   14  C   UNL     1     -45.735 -51.256  15.035  1.00  0.00     0.111 A 
HETATM   15  C   UNL     1     -46.763 -51.484  14.150  1.00  0.00     0.037 A 
HETATM   16  C   UNL     1     -46.147 -51.504  12.885  1.00  0.00     0.108 A 
HETATM   17  N   UNL     1     -44.832 -51.294  12.958  1.00  0.00    -0.310 N 
ATOM     18  HN  UNL     1     -44.158 -51.245  12.193  1.00  0.00     0.186 HD
ENDBRANCH  12  13
ENDBRANCH  11  12
ENDBRANCH   1  11
TORSDOF 5
ENDMDL
MODEL 8
REMARK VINA RESULT:      -4.6      2.961      6.574
REMARK  5 active torsions:
REMARK  status: ('A' for Active; 'I' for Inactive)
REMARK    1  A    between atoms: C_2  and  N_3 
REMARK    2  A    between atoms: C_2  and  C_12 
REMARK    3  A    between atoms: N_3  and  C_4 
REMARK    4  A    between atoms: C_4  and  C_5 
REMARK    5  A    between atoms: C_5  and  N_6 
ROOT
HETATM    1  N   UNL     1     -42.024 -53.065  12.188  1.00  0.00     0.089 N 
HETATM    2  H   UNL     1     -42.068 -53.516  11.274  1.00  0.00     0.316 HD
ENDROOT
BRANCH   1   3
HETATM    3  C   UNL     1     -40.616 -52.868  12.587  1.00  0.00     0.220 C 
HETATM    4  C   UNL     1     -40.265 -54.066  13.470  1.00  0.00     0.043 C 
BRANCH   3   5
HETATM    5  C   UNL     1     -40.323 -51.447  13.168  1.00  0.00     0.022 C 
HETATM    6  C   UNL     1     -41.035 -50.301  12.428  1.00  0.00     0.033 C 
HETATM    7  C   UNL     1     -40.249 -49.733  11.256  1.00  0.00     0.168 C 
HETATM    8  O   UNL     1     -38.917 -49.403  11.637  1.00  0.00    -0.391 OA
HETATM    9  C   UNL     1     -38.189 -50.530  12.117  1.00  0.00     0.168 C 
HETATM   10  C   UNL     1     -38.841 -51.097  13.369  1.00  0.00     0.033 C 
ENDBRANCH   3   5
ENDBRANCH   1   3
BRANCH   1  11
HETATM   11  C   UNL     1     -42.844 -53.826  13.142  1.00  0.00     0.291 C 
BRANCH  11  12
HETATM   12  C   UNL     1     -44.299 -53.997  12.710  1.00  0.00     0.178 C 
BRANCH  12  13
HETATM   13  N   UNL     1     -45.140 -52.924  13.197  1.00  0.00    -0.302 N 
HETATM   14  C   UNL     1     -44.912 -52.132  14.284  1.00  0.00     0.111 A 
HETATM   15  C   UNL     1     -46.019 -51.324  14.401  1.00  0.00     0.037 A 
HETATM   16  C   UNL     1     -46.852 -51.705  13.333  1.00  0.00     0.108 A 
HETATM   17  N   UNL     1     -46.314 -52.672  12.588  1.00  0.00    -0.310 N 
ATOM     18  HN  UNL     1     -46.700 -53.114  11.754  1.00  0.00     0.186 HD
ENDBRANCH  12  13
ENDBRANCH  11  12
ENDBRANCH   1  11
TORSDOF 5
ENDMDL
MODEL 9
REMARK VINA RESULT:      -4.6      3.007      7.007
REMARK  5 active torsions:
REMARK  status: ('A' for Active; 'I' for Inactive)
REMARK    1  A    between atoms: C_2  and  N_3 
REMARK    2  A    between atoms: C_2  and  C_12 
REMARK    3  A    between atoms: N_3  and  C_4 
REMARK    4  A    between atoms: C_4  and  C_5 
REMARK    5  A    between atoms: C_5  and  N_6 
ROOT
HETATM    1  N   UNL     1     -40.567 -49.906  11.441  1.00  0.00     0.089 N 
HETATM    2  H   UNL     1     -39.762 -50.447  11.129  1.00  0.00     0.316 HD
ENDROOT
BRANCH   1   3
HETATM    3  C   UNL     1     -40.117 -48.650  12.074  1.00  0.00     0.220 C 
HETATM    4  C   UNL     1     -40.712 -47.524  11.228  1.00  0.00     0.043 C 
BRANCH   3   5
HETATM    5  C   UNL     1     -38.578 -48.601  12.342  1.00  0.00     0.022 C 
HETATM    6  C   UNL     1     -37.814 -49.854  11.879  1.00  0.00     0.033 C 
HETATM    7  C   UNL     1     -37.729 -50.953  12.927  1.00  0.00     0.168 C 
HETATM    8  O   UNL     1     -37.260 -50.447  14.173  1.00  0.00    -0.391 OA
HETATM    9  C   UNL     1     -38.105 -49.432  14.705  1.00  0.00     0.168 C 
HETATM   10  C   UNL     1     -38.156 -48.232  13.772  1.00  0.00     0.033 C 
ENDBRANCH   3   5
ENDBRANCH   1   3
BRANCH   1  11
HETATM   11  C   UNL     1     -41.425 -50.756  12.280  1.00  0.00     0.291 C 
BRANCH  11  12
HETATM   12  C   UNL     1     -41.351 -52.242  11.934  1.00  0.00     0.178 C 
BRANCH  12  13
HETATM   13  N   UNL     1     -42.407 -53.001  12.569  1.00  0.00    -0.302 N 
HETATM   14  C   UNL     1     -42.323 -53.711  13.731  1.00  0.00     0.111 A 
HETATM   15  C   UNL     1     -43.541 -54.329  13.884  1.00  0.00     0.037 A 
HETATM   16  C   UNL     1     -44.291 -53.924  12.764  1.00  0.00     0.108 A 
HETATM   17  N   UNL     1     -43.607 -53.103  11.966  1.00  0.00    -0.310 N 
ATOM     18  HN  UNL     1     -43.919 -52.656  11.103  1.00  0.00     0.186 HD
ENDBRANCH  12  13
ENDBRANCH  11  12
ENDBRANCH   1  11
TORSDOF 5
ENDMDL
