MODEL 1
REMARK VINA RESULT:      -5.3      0.000      0.000
REMARK  5 active torsions:
REMARK  status: ('A' for Active; 'I' for Inactive)
REMARK    1  A    between atoms: C_2  and  C_3 
REMARK       I    between atoms: C_2  and  N_9 
REMARK    2  A    between atoms: C_3  and  C_4 
REMARK    3  A    between atoms: N_9  and  C_10 
REMARK    4  A    between atoms: C_10  and  C_11 
REMARK    5  A    between atoms: C_11  and  N_12 
ROOT
HETATM    1  O   UNL     1     -43.932 -55.106  15.855  1.00  0.00    -0.274 OA
HETATM    2  C   UNL     1     -44.059 -54.815  14.672  1.00  0.00     0.217 C 
HETATM    3  N   UNL     1     -43.035 -54.272  13.917  1.00  0.00    -0.359 N 
HETATM    4  H   UNL     1     -43.149 -54.255  12.911  1.00  0.00     0.162 HD
ENDROOT
BRANCH   3   5
HETATM    5  C   UNL     1     -41.711 -54.091  14.493  1.00  0.00     0.143 C 
BRANCH   5   6
HETATM    6  C   UNL     1     -40.620 -54.032  13.431  1.00  0.00     0.148 C 
BRANCH   6   7
HETATM    7  N   UNL     1     -40.509 -52.729  12.812  1.00  0.00    -0.350 N 
HETATM    8  C   UNL     1     -39.644 -51.734  13.170  1.00  0.00     0.108 A 
HETATM    9  C   UNL     1     -39.870 -50.725  12.262  1.00  0.00     0.106 A 
HETATM   10  N   UNL     1     -40.844 -51.088  11.368  1.00  0.00    -0.361 N 
HETATM   11  C   UNL     1     -41.209 -52.300  11.722  1.00  0.00     0.182 A 
ATOM     12  HN  UNL     1     -41.208 -50.535  10.591  1.00  0.00     0.166 HD
ENDBRANCH   6   7
ENDBRANCH   5   6
ENDBRANCH   3   5
BRANCH   2  13
HETATM   13  C   UNL     1     -45.346 -54.991  13.882  1.00  0.00     0.107 C 
BRANCH  13  14
HETATM   14  C   UNL     1     -46.246 -53.753  13.892  1.00  0.00    -0.006 C 
HETATM   15  C   UNL     1     -45.919 -52.744  12.781  1.00  0.00     0.005 C 
HETATM   16  C   UNL     1     -46.063 -51.352  13.394  1.00  0.00     0.000 C 
HETATM   17  C   UNL     1     -46.603 -51.564  14.801  1.00  0.00     0.000 C 
HETATM   18  C   UNL     1     -46.109 -52.948  15.185  1.00  0.00     0.005 C 
ENDBRANCH  13  14
ENDBRANCH   2  13
TORSDOF 5
ENDMDL
MODEL 2
REMARK VINA RESULT:      -5.2      3.188      4.807
REMARK  5 active torsions:
REMARK  status: ('A' for Active; 'I' for Inactive)
REMARK    1  A    between atoms: C_2  and  C_3 
REMARK       I    between atoms: C_2  and  N_9 
REMARK    2  A    between atoms: C_3  and  C_4 
REMARK    3  A    between atoms: N_9  and  C_10 
REMARK    4  A    between atoms: C_10  and  C_11 
REMARK    5  A    between atoms: C_11  and  N_12 
ROOT
HETATM    1  O   UNL     1     -39.449 -52.179  12.972  1.00  0.00    -0.274 OA
HETATM    2  C   UNL     1     -40.515 -52.388  12.406  1.00  0.00     0.217 C 
HETATM    3  N   UNL     1     -41.125 -51.457  11.585  1.00  0.00    -0.359 N 
HETATM    4  H   UNL     1     -41.885 -51.774  10.996  1.00  0.00     0.162 HD
ENDROOT
BRANCH   3   5
HETATM    5  C   UNL     1     -40.471 -50.190  11.295  1.00  0.00     0.143 C 
BRANCH   5   6
HETATM    6  C   UNL     1     -41.141 -49.016  11.999  1.00  0.00     0.148 C 
BRANCH   6   7
HETATM    7  N   UNL     1     -41.520 -47.957  11.090  1.00  0.00    -0.350 N 
HETATM    8  C   UNL     1     -42.696 -47.866  10.399  1.00  0.00     0.108 A 
HETATM    9  C   UNL     1     -42.618 -46.670   9.723  1.00  0.00     0.106 A 
HETATM   10  N   UNL     1     -41.431 -46.039   9.992  1.00  0.00    -0.361 N 
HETATM   11  C   UNL     1     -40.791 -46.837  10.818  1.00  0.00     0.182 A 
ATOM     12  HN  UNL     1     -41.112 -45.141   9.627  1.00  0.00     0.166 HD
ENDBRANCH   6   7
ENDBRANCH   5   6
ENDBRANCH   3   5
BRANCH   2  13
HETATM   13  C   UNL     1     -41.316 -53.674  12.537  1.00  0.00     0.107 C 
BRANCH  13  14
HETATM   14  C   UNL     1     -42.619 -53.508  13.322  1.00  0.00    -0.006 C 
HETATM   15  C   UNL     1     -42.804 -54.548  14.437  1.00  0.00     0.005 C 
HETATM   16  C   UNL     1     -44.282 -54.938  14.434  1.00  0.00     0.000 C 
HETATM   17  C   UNL     1     -44.958 -54.025  13.421  1.00  0.00     0.000 C 
HETATM   18  C   UNL     1     -43.854 -53.680  12.436  1.00  0.00     0.005 C 
ENDBRANCH  13  14
ENDBRANCH   2  13
TORSDOF 5
ENDMDL
MODEL 3
REMARK VINA RESULT:      -5.2      1.777      2.243
REMARK  5 active torsions:
REMARK  status: ('A' for Active; 'I' for Inactive)
REMARK    1  A    between atoms: C_2  and  C_3 
REMARK       I    between atoms: C_2  and  N_9 
REMARK    2  A    between atoms: C_3  and  C_4 
REMARK    3  A    between atoms: N_9  and  C_10 
REMARK    4  A    between atoms: C_10  and  C_11 
REMARK    5  A    between atoms: C_11  and  N_12 
ROOT
HETATM    1  O   UNL     1     -43.366 -53.889  13.789  1.00  0.00    -0.274 OA
HETATM    2  C   UNL     1     -43.706 -53.191  12.843  1.00  0.00     0.217 C 
HETATM    3  N   UNL     1     -42.801 -52.532  12.030  1.00  0.00    -0.359 N 
HETATM    4  H   UNL     1     -43.142 -52.151  11.156  1.00  0.00     0.162 HD
ENDROOT
BRANCH   3   5
HETATM    5  C   UNL     1     -41.370 -52.709  12.227  1.00  0.00     0.143 C 
BRANCH   5   6
HETATM    6  C   UNL     1     -40.763 -51.608  13.088  1.00  0.00     0.148 C 
BRANCH   6   7
HETATM    7  N   UNL     1     -39.697 -50.895  12.419  1.00  0.00    -0.350 N 
HETATM    8  C   UNL     1     -38.366 -50.961  12.720  1.00  0.00     0.108 A 
HETATM    9  C   UNL     1     -37.751 -50.165  11.781  1.00  0.00     0.106 A 
HETATM   10  N   UNL     1     -38.675 -49.627  10.923  1.00  0.00    -0.361 N 
HETATM   11  C   UNL     1     -39.838 -50.084  11.330  1.00  0.00     0.182 A 
ATOM     12  HN  UNL     1     -38.497 -49.003  10.135  1.00  0.00     0.166 HD
ENDBRANCH   6   7
ENDBRANCH   5   6
ENDBRANCH   3   5
BRANCH   2  13
HETATM   13  C   UNL     1     -45.151 -52.938  12.443  1.00  0.00     0.107 C 
BRANCH  13  14
HETATM   14  C   UNL     1     -45.866 -51.920  13.335  1.00  0.00    -0.006 C 
HETATM   15  C   UNL     1     -44.913 -51.078  14.195  1.00  0.00     0.005 C 
HETATM   16  C   UNL     1     -45.579 -50.917  15.561  1.00  0.00     0.000 C 
HETATM   17  C   UNL     1     -46.960 -51.542  15.434  1.00  0.00     0.000 C 
HETATM   18  C   UNL     1     -46.795 -52.591  14.348  1.00  0.00     0.005 C 
ENDBRANCH  13  14
ENDBRANCH   2  13
TORSDOF 5
ENDMDL
MODEL 4
REMARK VINA RESULT:      -5.1      4.116      5.333
REMARK  5 active torsions:
REMARK  status: ('A' for Active; 'I' for Inactive)
REMARK    1  A    between atoms: C_2  and  C_3 
REMARK       I    between atoms: C_2  and  N_9 
REMARK    2  A    between atoms: C_3  and  C_4 
REMARK    3  A    between atoms: N_9  and  C_10 
REMARK    4  A    between atoms: C_10  and  C_11 
REMARK    5  A    between atoms: C_11  and  N_12 
ROOT
HETATM    1  O   UNL     1     -43.244 -49.254  14.234  1.00  0.00    -0.274 OA
HETATM    2  C   UNL     1     -43.494 -49.954  13.260  1.00  0.00     0.217 C 
HETATM    3  N   UNL     1     -43.185 -49.579  11.965  1.00  0.00    -0.359 N 
HETATM    4  H   UNL     1     -43.230 -50.289  11.245  1.00  0.00     0.162 HD
ENDROOT
BRANCH   3   5
HETATM    5  C   UNL     1     -42.464 -48.340  11.710  1.00  0.00     0.143 C 
BRANCH   5   6
HETATM    6  C   UNL     1     -43.376 -47.235  11.189  1.00  0.00     0.148 C 
BRANCH   6   7
HETATM    7  N   UNL     1     -43.819 -47.465   9.832  1.00  0.00    -0.350 N 
HETATM    8  C   UNL     1     -43.019 -47.695   8.748  1.00  0.00     0.108 A 
HETATM    9  C   UNL     1     -43.890 -47.912   7.705  1.00  0.00     0.106 A 
HETATM   10  N   UNL     1     -45.189 -47.824   8.133  1.00  0.00    -0.361 N 
HETATM   11  C   UNL     1     -45.116 -47.555   9.418  1.00  0.00     0.182 A 
ATOM     12  HN  UNL     1     -46.034 -47.942   7.574  1.00  0.00     0.166 HD
ENDBRANCH   6   7
ENDBRANCH   5   6
ENDBRANCH   3   5
BRANCH   2  13
HETATM   13  C   UNL     1     -44.185 -51.306  13.334  1.00  0.00     0.107 C 
BRANCH  13  14
HETATM   14  C   UNL     1     -45.046 -51.488  14.586  1.00  0.00    -0.006 C 
HETATM   15  C   UNL     1     -44.903 -52.871  15.237  1.00  0.00     0.005 C 
HETATM   16  C   UNL     1     -46.299 -53.285  15.702  1.00  0.00     0.000 C 
HETATM   17  C   UNL     1     -47.203 -52.088  15.445  1.00  0.00     0.000 C 
HETATM   18  C   UNL     1     -46.541 -51.365  14.284  1.00  0.00     0.005 C 
ENDBRANCH  13  14
ENDBRANCH   2  13
TORSDOF 5
ENDMDL
MODEL 5
REMARK VINA RESULT:      -5.1      2.526      3.554
REMARK  5 active torsions:
REMARK  status: ('A' for Active; 'I' for Inactive)
REMARK    1  A    between atoms: C_2  and  C_3 
REMARK       I    between atoms: C_2  and  N_9 
REMARK    2  A    between atoms: C_3  and  C_4 
REMARK    3  A    between atoms: N_9  and  C_10 
REMARK    4  A    between atoms: C_10  and  C_11 
REMARK    5  A    between atoms: C_11  and  N_12 
ROOT
HETATM    1  O   UNL     1     -41.550 -53.332  12.991  1.00  0.00    -0.274 OA
HETATM    2  C   UNL     1     -42.468 -52.655  12.546  1.00  0.00     0.217 C 
HETATM    3  N   UNL     1     -42.278 -51.404  11.988  1.00  0.00    -0.359 N 
HETATM    4  H   UNL     1     -43.043 -51.002  11.460  1.00  0.00     0.162 HD
ENDROOT
BRANCH   3   5
HETATM    5  C   UNL     1     -40.936 -50.862  11.837  1.00  0.00     0.143 C 
BRANCH   5   6
HETATM    6  C   UNL     1     -40.721 -49.605  12.673  1.00  0.00     0.148 C 
BRANCH   6   7
HETATM    7  N   UNL     1     -40.676 -48.400  11.874  1.00  0.00    -0.350 N 
HETATM    8  C   UNL     1     -39.814 -47.353  12.037  1.00  0.00     0.108 A 
HETATM    9  C   UNL     1     -40.116 -46.483  11.015  1.00  0.00     0.106 A 
HETATM   10  N   UNL     1     -41.132 -46.980  10.241  1.00  0.00    -0.361 N 
HETATM   11  C   UNL     1     -41.449 -48.136  10.781  1.00  0.00     0.182 A 
ATOM     12  HN  UNL     1     -41.553 -46.545   9.419  1.00  0.00     0.166 HD
ENDBRANCH   6   7
ENDBRANCH   5   6
ENDBRANCH   3   5
BRANCH   2  13
HETATM   13  C   UNL     1     -43.928 -53.080  12.558  1.00  0.00     0.107 C 
BRANCH  13  14
HETATM   14  C   UNL     1     -44.730 -52.489  13.720  1.00  0.00    -0.006 C 
HETATM   15  C   UNL     1     -45.560 -53.528  14.488  1.00  0.00     0.005 C 
HETATM   16  C   UNL     1     -46.892 -52.862  14.829  1.00  0.00     0.000 C 
HETATM   17  C   UNL     1     -46.767 -51.412  14.383  1.00  0.00     0.000 C 
HETATM   18  C   UNL     1     -45.757 -51.458  13.248  1.00  0.00     0.005 C 
ENDBRANCH  13  14
ENDBRANCH   2  13
TORSDOF 5
ENDMDL
MODEL 6
REMARK VINA RESULT:      -4.9      4.310      6.410
REMARK  5 active torsions:
REMARK  status: ('A' for Active; 'I' for Inactive)
REMARK    1  A    between atoms: C_2  and  C_3 
REMARK       I    between atoms: C_2  and  N_9 
REMARK    2  A    between atoms: C_3  and  C_4 
REMARK    3  A    between atoms: N_9  and  C_10 
REMARK    4  A    between atoms: C_10  and  C_11 
REMARK    5  A    between atoms: C_11  and  N_12 
ROOT
HETATM    1  O   UNL     1     -43.028 -48.480  13.218  1.00  0.00    -0.274 OA
HETATM    2  C   UNL     1     -42.643 -48.961  12.160  1.00  0.00     0.217 C 
HETATM    3  N   UNL     1     -42.450 -50.318  11.977  1.00  0.00    -0.359 N 
HETATM    4  H   UNL     1     -42.335 -50.655  11.029  1.00  0.00     0.162 HD
ENDROOT
BRANCH   3   5
HETATM    5  C   UNL     1     -42.778 -51.258  13.039  1.00  0.00     0.143 C 
BRANCH   5   6
HETATM    6  C   UNL     1     -42.878 -52.693  12.533  1.00  0.00     0.148 C 
BRANCH   6   7
HETATM    7  N   UNL     1     -44.087 -53.357  12.966  1.00  0.00    -0.350 N 
HETATM    8  C   UNL     1     -44.161 -54.537  13.652  1.00  0.00     0.108 A 
HETATM    9  C   UNL     1     -45.503 -54.727  13.886  1.00  0.00     0.106 A 
HETATM   10  N   UNL     1     -46.237 -53.694  13.363  1.00  0.00    -0.361 N 
HETATM   11  C   UNL     1     -45.358 -52.884  12.816  1.00  0.00     0.182 A 
ATOM     12  HN  UNL     1     -47.250 -53.578  13.391  1.00  0.00     0.166 HD
ENDBRANCH   6   7
ENDBRANCH   5   6
ENDBRANCH   3   5
BRANCH   2  13
HETATM   13  C   UNL     1     -42.311 -48.145  10.920  1.00  0.00     0.107 C 
BRANCH  13  14
HETATM   14  C   UNL     1     -43.346 -47.064  10.601  1.00  0.00    -0.006 C 
HETATM   15  C   UNL     1     -44.661 -47.617  10.034  1.00  0.00     0.005 C 
HETATM   16  C   UNL     1     -45.109 -46.650   8.939  1.00  0.00     0.000 C 
HETATM   17  C   UNL     1     -44.133 -45.484   8.979  1.00  0.00     0.000 C 
HETATM   18  C   UNL     1     -42.853 -46.089   9.530  1.00  0.00     0.005 C 
ENDBRANCH  13  14
ENDBRANCH   2  13
TORSDOF 5
ENDMDL
MODEL 7
REMARK VINA RESULT:      -4.8      3.946      5.599
REMARK  5 active torsions:
REMARK  status: ('A' for Active; 'I' for Inactive)
REMARK    1  A    between atoms: C_2  and  C_3 
REMARK       I    between atoms: C_2  and  N_9 
REMARK    2  A    between atoms: C_3  and  C_4 
REMARK    3  A    between atoms: N_9  and  C_10 
REMARK    4  A    between atoms: C_10  and  C_11 
REMARK    5  A    between atoms: C_11  and  N_12 
ROOT
HETATM    1  O   UNL     1     -41.416 -50.594  13.731  1.00  0.00    -0.274 OA
HETATM    2  C   UNL     1     -41.339 -51.019  12.585  1.00  0.00     0.217 C 
HETATM    3  N   UNL     1     -41.726 -50.279  11.482  1.00  0.00    -0.359 N 
HETATM    4  H   UNL     1     -41.441 -50.611  10.568  1.00  0.00     0.162 HD
ENDROOT
BRANCH   3   5
HETATM    5  C   UNL     1     -42.179 -48.905  11.639  1.00  0.00     0.143 C 
BRANCH   5   6
HETATM    6  C   UNL     1     -41.579 -47.974  10.592  1.00  0.00     0.148 C 
BRANCH   6   7
HETATM    7  N   UNL     1     -42.583 -47.244   9.848  1.00  0.00    -0.350 N 
HETATM    8  C   UNL     1     -42.935 -45.936  10.032  1.00  0.00     0.108 A 
HETATM    9  C   UNL     1     -43.876 -45.683   9.061  1.00  0.00     0.106 A 
HETATM   10  N   UNL     1     -44.095 -46.800   8.297  1.00  0.00    -0.361 N 
HETATM   11  C   UNL     1     -43.303 -47.724   8.793  1.00  0.00     0.182 A 
ATOM     12  HN  UNL     1     -44.738 -46.894   7.510  1.00  0.00     0.166 HD
ENDBRANCH   6   7
ENDBRANCH   5   6
ENDBRANCH   3   5
BRANCH   2  13
HETATM   13  C   UNL     1     -40.832 -52.405  12.218  1.00  0.00     0.107 C 
BRANCH  13  14
HETATM   14  C   UNL     1     -41.752 -53.537  12.682  1.00  0.00    -0.006 C 
HETATM   15  C   UNL     1     -43.240 -53.158  12.689  1.00  0.00     0.005 C 
HETATM   16  C   UNL     1     -43.850 -53.794  13.938  1.00  0.00     0.000 C 
HETATM   17  C   UNL     1     -42.750 -54.642  14.560  1.00  0.00     0.000 C 
HETATM   18  C   UNL     1     -41.464 -53.964  14.122  1.00  0.00     0.005 C 
ENDBRANCH  13  14
ENDBRANCH   2  13
TORSDOF 5
ENDMDL
MODEL 8
REMARK VINA RESULT:      -4.7      1.954      3.281
REMARK  5 active torsions:
REMARK  status: ('A' for Active; 'I' for Inactive)
REMARK    1  A    between atoms: C_2  and  C_3 
REMARK       I    between atoms: C_2  and  N_9 
REMARK    2  A    between atoms: C_3  and  C_4 
REMARK    3  A    between atoms: N_9  and  C_10 
REMARK    4  A    between atoms: C_10  and  C_11 
REMARK    5  A    between atoms: C_11  and  N_12 
ROOT
HETATM    1  O   UNL     1     -43.536 -49.990  14.604  1.00  0.00    -0.274 OA
HETATM    2  C   UNL     1     -43.935 -50.530  13.580  1.00  0.00     0.217 C 
HETATM    3  N   UNL     1     -43.233 -50.496  12.389  1.00  0.00    -0.359 N 
HETATM    4  H   UNL     1     -43.518 -51.132  11.655  1.00  0.00     0.162 HD
ENDROOT
BRANCH   3   5
HETATM    5  C   UNL     1     -41.923 -49.864  12.324  1.00  0.00     0.143 C 
BRANCH   5   6
HETATM    6  C   UNL     1     -40.833 -50.834  11.882  1.00  0.00     0.148 C 
BRANCH   6   7
HETATM    7  N   UNL     1     -40.708 -51.977  12.761  1.00  0.00    -0.350 N 
HETATM    8  C   UNL     1     -40.426 -51.942  14.098  1.00  0.00     0.108 A 
HETATM    9  C   UNL     1     -40.472 -53.256  14.503  1.00  0.00     0.106 A 
HETATM   10  N   UNL     1     -40.777 -54.077  13.449  1.00  0.00    -0.361 N 
HETATM   11  C   UNL     1     -40.915 -53.280  12.413  1.00  0.00     0.182 A 
ATOM     12  HN  UNL     1     -40.876 -55.093  13.464  1.00  0.00     0.166 HD
ENDBRANCH   6   7
ENDBRANCH   5   6
ENDBRANCH   3   5
BRANCH   2  13
HETATM   13  C   UNL     1     -45.247 -51.290  13.470  1.00  0.00     0.107 C 
BRANCH  13  14
HETATM   14  C   UNL     1     -45.260 -52.610  14.245  1.00  0.00    -0.006 C 
HETATM   15  C   UNL     1     -44.533 -53.755  13.525  1.00  0.00     0.005 C 
HETATM   16  C   UNL     1     -45.361 -55.018  13.759  1.00  0.00     0.000 C 
HETATM   17  C   UNL     1     -46.472 -54.623  14.721  1.00  0.00     0.000 C 
HETATM   18  C   UNL     1     -46.678 -53.140  14.462  1.00  0.00     0.005 C 
ENDBRANCH  13  14
ENDBRANCH   2  13
TORSDOF 5
ENDMDL
MODEL 9
REMARK VINA RESULT:      -4.5      2.236      3.250
REMARK  5 active torsions:
REMARK  status: ('A' for Active; 'I' for Inactive)
REMARK    1  A    between atoms: C_2  and  C_3 
REMARK       I    between atoms: C_2  and  N_9 
REMARK    2  A    between atoms: C_3  and  C_4 
REMARK    3  A    between atoms: N_9  and  C_10 
REMARK    4  A    between atoms: C_10  and  C_11 
REMARK    5  A    between atoms: C_11  and  N_12 
ROOT
HETATM    1  O   UNL     1     -44.150 -50.916  14.893  1.00  0.00    -0.274 OA
HETATM    2  C   UNL     1     -44.281 -51.124  13.693  1.00  0.00     0.217 C 
HETATM    3  N   UNL     1     -43.215 -51.132  12.811  1.00  0.00    -0.359 N 
HETATM    4  H   UNL     1     -43.372 -51.512  11.886  1.00  0.00     0.162 HD
ENDROOT
BRANCH   3   5
HETATM    5  C   UNL     1     -41.854 -50.964  13.299  1.00  0.00     0.143 C 
BRANCH   5   6
HETATM    6  C   UNL     1     -41.240 -49.640  12.859  1.00  0.00     0.148 C 
BRANCH   6   7
HETATM    7  N   UNL     1     -39.874 -49.778  12.404  1.00  0.00    -0.350 N 
HETATM    8  C   UNL     1     -39.030 -50.817  12.681  1.00  0.00     0.108 A 
HETATM    9  C   UNL     1     -37.878 -50.531  11.985  1.00  0.00     0.106 A 
HETATM   10  N   UNL     1     -38.008 -49.354  11.296  1.00  0.00    -0.361 N 
HETATM   11  C   UNL     1     -39.220 -48.923  11.565  1.00  0.00     0.182 A 
ATOM     12  HN  UNL     1     -37.311 -48.906  10.700  1.00  0.00     0.166 HD
ENDBRANCH   6   7
ENDBRANCH   5   6
ENDBRANCH   3   5
BRANCH   2  13
HETATM   13  C   UNL     1     -45.614 -51.382  13.011  1.00  0.00     0.107 C 
BRANCH  13  14
HETATM   14  C   UNL     1     -46.118 -52.818  13.170  1.00  0.00    -0.006 C 
HETATM   15  C   UNL     1     -46.798 -53.087  14.520  1.00  0.00     0.005 C 
HETATM   16  C   UNL     1     -46.364 -54.484  14.961  1.00  0.00     0.000 C 
HETATM   17  C   UNL     1     -45.557 -55.061  13.807  1.00  0.00     0.000 C 
HETATM   18  C   UNL     1     -44.981 -53.840  13.110  1.00  0.00     0.005 C 
ENDBRANCH  13  14
ENDBRANCH   2  13
TORSDOF 5
ENDMDL
