MODEL 1
REMARK VINA RESULT:      -5.1      0.000      0.000
REMARK  1 active torsions:
REMARK  status: ('A' for Active; 'I' for Inactive)
REMARK    1  A    between atoms: C_6  and  C_7 
ROOT
HETATM    1  O   UNL     1     -27.773 -60.434  17.428  1.00  0.00    -0.273 OA
HETATM    2  C   UNL     1     -28.426 -61.368  16.997  1.00  0.00     0.226 C 
HETATM    3  N   UNL     1     -29.345 -62.089  17.736  1.00  0.00    -0.360 N 
HETATM    4  C   UNL     1     -29.833 -63.233  17.027  1.00  0.00     0.123 C 
HETATM    5  C   UNL     1     -29.594 -62.863  15.574  1.00  0.00     0.038 C 
HETATM    6  C   UNL     1     -28.325 -61.994  15.615  1.00  0.00     0.113 C 
HETATM    7  H   UNL     1     -29.453 -61.912  18.728  1.00  0.00     0.162 HD
ENDROOT
BRANCH   6   8
HETATM    8  C   UNL     1     -27.068 -62.803  15.391  1.00  0.00    -0.030 A 
HETATM    9  C   UNL     1     -25.816 -62.178  15.423  1.00  0.00     0.011 A 
HETATM   10  C   UNL     1     -24.663 -62.916  15.169  1.00  0.00     0.018 A 
HETATM   11  C   UNL     1     -24.798 -64.262  14.878  1.00  0.00     0.087 A 
HETATM   12  N   UNL     1     -25.981 -64.904  14.834  1.00  0.00    -0.375 N 
HETATM   13  C   UNL     1     -27.084 -64.167  15.099  1.00  0.00     0.095 A 
ATOM     14  HN  UNL     1     -26.043 -65.898  14.612  1.00  0.00     0.164 HD
ENDBRANCH   6   8
TORSDOF 1
ENDMDL
MODEL 2
REMARK VINA RESULT:      -4.9     17.469     19.187
REMARK  1 active torsions:
REMARK  status: ('A' for Active; 'I' for Inactive)
REMARK    1  A    between atoms: C_6  and  C_7 
ROOT
HETATM    1  O   UNL     1     -45.731 -55.888  13.727  1.00  0.00    -0.273 OA
HETATM    2  C   UNL     1     -45.662 -54.742  14.137  1.00  0.00     0.226 C 
HETATM    3  N   UNL     1     -46.677 -53.810  14.034  1.00  0.00    -0.360 N 
HETATM    4  C   UNL     1     -46.258 -52.504  14.443  1.00  0.00     0.123 C 
HETATM    5  C   UNL     1     -45.079 -52.792  15.355  1.00  0.00     0.038 C 
HETATM    6  C   UNL     1     -44.451 -54.065  14.760  1.00  0.00     0.113 C 
HETATM    7  H   UNL     1     -47.522 -54.031  13.519  1.00  0.00     0.162 HD
ENDROOT
BRANCH   6   8
HETATM    8  C   UNL     1     -43.341 -53.755  13.782  1.00  0.00    -0.030 A 
HETATM    9  C   UNL     1     -42.030 -54.156  14.058  1.00  0.00     0.011 A 
HETATM   10  C   UNL     1     -41.001 -53.828  13.179  1.00  0.00     0.018 A 
HETATM   11  C   UNL     1     -41.316 -53.094  12.048  1.00  0.00     0.087 A 
HETATM   12  N   UNL     1     -42.563 -52.685  11.744  1.00  0.00    -0.375 N 
HETATM   13  C   UNL     1     -43.545 -53.030  12.608  1.00  0.00     0.095 A 
ATOM     14  HN  UNL     1     -42.757 -52.141  10.903  1.00  0.00     0.164 HD
ENDBRANCH   6   8
TORSDOF 1
ENDMDL
MODEL 3
REMARK VINA RESULT:      -4.9     21.852     23.257
REMARK  1 active torsions:
REMARK  status: ('A' for Active; 'I' for Inactive)
REMARK    1  A    between atoms: C_6  and  C_7 
ROOT
HETATM    1  O   UNL     1     -44.156 -44.284   9.199  1.00  0.00    -0.273 OA
HETATM    2  C   UNL     1     -44.271 -45.475   8.968  1.00  0.00     0.226 C 
HETATM    3  N   UNL     1     -45.467 -46.167   8.995  1.00  0.00    -0.360 N 
HETATM    4  C   UNL     1     -45.279 -47.579   8.855  1.00  0.00     0.123 C 
HETATM    5  C   UNL     1     -43.933 -47.680   8.160  1.00  0.00     0.038 C 
HETATM    6  C   UNL     1     -43.151 -46.465   8.689  1.00  0.00     0.113 C 
HETATM    7  H   UNL     1     -46.316 -45.706   9.301  1.00  0.00     0.162 HD
ENDROOT
BRANCH   6   8
HETATM    8  C   UNL     1     -42.309 -46.806   9.898  1.00  0.00    -0.030 A 
HETATM    9  C   UNL     1     -41.727 -45.786  10.658  1.00  0.00     0.011 A 
HETATM   10  C   UNL     1     -40.914 -46.104  11.743  1.00  0.00     0.018 A 
HETATM   11  C   UNL     1     -40.696 -47.441  12.029  1.00  0.00     0.087 A 
HETATM   12  N   UNL     1     -41.234 -48.455  11.323  1.00  0.00    -0.375 N 
HETATM   13  C   UNL     1     -42.032 -48.118  10.284  1.00  0.00     0.095 A 
ATOM     14  HN  UNL     1     -41.048 -49.430  11.561  1.00  0.00     0.164 HD
ENDBRANCH   6   8
TORSDOF 1
ENDMDL
MODEL 4
REMARK VINA RESULT:      -4.7     18.667     20.009
REMARK  1 active torsions:
REMARK  status: ('A' for Active; 'I' for Inactive)
REMARK    1  A    between atoms: C_6  and  C_7 
ROOT
HETATM    1  O   UNL     1     -44.962 -54.615  12.809  1.00  0.00    -0.273 OA
HETATM    2  C   UNL     1     -45.273 -53.461  13.044  1.00  0.00     0.226 C 
HETATM    3  N   UNL     1     -46.415 -52.843  12.571  1.00  0.00    -0.360 N 
HETATM    4  C   UNL     1     -46.434 -51.442  12.861  1.00  0.00     0.123 C 
HETATM    5  C   UNL     1     -45.500 -51.325  14.052  1.00  0.00     0.038 C 
HETATM    6  C   UNL     1     -44.460 -52.435  13.818  1.00  0.00     0.113 C 
HETATM    7  H   UNL     1     -47.020 -53.325  11.915  1.00  0.00     0.162 HD
ENDROOT
BRANCH   6   8
HETATM    8  C   UNL     1     -43.238 -51.930  13.085  1.00  0.00    -0.030 A 
HETATM    9  C   UNL     1     -42.838 -50.596  13.223  1.00  0.00     0.011 A 
HETATM   10  C   UNL     1     -41.740 -50.121  12.510  1.00  0.00     0.018 A 
HETATM   11  C   UNL     1     -41.078 -50.996  11.667  1.00  0.00     0.087 A 
HETATM   12  N   UNL     1     -41.429 -52.287  11.502  1.00  0.00    -0.375 N 
HETATM   13  C   UNL     1     -42.490 -52.726  12.217  1.00  0.00     0.095 A 
ATOM     14  HN  UNL     1     -40.920 -52.903  10.868  1.00  0.00     0.164 HD
ENDBRANCH   6   8
TORSDOF 1
ENDMDL
MODEL 5
REMARK VINA RESULT:      -4.6     18.158     20.295
REMARK  1 active torsions:
REMARK  status: ('A' for Active; 'I' for Inactive)
REMARK    1  A    between atoms: C_6  and  C_7 
ROOT
HETATM    1  O   UNL     1     -43.457 -55.718  15.461  1.00  0.00    -0.273 OA
HETATM    2  C   UNL     1     -43.458 -54.948  14.516  1.00  0.00     0.226 C 
HETATM    3  N   UNL     1     -42.332 -54.327  14.010  1.00  0.00    -0.360 N 
HETATM    4  C   UNL     1     -42.653 -53.349  13.016  1.00  0.00     0.123 C 
HETATM    5  C   UNL     1     -44.012 -53.803  12.514  1.00  0.00     0.038 C 
HETATM    6  C   UNL     1     -44.670 -54.441  13.750  1.00  0.00     0.113 C 
HETATM    7  H   UNL     1     -41.439 -54.429  14.479  1.00  0.00     0.162 HD
ENDROOT
BRANCH   6   8
HETATM    8  C   UNL     1     -45.522 -53.457  14.519  1.00  0.00    -0.030 A 
HETATM    9  C   UNL     1     -46.083 -52.354  13.865  1.00  0.00     0.011 A 
HETATM   10  C   UNL     1     -46.828 -51.423  14.585  1.00  0.00     0.018 A 
HETATM   11  C   UNL     1     -46.982 -51.619  15.946  1.00  0.00     0.087 A 
HETATM   12  N   UNL     1     -46.459 -52.664  16.616  1.00  0.00    -0.375 N 
HETATM   13  C   UNL     1     -45.752 -53.560  15.891  1.00  0.00     0.095 A 
ATOM     14  HN  UNL     1     -46.590 -52.774  17.622  1.00  0.00     0.164 HD
ENDBRANCH   6   8
TORSDOF 1
ENDMDL
MODEL 6
REMARK VINA RESULT:      -4.5     20.455     21.542
REMARK  1 active torsions:
REMARK  status: ('A' for Active; 'I' for Inactive)
REMARK    1  A    between atoms: C_6  and  C_7 
ROOT
HETATM    1  O   UNL     1     -45.314 -54.675  12.941  1.00  0.00    -0.273 OA
HETATM    2  C   UNL     1     -45.332 -53.459  13.018  1.00  0.00     0.226 C 
HETATM    3  N   UNL     1     -44.295 -52.633  12.628  1.00  0.00    -0.360 N 
HETATM    4  C   UNL     1     -44.523 -51.268  12.992  1.00  0.00     0.123 C 
HETATM    5  C   UNL     1     -46.034 -51.196  13.126  1.00  0.00     0.038 C 
HETATM    6  C   UNL     1     -46.430 -52.597  13.622  1.00  0.00     0.113 C 
HETATM    7  H   UNL     1     -43.412 -53.030  12.327  1.00  0.00     0.162 HD
ENDROOT
BRANCH   6   8
HETATM    8  C   UNL     1     -46.516 -52.669  15.130  1.00  0.00    -0.030 A 
HETATM    9  C   UNL     1     -47.225 -51.693  15.839  1.00  0.00     0.011 A 
HETATM   10  C   UNL     1     -47.263 -51.734  17.231  1.00  0.00     0.018 A 
HETATM   11  C   UNL     1     -46.579 -52.750  17.875  1.00  0.00     0.087 A 
HETATM   12  N   UNL     1     -45.882 -53.708  17.233  1.00  0.00    -0.375 N 
HETATM   13  C   UNL     1     -45.874 -53.653  15.882  1.00  0.00     0.095 A 
ATOM     14  HN  UNL     1     -45.386 -54.440  17.742  1.00  0.00     0.164 HD
ENDBRANCH   6   8
TORSDOF 1
ENDMDL
MODEL 7
REMARK VINA RESULT:      -4.5      2.121      2.533
REMARK  1 active torsions:
REMARK  status: ('A' for Active; 'I' for Inactive)
REMARK    1  A    between atoms: C_6  and  C_7 
ROOT
HETATM    1  O   UNL     1     -29.642 -61.113  18.138  1.00  0.00    -0.273 OA
HETATM    2  C   UNL     1     -29.254 -61.989  17.385  1.00  0.00     0.226 C 
HETATM    3  N   UNL     1     -29.389 -63.344  17.623  1.00  0.00    -0.360 N 
HETATM    4  C   UNL     1     -28.692 -64.136  16.656  1.00  0.00     0.123 C 
HETATM    5  C   UNL     1     -28.588 -63.206  15.461  1.00  0.00     0.038 C 
HETATM    6  C   UNL     1     -28.481 -61.805  16.089  1.00  0.00     0.113 C 
HETATM    7  H   UNL     1     -29.757 -63.672  18.509  1.00  0.00     0.162 HD
ENDROOT
BRANCH   6   8
HETATM    8  C   UNL     1     -27.045 -61.370  16.279  1.00  0.00    -0.030 A 
HETATM    9  C   UNL     1     -26.185 -61.288  15.179  1.00  0.00     0.011 A 
HETATM   10  C   UNL     1     -24.851 -60.933  15.363  1.00  0.00     0.018 A 
HETATM   11  C   UNL     1     -24.412 -60.680  16.651  1.00  0.00     0.087 A 
HETATM   12  N   UNL     1     -25.204 -60.749  17.739  1.00  0.00    -0.375 N 
HETATM   13  C   UNL     1     -26.499 -61.082  17.530  1.00  0.00     0.095 A 
ATOM     14  HN  UNL     1     -24.845 -60.560  18.675  1.00  0.00     0.164 HD
ENDBRANCH   6   8
TORSDOF 1
ENDMDL
MODEL 8
REMARK VINA RESULT:      -4.4     16.331     17.305
REMARK  1 active torsions:
REMARK  status: ('A' for Active; 'I' for Inactive)
REMARK    1  A    between atoms: C_6  and  C_7 
ROOT
HETATM    1  O   UNL     1     -40.420 -48.743  12.421  1.00  0.00    -0.273 OA
HETATM    2  C   UNL     1     -39.385 -49.381  12.333  1.00  0.00     0.226 C 
HETATM    3  N   UNL     1     -38.479 -49.268  11.296  1.00  0.00    -0.360 N 
HETATM    4  C   UNL     1     -37.448 -50.258  11.366  1.00  0.00     0.123 C 
HETATM    5  C   UNL     1     -37.439 -50.641  12.835  1.00  0.00     0.038 C 
HETATM    6  C   UNL     1     -38.906 -50.479  13.270  1.00  0.00     0.113 C 
HETATM    7  H   UNL     1     -38.691 -48.684  10.494  1.00  0.00     0.162 HD
ENDROOT
BRANCH   6   8
HETATM    8  C   UNL     1     -39.682 -51.772  13.160  1.00  0.00    -0.030 A 
HETATM    9  C   UNL     1     -39.384 -52.844  14.009  1.00  0.00     0.011 A 
HETATM   10  C   UNL     1     -40.068 -54.049  13.874  1.00  0.00     0.018 A 
HETATM   11  C   UNL     1     -41.028 -54.150  12.883  1.00  0.00     0.087 A 
HETATM   12  N   UNL     1     -41.346 -53.146  12.043  1.00  0.00    -0.375 N 
HETATM   13  C   UNL     1     -40.677 -51.982  12.205  1.00  0.00     0.095 A 
ATOM     14  HN  UNL     1     -42.058 -53.258  11.320  1.00  0.00     0.164 HD
ENDBRANCH   6   8
TORSDOF 1
ENDMDL
MODEL 9
REMARK VINA RESULT:      -4.3      2.256      4.058
REMARK  1 active torsions:
REMARK  status: ('A' for Active; 'I' for Inactive)
REMARK    1  A    between atoms: C_6  and  C_7 
ROOT
HETATM    1  O   UNL     1     -29.699 -62.433  15.431  1.00  0.00    -0.273 OA
HETATM    2  C   UNL     1     -28.538 -62.799  15.493  1.00  0.00     0.226 C 
HETATM    3  N   UNL     1     -28.133 -64.118  15.562  1.00  0.00    -0.360 N 
HETATM    4  C   UNL     1     -26.727 -64.243  15.799  1.00  0.00     0.123 C 
HETATM    5  C   UNL     1     -26.176 -62.919  15.299  1.00  0.00     0.038 C 
HETATM    6  C   UNL     1     -27.304 -61.914  15.590  1.00  0.00     0.113 C 
HETATM    7  H   UNL     1     -28.820 -64.858  15.651  1.00  0.00     0.162 HD
ENDROOT
BRANCH   6   8
HETATM    8  C   UNL     1     -27.134 -61.232  16.929  1.00  0.00    -0.030 A 
HETATM    9  C   UNL     1     -28.252 -60.746  17.616  1.00  0.00     0.011 A 
HETATM   10  C   UNL     1     -28.089 -60.076  18.826  1.00  0.00     0.018 A 
HETATM   11  C   UNL     1     -26.804 -59.903  19.310  1.00  0.00     0.087 A 
HETATM   12  N   UNL     1     -25.700 -60.353  18.682  1.00  0.00    -0.375 N 
HETATM   13  C   UNL     1     -25.888 -61.012  17.517  1.00  0.00     0.095 A 
ATOM     14  HN  UNL     1     -24.767 -60.204  19.068  1.00  0.00     0.164 HD
ENDBRANCH   6   8
TORSDOF 1
ENDMDL
