MODEL 1
REMARK VINA RESULT:      -5.8      0.000      0.000
REMARK  4 active torsions:
REMARK  status: ('A' for Active; 'I' for Inactive)
REMARK    1  A    between atoms: C_2  and  N_3 
REMARK    2  A    between atoms: C_6  and  C_7 
REMARK    3  A    between atoms: C_7  and  N_8 
REMARK       I    between atoms: N_8  and  C_9 
REMARK       I    between atoms: C_9  and  N_11 
REMARK    4  A    between atoms: N_11  and  C_12 
ROOT
HETATM    1  N   UNL     1     -41.636 -53.270  12.457  1.00  0.00    -0.342 N 
HETATM    2  C   UNL     1     -41.263 -51.976  12.647  1.00  0.00     0.321 C 
HETATM    3  O   UNL     1     -41.182 -51.419  13.725  1.00  0.00    -0.247 OA
HETATM    4  N   UNL     1     -40.967 -51.331  11.413  1.00  0.00    -0.293 N 
HETATM    5  H   UNL     1     -41.884 -53.639  11.547  1.00  0.00     0.164 HD
HETATM    6  H   UNL     1     -41.026 -51.870  10.562  1.00  0.00     0.172 HD
ENDROOT
BRANCH   1   7
HETATM    7  C   UNL     1     -42.064 -54.041  13.609  1.00  0.00     0.130 C 
BRANCH   7   8
HETATM    8  C   UNL     1     -43.568 -54.340  13.653  1.00  0.00     0.033 C 
HETATM    9  C   UNL     1     -44.326 -53.722  12.477  1.00  0.00     0.038 C 
HETATM   10  C   UNL     1     -44.935 -52.429  13.025  1.00  0.00     0.273 C 
HETATM   11  N   UNL     1     -44.429 -52.315  14.406  1.00  0.00     0.088 N 
HETATM   12  C   UNL     1     -44.253 -53.707  14.857  1.00  0.00     0.278 C 
BRANCH  11  13
HETATM   13  C   UNL     1     -45.341 -51.592  15.299  1.00  0.00     0.268 C 
HETATM   14  C   UNL     1     -46.728 -51.425  14.693  1.00  0.00     0.037 C 
ENDBRANCH  11  13
ENDBRANCH   7   8
ENDBRANCH   1   7
BRANCH   4  15
HETATM   15  C   UNL     1     -40.571 -49.994  11.346  1.00  0.00     0.127 A 
HETATM   16  C   UNL     1     -41.363 -48.892  11.105  1.00  0.00     0.076 A 
HETATM   17  C   UNL     1     -40.504 -47.777  11.157  1.00  0.00     0.025 A 
HETATM   18  C   UNL     1     -40.878 -46.354  10.977  1.00  0.00     0.070 C 
HETATM   19  N   UNL     1     -39.242 -48.142  11.400  1.00  0.00    -0.302 N 
HETATM   20  N   UNL     1     -39.303 -49.484  11.509  1.00  0.00    -0.281 N 
ATOM     21  HN  UNL     1     -38.421 -47.542  11.483  1.00  0.00     0.186 HD
HETATM   22  C   UNL     1     -38.087 -50.211  11.785  1.00  0.00     0.179 C 
ENDBRANCH   4  15
TORSDOF 4
ENDMDL
MODEL 2
REMARK VINA RESULT:      -5.8      4.024      5.868
REMARK  4 active torsions:
REMARK  status: ('A' for Active; 'I' for Inactive)
REMARK    1  A    between atoms: C_2  and  N_3 
REMARK    2  A    between atoms: C_6  and  C_7 
REMARK    3  A    between atoms: C_7  and  N_8 
REMARK       I    between atoms: N_8  and  C_9 
REMARK       I    between atoms: C_9  and  N_11 
REMARK    4  A    between atoms: N_11  and  C_12 
ROOT
HETATM    1  N   UNL     1     -40.364 -49.910  10.735  1.00  0.00    -0.342 N 
HETATM    2  C   UNL     1     -41.446 -49.096  10.867  1.00  0.00     0.321 C 
HETATM    3  O   UNL     1     -42.124 -48.986  11.871  1.00  0.00    -0.247 OA
HETATM    4  N   UNL     1     -41.699 -48.366   9.673  1.00  0.00    -0.293 N 
HETATM    5  H   UNL     1     -39.949 -50.125   9.836  1.00  0.00     0.164 HD
HETATM    6  H   UNL     1     -41.071 -48.486   8.892  1.00  0.00     0.172 HD
ENDROOT
BRANCH   1   7
HETATM    7  C   UNL     1     -40.028 -50.796  11.834  1.00  0.00     0.130 C 
BRANCH   7   8
HETATM    8  C   UNL     1     -38.613 -50.607  12.394  1.00  0.00     0.033 C 
HETATM    9  C   UNL     1     -38.438 -51.237  13.777  1.00  0.00     0.038 C 
HETATM   10  C   UNL     1     -38.594 -50.082  14.769  1.00  0.00     0.273 C 
HETATM   11  N   UNL     1     -38.946 -48.908  13.948  1.00  0.00     0.088 N 
HETATM   12  C   UNL     1     -38.280 -49.143  12.654  1.00  0.00     0.278 C 
BRANCH  11  13
HETATM   13  C   UNL     1     -38.504 -47.638  14.536  1.00  0.00     0.268 C 
HETATM   14  C   UNL     1     -36.989 -47.556  14.658  1.00  0.00     0.037 C 
ENDBRANCH  11  13
ENDBRANCH   7   8
ENDBRANCH   1   7
BRANCH   4  15
HETATM   15  C   UNL     1     -42.764 -47.470   9.557  1.00  0.00     0.127 A 
HETATM   16  C   UNL     1     -44.012 -47.709   9.024  1.00  0.00     0.076 A 
HETATM   17  C   UNL     1     -44.729 -46.504   9.153  1.00  0.00     0.025 A 
HETATM   18  C   UNL     1     -46.130 -46.250   8.742  1.00  0.00     0.070 C 
HETATM   19  N   UNL     1     -43.984 -45.550   9.719  1.00  0.00    -0.302 N 
HETATM   20  N   UNL     1     -42.801 -46.153   9.954  1.00  0.00    -0.281 N 
ATOM     21  HN  UNL     1     -44.249 -44.587   9.926  1.00  0.00     0.186 HD
HETATM   22  C   UNL     1     -41.748 -45.389  10.580  1.00  0.00     0.179 C 
ENDBRANCH   4  15
TORSDOF 4
ENDMDL
MODEL 3
REMARK VINA RESULT:      -5.7      1.967      6.606
REMARK  4 active torsions:
REMARK  status: ('A' for Active; 'I' for Inactive)
REMARK    1  A    between atoms: C_2  and  N_3 
REMARK    2  A    between atoms: C_6  and  C_7 
REMARK    3  A    between atoms: C_7  and  N_8 
REMARK       I    between atoms: N_8  and  C_9 
REMARK       I    between atoms: C_9  and  N_11 
REMARK    4  A    between atoms: N_11  and  C_12 
ROOT
HETATM    1  N   UNL     1     -40.492 -50.845  11.257  1.00  0.00    -0.342 N 
HETATM    2  C   UNL     1     -41.364 -51.341  12.175  1.00  0.00     0.321 C 
HETATM    3  O   UNL     1     -41.864 -50.705  13.083  1.00  0.00    -0.247 OA
HETATM    4  N   UNL     1     -41.635 -52.719  11.947  1.00  0.00    -0.293 N 
HETATM    5  H   UNL     1     -39.946 -51.440  10.645  1.00  0.00     0.164 HD
HETATM    6  H   UNL     1     -41.207 -53.169  11.151  1.00  0.00     0.172 HD
ENDROOT
BRANCH   1   7
HETATM    7  C   UNL     1     -40.036 -49.475  11.406  1.00  0.00     0.130 C 
BRANCH   7   8
HETATM    8  C   UNL     1     -38.545 -49.332  11.737  1.00  0.00     0.033 C 
HETATM    9  C   UNL     1     -37.862 -50.680  11.970  1.00  0.00     0.038 C 
HETATM   10  C   UNL     1     -37.812 -50.849  13.491  1.00  0.00     0.273 C 
HETATM   11  N   UNL     1     -38.538 -49.685  14.035  1.00  0.00     0.088 N 
HETATM   12  C   UNL     1     -38.308 -48.608  13.056  1.00  0.00     0.278 C 
BRANCH  11  13
HETATM   13  C   UNL     1     -38.070 -49.283  15.368  1.00  0.00     0.268 C 
HETATM   14  C   UNL     1     -36.972 -48.232  15.299  1.00  0.00     0.037 C 
ENDBRANCH  11  13
ENDBRANCH   7   8
ENDBRANCH   1   7
BRANCH   4  15
HETATM   15  C   UNL     1     -42.494 -53.456  12.764  1.00  0.00     0.127 A 
HETATM   16  C   UNL     1     -43.843 -53.673  12.589  1.00  0.00     0.076 A 
HETATM   17  C   UNL     1     -44.250 -54.488  13.663  1.00  0.00     0.025 A 
HETATM   18  C   UNL     1     -45.611 -55.015  13.919  1.00  0.00     0.070 C 
HETATM   19  N   UNL     1     -43.230 -54.762  14.482  1.00  0.00    -0.302 N 
HETATM   20  N   UNL     1     -42.180 -54.128  13.923  1.00  0.00    -0.281 N 
ATOM     21  HN  UNL     1     -43.243 -55.322  15.335  1.00  0.00     0.186 HD
HETATM   22  C   UNL     1     -40.891 -54.228  14.565  1.00  0.00     0.179 C 
ENDBRANCH   4  15
TORSDOF 4
ENDMDL
MODEL 4
REMARK VINA RESULT:      -5.6      2.279      3.884
REMARK  4 active torsions:
REMARK  status: ('A' for Active; 'I' for Inactive)
REMARK    1  A    between atoms: C_2  and  N_3 
REMARK    2  A    between atoms: C_6  and  C_7 
REMARK    3  A    between atoms: C_7  and  N_8 
REMARK       I    between atoms: N_8  and  C_9 
REMARK       I    between atoms: C_9  and  N_11 
REMARK    4  A    between atoms: N_11  and  C_12 
ROOT
HETATM    1  N   UNL     1     -42.023 -51.462  11.978  1.00  0.00    -0.342 N 
HETATM    2  C   UNL     1     -41.997 -50.104  12.058  1.00  0.00     0.321 C 
HETATM    3  O   UNL     1     -42.479 -49.445  12.959  1.00  0.00    -0.247 OA
HETATM    4  N   UNL     1     -41.324 -49.529  10.944  1.00  0.00    -0.293 N 
HETATM    5  H   UNL     1     -41.794 -51.964  11.128  1.00  0.00     0.164 HD
HETATM    6  H   UNL     1     -40.921 -50.145  10.253  1.00  0.00     0.172 HD
ENDROOT
BRANCH   1   7
HETATM    7  C   UNL     1     -42.758 -52.200  12.989  1.00  0.00     0.130 C 
BRANCH   7   8
HETATM    8  C   UNL     1     -42.446 -53.701  13.035  1.00  0.00     0.033 C 
HETATM    9  C   UNL     1     -42.740 -54.322  14.400  1.00  0.00     0.038 C 
HETATM   10  C   UNL     1     -41.387 -54.389  15.113  1.00  0.00     0.273 C 
HETATM   11  N   UNL     1     -40.434 -53.728  14.201  1.00  0.00     0.088 N 
HETATM   12  C   UNL     1     -40.962 -53.993  12.851  1.00  0.00     0.278 C 
BRANCH  11  13
HETATM   13  C   UNL     1     -39.062 -54.236  14.330  1.00  0.00     0.268 C 
HETATM   14  C   UNL     1     -38.919 -55.219  15.482  1.00  0.00     0.037 C 
ENDBRANCH  11  13
ENDBRANCH   7   8
ENDBRANCH   1   7
BRANCH   4  15
HETATM   15  C   UNL     1     -41.176 -48.149  10.794  1.00  0.00     0.127 A 
HETATM   16  C   UNL     1     -40.198 -47.343  11.334  1.00  0.00     0.076 A 
HETATM   17  C   UNL     1     -40.471 -46.039  10.878  1.00  0.00     0.025 A 
HETATM   18  C   UNL     1     -39.694 -44.810  11.169  1.00  0.00     0.070 C 
HETATM   19  N   UNL     1     -41.562 -46.009  10.107  1.00  0.00    -0.302 N 
HETATM   20  N   UNL     1     -41.974 -47.292  10.070  1.00  0.00    -0.281 N 
ATOM     21  HN  UNL     1     -41.986 -45.201   9.651  1.00  0.00     0.186 HD
HETATM   22  C   UNL     1     -43.149 -47.619   9.299  1.00  0.00     0.179 C 
ENDBRANCH   4  15
TORSDOF 4
ENDMDL
MODEL 5
REMARK VINA RESULT:      -5.5      2.219      3.298
REMARK  4 active torsions:
REMARK  status: ('A' for Active; 'I' for Inactive)
REMARK    1  A    between atoms: C_2  and  N_3 
REMARK    2  A    between atoms: C_6  and  C_7 
REMARK    3  A    between atoms: C_7  and  N_8 
REMARK       I    between atoms: N_8  and  C_9 
REMARK       I    between atoms: C_9  and  N_11 
REMARK    4  A    between atoms: N_11  and  C_12 
ROOT
HETATM    1  N   UNL     1     -40.489 -50.974  11.426  1.00  0.00    -0.342 N 
HETATM    2  C   UNL     1     -41.149 -49.787  11.510  1.00  0.00     0.321 C 
HETATM    3  O   UNL     1     -41.643 -49.329  12.523  1.00  0.00    -0.247 OA
HETATM    4  N   UNL     1     -41.194 -49.125  10.252  1.00  0.00    -0.293 N 
HETATM    5  H   UNL     1     -40.268 -51.414  10.540  1.00  0.00     0.164 HD
HETATM    6  H   UNL     1     -40.731 -49.553   9.464  1.00  0.00     0.172 HD
ENDROOT
BRANCH   1   7
HETATM    7  C   UNL     1     -40.437 -51.821  12.603  1.00  0.00     0.130 C 
BRANCH   7   8
HETATM    8  C   UNL     1     -41.313 -53.077  12.523  1.00  0.00     0.033 C 
HETATM    9  C   UNL     1     -42.805 -52.750  12.450  1.00  0.00     0.038 C 
HETATM   10  C   UNL     1     -43.325 -52.920  13.880  1.00  0.00     0.273 C 
HETATM   11  N   UNL     1     -42.132 -53.218  14.695  1.00  0.00     0.088 N 
HETATM   12  C   UNL     1     -41.223 -53.931  13.781  1.00  0.00     0.278 C 
BRANCH  11  13
HETATM   13  C   UNL     1     -42.429 -54.038  15.876  1.00  0.00     0.268 C 
HETATM   14  C   UNL     1     -42.799 -55.467  15.506  1.00  0.00     0.037 C 
ENDBRANCH  11  13
ENDBRANCH   7   8
ENDBRANCH   1   7
BRANCH   4  15
HETATM   15  C   UNL     1     -41.827 -47.892  10.081  1.00  0.00     0.127 A 
HETATM   16  C   UNL     1     -43.038 -47.645   9.470  1.00  0.00     0.076 A 
HETATM   17  C   UNL     1     -43.247 -46.256   9.567  1.00  0.00     0.025 A 
HETATM   18  C   UNL     1     -44.418 -45.493   9.074  1.00  0.00     0.070 C 
HETATM   19  N   UNL     1     -42.230 -45.650  10.186  1.00  0.00    -0.302 N 
HETATM   20  N   UNL     1     -41.383 -46.655  10.487  1.00  0.00    -0.281 N 
ATOM     21  HN  UNL     1     -42.120 -44.656  10.386  1.00  0.00     0.186 HD
HETATM   22  C   UNL     1     -40.158 -46.341  11.183  1.00  0.00     0.179 C 
ENDBRANCH   4  15
TORSDOF 4
ENDMDL
MODEL 6
REMARK VINA RESULT:      -5.3      1.900      6.901
REMARK  4 active torsions:
REMARK  status: ('A' for Active; 'I' for Inactive)
REMARK    1  A    between atoms: C_2  and  N_3 
REMARK    2  A    between atoms: C_6  and  C_7 
REMARK    3  A    between atoms: C_7  and  N_8 
REMARK       I    between atoms: N_8  and  C_9 
REMARK       I    between atoms: C_9  and  N_11 
REMARK    4  A    between atoms: N_11  and  C_12 
ROOT
HETATM    1  N   UNL     1     -41.388 -50.397  11.332  1.00  0.00    -0.342 N 
HETATM    2  C   UNL     1     -41.995 -51.112  12.317  1.00  0.00     0.321 C 
HETATM    3  O   UNL     1     -42.101 -50.761  13.476  1.00  0.00    -0.247 OA
HETATM    4  N   UNL     1     -42.506 -52.346  11.827  1.00  0.00    -0.293 N 
HETATM    5  H   UNL     1     -41.142 -50.801  10.436  1.00  0.00     0.164 HD
HETATM    6  H   UNL     1     -42.408 -52.553  10.844  1.00  0.00     0.172 HD
ENDROOT
BRANCH   1   7
HETATM    7  C   UNL     1     -40.728 -49.155  11.686  1.00  0.00     0.130 C 
BRANCH   7   8
HETATM    8  C   UNL     1     -41.680 -48.004  12.033  1.00  0.00     0.033 C 
HETATM    9  C   UNL     1     -42.733 -47.764  10.950  1.00  0.00     0.038 C 
HETATM   10  C   UNL     1     -42.199 -46.592  10.122  1.00  0.00     0.273 C 
HETATM   11  N   UNL     1     -40.866 -46.296  10.680  1.00  0.00     0.088 N 
HETATM   12  C   UNL     1     -40.967 -46.659  12.105  1.00  0.00     0.278 C 
BRANCH  11  13
HETATM   13  C   UNL     1     -40.475 -44.889  10.530  1.00  0.00     0.268 C 
HETATM   14  C   UNL     1     -39.204 -44.730   9.707  1.00  0.00     0.037 C 
ENDBRANCH  11  13
ENDBRANCH   7   8
ENDBRANCH   1   7
BRANCH   4  15
HETATM   15  C   UNL     1     -43.164 -53.261  12.651  1.00  0.00     0.127 A 
HETATM   16  C   UNL     1     -44.514 -53.534  12.698  1.00  0.00     0.076 A 
HETATM   17  C   UNL     1     -44.675 -54.538  13.672  1.00  0.00     0.025 A 
HETATM   18  C   UNL     1     -45.943 -55.187  14.084  1.00  0.00     0.070 C 
HETATM   19  N   UNL     1     -43.507 -54.877  14.224  1.00  0.00    -0.302 N 
HETATM   20  N   UNL     1     -42.607 -54.093  13.596  1.00  0.00    -0.281 N 
ATOM     21  HN  UNL     1     -43.334 -55.569  14.953  1.00  0.00     0.186 HD
HETATM   22  C   UNL     1     -41.215 -54.214  13.956  1.00  0.00     0.179 C 
ENDBRANCH   4  15
TORSDOF 4
ENDMDL
MODEL 7
REMARK VINA RESULT:      -5.3      1.482      2.386
REMARK  4 active torsions:
REMARK  status: ('A' for Active; 'I' for Inactive)
REMARK    1  A    between atoms: C_2  and  N_3 
REMARK    2  A    between atoms: C_6  and  C_7 
REMARK    3  A    between atoms: C_7  and  N_8 
REMARK       I    between atoms: N_8  and  C_9 
REMARK       I    between atoms: C_9  and  N_11 
REMARK    4  A    between atoms: N_11  and  C_12 
ROOT
HETATM    1  N   UNL     1     -43.776 -52.374  12.489  1.00  0.00    -0.342 N 
HETATM    2  C   UNL     1     -42.503 -52.071  12.118  1.00  0.00     0.321 C 
HETATM    3  O   UNL     1     -41.688 -52.866  11.692  1.00  0.00    -0.247 OA
HETATM    4  N   UNL     1     -42.227 -50.685  12.285  1.00  0.00    -0.293 N 
HETATM    5  H   UNL     1     -44.357 -51.737  13.021  1.00  0.00     0.164 HD
HETATM    6  H   UNL     1     -42.967 -50.082  12.612  1.00  0.00     0.172 HD
ENDROOT
BRANCH   1   7
HETATM    7  C   UNL     1     -44.189 -53.765  12.471  1.00  0.00     0.130 C 
BRANCH   7   8
HETATM    8  C   UNL     1     -44.224 -54.437  13.849  1.00  0.00     0.033 C 
HETATM    9  C   UNL     1     -45.396 -55.408  14.002  1.00  0.00     0.038 C 
HETATM   10  C   UNL     1     -46.472 -54.625  14.758  1.00  0.00     0.273 C 
HETATM   11  N   UNL     1     -45.931 -53.261  14.903  1.00  0.00     0.088 N 
HETATM   12  C   UNL     1     -44.471 -53.442  14.977  1.00  0.00     0.278 C 
BRANCH  11  13
HETATM   13  C   UNL     1     -46.428 -52.565  16.097  1.00  0.00     0.268 C 
HETATM   14  C   UNL     1     -47.224 -51.316  15.745  1.00  0.00     0.037 C 
ENDBRANCH  11  13
ENDBRANCH   7   8
ENDBRANCH   1   7
BRANCH   4  15
HETATM   15  C   UNL     1     -40.982 -50.131  11.981  1.00  0.00     0.127 A 
HETATM   16  C   UNL     1     -39.741 -50.580  12.378  1.00  0.00     0.076 A 
HETATM   17  C   UNL     1     -38.805 -49.699  11.801  1.00  0.00     0.025 A 
HETATM   18  C   UNL     1     -37.329 -49.764  11.917  1.00  0.00     0.070 C 
HETATM   19  N   UNL     1     -39.408 -48.740  11.094  1.00  0.00    -0.302 N 
HETATM   20  N   UNL     1     -40.722 -49.017  11.216  1.00  0.00    -0.281 N 
ATOM     21  HN  UNL     1     -38.975 -47.973  10.579  1.00  0.00     0.186 HD
HETATM   22  C   UNL     1     -41.674 -48.161  10.550  1.00  0.00     0.179 C 
ENDBRANCH   4  15
TORSDOF 4
ENDMDL
MODEL 8
REMARK VINA RESULT:      -5.2      2.236      3.081
REMARK  4 active torsions:
REMARK  status: ('A' for Active; 'I' for Inactive)
REMARK    1  A    between atoms: C_2  and  N_3 
REMARK    2  A    between atoms: C_6  and  C_7 
REMARK    3  A    between atoms: C_7  and  N_8 
REMARK       I    between atoms: N_8  and  C_9 
REMARK       I    between atoms: C_9  and  N_11 
REMARK    4  A    between atoms: N_11  and  C_12 
ROOT
HETATM    1  N   UNL     1     -42.908 -50.885  12.551  1.00  0.00    -0.342 N 
HETATM    2  C   UNL     1     -42.623 -49.561  12.431  1.00  0.00     0.321 C 
HETATM    3  O   UNL     1     -42.799 -48.723  13.295  1.00  0.00    -0.247 OA
HETATM    4  N   UNL     1     -42.079 -49.258  11.151  1.00  0.00    -0.293 N 
HETATM    5  H   UNL     1     -42.938 -51.512  11.756  1.00  0.00     0.164 HD
HETATM    6  H   UNL     1     -41.932 -50.014  10.499  1.00  0.00     0.172 HD
ENDROOT
BRANCH   1   7
HETATM    7  C   UNL     1     -43.559 -51.344  13.764  1.00  0.00     0.130 C 
BRANCH   7   8
HETATM    8  C   UNL     1     -44.801 -52.213  13.530  1.00  0.00     0.033 C 
HETATM    9  C   UNL     1     -46.080 -51.387  13.387  1.00  0.00     0.038 C 
HETATM   10  C   UNL     1     -46.749 -51.438  14.763  1.00  0.00     0.273 C 
HETATM   11  N   UNL     1     -45.806 -52.172  15.627  1.00  0.00     0.088 N 
HETATM   12  C   UNL     1     -45.118 -53.109  14.721  1.00  0.00     0.278 C 
BRANCH  11  13
HETATM   13  C   UNL     1     -46.466 -52.898  16.720  1.00  0.00     0.268 C 
HETATM   14  C   UNL     1     -45.512 -53.837  17.445  1.00  0.00     0.037 C 
ENDBRANCH  11  13
ENDBRANCH   7   8
ENDBRANCH   1   7
BRANCH   4  15
HETATM   15  C   UNL     1     -41.716 -47.961  10.783  1.00  0.00     0.127 A 
HETATM   16  C   UNL     1     -40.611 -47.247  11.194  1.00  0.00     0.076 A 
HETATM   17  C   UNL     1     -40.680 -46.006  10.533  1.00  0.00     0.025 A 
HETATM   18  C   UNL     1     -39.712 -44.887  10.629  1.00  0.00     0.070 C 
HETATM   19  N   UNL     1     -41.767 -45.924   9.761  1.00  0.00    -0.302 N 
HETATM   20  N   UNL     1     -42.380 -47.113   9.927  1.00  0.00    -0.281 N 
ATOM     21  HN  UNL     1     -42.066 -45.141   9.179  1.00  0.00     0.186 HD
HETATM   22  C   UNL     1     -43.607 -47.365   9.210  1.00  0.00     0.179 C 
ENDBRANCH   4  15
TORSDOF 4
ENDMDL
MODEL 9
REMARK VINA RESULT:      -5.1      1.699      2.469
REMARK  4 active torsions:
REMARK  status: ('A' for Active; 'I' for Inactive)
REMARK    1  A    between atoms: C_2  and  N_3 
REMARK    2  A    between atoms: C_6  and  C_7 
REMARK    3  A    between atoms: C_7  and  N_8 
REMARK       I    between atoms: N_8  and  C_9 
REMARK       I    between atoms: C_9  and  N_11 
REMARK    4  A    between atoms: N_11  and  C_12 
ROOT
HETATM    1  N   UNL     1     -43.608 -53.083  12.089  1.00  0.00    -0.342 N 
HETATM    2  C   UNL     1     -42.976 -51.932  12.442  1.00  0.00     0.321 C 
HETATM    3  O   UNL     1     -43.380 -51.133  13.265  1.00  0.00    -0.247 OA
HETATM    4  N   UNL     1     -41.758 -51.765  11.725  1.00  0.00    -0.293 N 
HETATM    5  H   UNL     1     -43.351 -53.618  11.268  1.00  0.00     0.164 HD
HETATM    6  H   UNL     1     -41.474 -52.489  11.082  1.00  0.00     0.172 HD
ENDROOT
BRANCH   1   7
HETATM    7  C   UNL     1     -44.914 -53.357  12.659  1.00  0.00     0.130 C 
BRANCH   7   8
HETATM    8  C   UNL     1     -44.978 -54.620  13.527  1.00  0.00     0.033 C 
HETATM    9  C   UNL     1     -46.151 -54.601  14.509  1.00  0.00     0.038 C 
HETATM   10  C   UNL     1     -45.551 -54.152  15.844  1.00  0.00     0.273 C 
HETATM   11  N   UNL     1     -44.139 -53.842  15.552  1.00  0.00     0.088 N 
HETATM   12  C   UNL     1     -43.775 -54.753  14.452  1.00  0.00     0.278 C 
BRANCH  11  13
HETATM   13  C   UNL     1     -43.251 -54.041  16.704  1.00  0.00     0.268 C 
HETATM   14  C   UNL     1     -42.379 -55.279  16.552  1.00  0.00     0.037 C 
ENDBRANCH  11  13
ENDBRANCH   7   8
ENDBRANCH   1   7
BRANCH   4  15
HETATM   15  C   UNL     1     -40.933 -50.652  11.906  1.00  0.00     0.127 A 
HETATM   16  C   UNL     1     -41.081 -49.397  11.357  1.00  0.00     0.076 A 
HETATM   17  C   UNL     1     -40.012 -48.626  11.854  1.00  0.00     0.025 A 
HETATM   18  C   UNL     1     -39.733 -47.198  11.571  1.00  0.00     0.070 C 
HETATM   19  N   UNL     1     -39.222 -49.346  12.656  1.00  0.00    -0.302 N 
HETATM   20  N   UNL     1     -39.794 -50.566  12.673  1.00  0.00    -0.281 N 
ATOM     21  HN  UNL     1     -38.379 -49.041  13.144  1.00  0.00     0.186 HD
HETATM   22  C   UNL     1     -39.185 -51.605  13.469  1.00  0.00     0.179 C 
ENDBRANCH   4  15
TORSDOF 4
ENDMDL
