MODEL 1
REMARK VINA RESULT:      -6.2      0.000      0.000
REMARK  5 active torsions:
REMARK  status: ('A' for Active; 'I' for Inactive)
REMARK    1  A    between atoms: C_2  and  N_3 
REMARK    2  A    between atoms: C_2  and  C_12 
REMARK    3  A    between atoms: N_3  and  C_4 
REMARK    4  A    between atoms: C_4  and  C_5 
REMARK    5  A    between atoms: C_5  and  N_6 
REMARK       I    between atoms: C_12  and  N_14 
ROOT
HETATM    1  C   UNL     1     -39.896 -47.138  11.263  1.00  0.00     0.053 C 
HETATM    2  C   UNL     1     -40.912 -48.279  11.293  1.00  0.00     0.307 C 
ENDROOT
BRANCH   2   3
HETATM    3  N   UNL     1     -41.633 -48.387  10.004  1.00  0.00     0.098 N 
HETATM    4  H   UNL     1     -42.021 -49.334   9.938  1.00  0.00     0.317 HD
BRANCH   3   5
HETATM    5  C   UNL     1     -42.706 -47.388   9.896  1.00  0.00     0.292 C 
BRANCH   5   6
HETATM    6  C   UNL     1     -43.310 -47.336   8.493  1.00  0.00     0.178 C 
BRANCH   6   7
HETATM    7  N   UNL     1     -44.681 -47.814   8.490  1.00  0.00    -0.302 N 
HETATM    8  C   UNL     1     -45.617 -47.629   9.469  1.00  0.00     0.111 A 
HETATM    9  C   UNL     1     -46.755 -48.265   9.032  1.00  0.00     0.037 A 
HETATM   10  C   UNL     1     -46.403 -48.808   7.783  1.00  0.00     0.108 A 
HETATM   11  N   UNL     1     -45.141 -48.532   7.446  1.00  0.00    -0.310 N 
ATOM     12  HN  UNL     1     -44.642 -48.800   6.598  1.00  0.00     0.186 HD
ENDBRANCH   6   7
ENDBRANCH   5   6
ENDBRANCH   3   5
ENDBRANCH   2   3
BRANCH   2  13
HETATM   13  C   UNL     1     -40.217 -49.625  11.641  1.00  0.00     0.253 C 
HETATM   14  O   UNL     1     -39.116 -49.935  11.172  1.00  0.00    -0.271 OA
HETATM   15  N   UNL     1     -40.921 -50.499  12.469  1.00  0.00    -0.345 N 
HETATM   16  C   UNL     1     -40.381 -51.825  12.786  1.00  0.00     0.157 C 
HETATM   17  C   UNL     1     -42.152 -50.186  13.200  1.00  0.00     0.157 C 
HETATM   18  C   UNL     1     -41.479 -52.904  12.656  1.00  0.00     0.136 C 
HETATM   19  C   UNL     1     -40.991 -54.258  13.149  1.00  0.00     0.041 C 
HETATM   20  O   UNL     1     -42.648 -52.557  13.431  1.00  0.00    -0.378 OA
HETATM   21  C   UNL     1     -43.190 -51.297  13.007  1.00  0.00     0.136 C 
HETATM   22  C   UNL     1     -44.435 -50.992  13.826  1.00  0.00     0.041 C 
ENDBRANCH   2  13
TORSDOF 5
ENDMDL
MODEL 2
REMARK VINA RESULT:      -5.7      1.834      2.671
REMARK  5 active torsions:
REMARK  status: ('A' for Active; 'I' for Inactive)
REMARK    1  A    between atoms: C_2  and  N_3 
REMARK    2  A    between atoms: C_2  and  C_12 
REMARK    3  A    between atoms: N_3  and  C_4 
REMARK    4  A    between atoms: C_4  and  C_5 
REMARK    5  A    between atoms: C_5  and  N_6 
REMARK       I    between atoms: C_12  and  N_14 
ROOT
HETATM    1  C   UNL     1     -38.817 -50.732  12.597  1.00  0.00     0.053 C 
HETATM    2  C   UNL     1     -40.284 -50.663  12.174  1.00  0.00     0.307 C 
ENDROOT
BRANCH   2   3
HETATM    3  N   UNL     1     -40.425 -50.068  10.826  1.00  0.00     0.098 N 
HETATM    4  H   UNL     1     -41.114 -50.623  10.307  1.00  0.00     0.317 HD
BRANCH   3   5
HETATM    5  C   UNL     1     -40.849 -48.662  10.894  1.00  0.00     0.292 C 
BRANCH   5   6
HETATM    6  C   UNL     1     -42.327 -48.521  11.257  1.00  0.00     0.178 C 
BRANCH   6   7
HETATM    7  N   UNL     1     -43.097 -48.004  10.139  1.00  0.00    -0.302 N 
HETATM    8  C   UNL     1     -44.305 -47.367  10.199  1.00  0.00     0.111 A 
HETATM    9  C   UNL     1     -44.645 -47.073   8.899  1.00  0.00     0.037 A 
HETATM   10  C   UNL     1     -43.582 -47.579   8.130  1.00  0.00     0.108 A 
HETATM   11  N   UNL     1     -42.634 -48.143   8.881  1.00  0.00    -0.310 N 
ATOM     12  HN  UNL     1     -41.764 -48.577   8.575  1.00  0.00     0.186 HD
ENDBRANCH   6   7
ENDBRANCH   5   6
ENDBRANCH   3   5
ENDBRANCH   2   3
BRANCH   2  13
HETATM   13  C   UNL     1     -40.935 -52.073  12.216  1.00  0.00     0.253 C 
HETATM   14  O   UNL     1     -40.599 -52.974  11.438  1.00  0.00    -0.271 OA
HETATM   15  N   UNL     1     -41.962 -52.264  13.140  1.00  0.00    -0.345 N 
HETATM   16  C   UNL     1     -42.689 -53.536  13.197  1.00  0.00     0.157 C 
HETATM   17  C   UNL     1     -42.342 -51.333  14.206  1.00  0.00     0.157 C 
HETATM   18  C   UNL     1     -44.211 -53.288  13.298  1.00  0.00     0.136 C 
HETATM   19  C   UNL     1     -44.972 -54.583  13.536  1.00  0.00     0.041 C 
HETATM   20  O   UNL     1     -44.523 -52.396  14.392  1.00  0.00    -0.378 OA
HETATM   21  C   UNL     1     -43.862 -51.132  14.228  1.00  0.00     0.136 C 
HETATM   22  C   UNL     1     -44.247 -50.217  15.381  1.00  0.00     0.041 C 
ENDBRANCH   2  13
TORSDOF 5
ENDMDL
MODEL 3
REMARK VINA RESULT:      -5.7      1.410      1.808
REMARK  5 active torsions:
REMARK  status: ('A' for Active; 'I' for Inactive)
REMARK    1  A    between atoms: C_2  and  N_3 
REMARK    2  A    between atoms: C_2  and  C_12 
REMARK    3  A    between atoms: N_3  and  C_4 
REMARK    4  A    between atoms: C_4  and  C_5 
REMARK    5  A    between atoms: C_5  and  N_6 
REMARK       I    between atoms: C_12  and  N_14 
ROOT
HETATM    1  C   UNL     1     -43.040 -48.677  13.092  1.00  0.00     0.053 C 
HETATM    2  C   UNL     1     -42.420 -49.639  12.078  1.00  0.00     0.307 C 
ENDROOT
BRANCH   2   3
HETATM    3  N   UNL     1     -42.082 -48.941  10.817  1.00  0.00     0.098 N 
HETATM    4  H   UNL     1     -42.367 -49.544  10.037  1.00  0.00     0.317 HD
BRANCH   3   5
HETATM    5  C   UNL     1     -42.752 -47.636  10.721  1.00  0.00     0.292 C 
BRANCH   5   6
HETATM    6  C   UNL     1     -43.062 -47.248   9.276  1.00  0.00     0.178 C 
BRANCH   6   7
HETATM    7  N   UNL     1     -44.397 -47.672   8.891  1.00  0.00    -0.302 N 
HETATM    8  C   UNL     1     -45.548 -47.512   9.611  1.00  0.00     0.111 A 
HETATM    9  C   UNL     1     -46.550 -48.074   8.856  1.00  0.00     0.037 A 
HETATM   10  C   UNL     1     -45.903 -48.550   7.701  1.00  0.00     0.108 A 
HETATM   11  N   UNL     1     -44.591 -48.303   7.716  1.00  0.00    -0.310 N 
ATOM     12  HN  UNL     1     -43.898 -48.537   7.006  1.00  0.00     0.186 HD
ENDBRANCH   6   7
ENDBRANCH   5   6
ENDBRANCH   3   5
ENDBRANCH   2   3
BRANCH   2  13
HETATM   13  C   UNL     1     -41.161 -50.328  12.672  1.00  0.00     0.253 C 
HETATM   14  O   UNL     1     -40.033 -49.828  12.578  1.00  0.00    -0.271 OA
HETATM   15  N   UNL     1     -41.350 -51.572  13.274  1.00  0.00    -0.345 N 
HETATM   16  C   UNL     1     -40.208 -52.333  13.790  1.00  0.00     0.157 C 
HETATM   17  C   UNL     1     -42.643 -52.191  13.578  1.00  0.00     0.157 C 
HETATM   18  C   UNL     1     -40.308 -53.816  13.367  1.00  0.00     0.136 C 
HETATM   19  C   UNL     1     -39.234 -54.660  14.036  1.00  0.00     0.041 C 
HETATM   20  O   UNL     1     -41.588 -54.378  13.732  1.00  0.00    -0.378 OA
HETATM   21  C   UNL     1     -42.663 -53.652  13.115  1.00  0.00     0.136 C 
HETATM   22  C   UNL     1     -43.985 -54.300  13.499  1.00  0.00     0.041 C 
ENDBRANCH   2  13
TORSDOF 5
ENDMDL
MODEL 4
REMARK VINA RESULT:      -5.6      2.909      4.757
REMARK  5 active torsions:
REMARK  status: ('A' for Active; 'I' for Inactive)
REMARK    1  A    between atoms: C_2  and  N_3 
REMARK    2  A    between atoms: C_2  and  C_12 
REMARK    3  A    between atoms: N_3  and  C_4 
REMARK    4  A    between atoms: C_4  and  C_5 
REMARK    5  A    between atoms: C_5  and  N_6 
REMARK       I    between atoms: C_12  and  N_14 
ROOT
HETATM    1  C   UNL     1     -42.386 -48.764  14.006  1.00  0.00     0.053 C 
HETATM    2  C   UNL     1     -43.465 -49.426  13.151  1.00  0.00     0.307 C 
ENDROOT
BRANCH   2   3
HETATM    3  N   UNL     1     -43.483 -48.862  11.782  1.00  0.00     0.098 N 
HETATM    4  H   UNL     1     -44.452 -48.610  11.558  1.00  0.00     0.317 HD
BRANCH   3   5
HETATM    5  C   UNL     1     -42.611 -47.685  11.668  1.00  0.00     0.292 C 
BRANCH   5   6
HETATM    6  C   UNL     1     -41.535 -47.862  10.597  1.00  0.00     0.178 C 
BRANCH   6   7
HETATM    7  N   UNL     1     -40.395 -48.600  11.113  1.00  0.00    -0.302 N 
HETATM    8  C   UNL     1     -39.388 -48.111  11.897  1.00  0.00     0.111 A 
HETATM    9  C   UNL     1     -38.536 -49.166  12.124  1.00  0.00     0.037 A 
HETATM   10  C   UNL     1     -39.113 -50.246  11.431  1.00  0.00     0.108 A 
HETATM   11  N   UNL     1     -40.249 -49.907  10.817  1.00  0.00    -0.310 N 
ATOM     12  HN  UNL     1     -40.861 -50.497  10.255  1.00  0.00     0.186 HD
ENDBRANCH   6   7
ENDBRANCH   5   6
ENDBRANCH   3   5
ENDBRANCH   2   3
BRANCH   2  13
HETATM   13  C   UNL     1     -43.260 -50.966  13.101  1.00  0.00     0.253 C 
HETATM   14  O   UNL     1     -42.401 -51.491  12.384  1.00  0.00    -0.271 OA
HETATM   15  N   UNL     1     -44.132 -51.741  13.867  1.00  0.00    -0.345 N 
HETATM   16  C   UNL     1     -44.066 -53.205  13.820  1.00  0.00     0.157 C 
HETATM   17  C   UNL     1     -45.081 -51.235  14.862  1.00  0.00     0.157 C 
HETATM   18  C   UNL     1     -45.484 -53.808  13.698  1.00  0.00     0.136 C 
HETATM   19  C   UNL     1     -45.457 -55.324  13.826  1.00  0.00     0.041 C 
HETATM   20  O   UNL     1     -46.358 -53.302  14.731  1.00  0.00    -0.378 OA
HETATM   21  C   UNL     1     -46.461 -51.872  14.662  1.00  0.00     0.136 C 
HETATM   22  C   UNL     1     -47.416 -51.390  15.744  1.00  0.00     0.041 C 
ENDBRANCH   2  13
TORSDOF 5
ENDMDL
MODEL 5
REMARK VINA RESULT:      -5.5      3.248      5.896
REMARK  5 active torsions:
REMARK  status: ('A' for Active; 'I' for Inactive)
REMARK    1  A    between atoms: C_2  and  N_3 
REMARK    2  A    between atoms: C_2  and  C_12 
REMARK    3  A    between atoms: N_3  and  C_4 
REMARK    4  A    between atoms: C_4  and  C_5 
REMARK    5  A    between atoms: C_5  and  N_6 
REMARK       I    between atoms: C_12  and  N_14 
ROOT
HETATM    1  C   UNL     1     -41.634 -53.027  15.025  1.00  0.00     0.053 C 
HETATM    2  C   UNL     1     -41.659 -52.708  13.531  1.00  0.00     0.307 C 
ENDROOT
BRANCH   2   3
HETATM    3  N   UNL     1     -42.574 -53.617  12.805  1.00  0.00     0.098 N 
HETATM    4  H   UNL     1     -42.003 -54.257  12.243  1.00  0.00     0.317 HD
BRANCH   3   5
HETATM    5  C   UNL     1     -43.430 -54.377  13.728  1.00  0.00     0.292 C 
BRANCH   5   6
HETATM    6  C   UNL     1     -44.862 -54.512  13.211  1.00  0.00     0.178 C 
BRANCH   6   7
HETATM    7  N   UNL     1     -45.581 -53.255  13.316  1.00  0.00    -0.302 N 
HETATM    8  C   UNL     1     -46.083 -52.688  14.454  1.00  0.00     0.111 A 
HETATM    9  C   UNL     1     -46.685 -51.516  14.062  1.00  0.00     0.037 A 
HETATM   10  C   UNL     1     -46.498 -51.467  12.669  1.00  0.00     0.108 A 
HETATM   11  N   UNL     1     -45.821 -52.523  12.210  1.00  0.00    -0.310 N 
ATOM     12  HN  UNL     1     -45.550 -52.727  11.249  1.00  0.00     0.186 HD
ENDBRANCH   6   7
ENDBRANCH   5   6
ENDBRANCH   3   5
ENDBRANCH   2   3
BRANCH   2  13
HETATM   13  C   UNL     1     -42.062 -51.226  13.292  1.00  0.00     0.253 C 
HETATM   14  O   UNL     1     -43.241 -50.854  13.322  1.00  0.00    -0.271 OA
HETATM   15  N   UNL     1     -41.033 -50.337  12.983  1.00  0.00    -0.345 N 
HETATM   16  C   UNL     1     -41.326 -48.937  12.662  1.00  0.00     0.157 C 
HETATM   17  C   UNL     1     -39.598 -50.623  13.064  1.00  0.00     0.157 C 
HETATM   18  C   UNL     1     -40.526 -48.485  11.420  1.00  0.00     0.136 C 
HETATM   19  C   UNL     1     -40.676 -46.991  11.173  1.00  0.00     0.041 C 
HETATM   20  O   UNL     1     -39.116 -48.756  11.580  1.00  0.00    -0.378 OA
HETATM   21  C   UNL     1     -38.883 -50.157  11.791  1.00  0.00     0.136 C 
HETATM   22  C   UNL     1     -37.386 -50.398  11.918  1.00  0.00     0.041 C 
ENDBRANCH   2  13
TORSDOF 5
ENDMDL
MODEL 6
REMARK VINA RESULT:      -5.5      2.621      6.275
REMARK  5 active torsions:
REMARK  status: ('A' for Active; 'I' for Inactive)
REMARK    1  A    between atoms: C_2  and  N_3 
REMARK    2  A    between atoms: C_2  and  C_12 
REMARK    3  A    between atoms: N_3  and  C_4 
REMARK    4  A    between atoms: C_4  and  C_5 
REMARK    5  A    between atoms: C_5  and  N_6 
REMARK       I    between atoms: C_12  and  N_14 
ROOT
HETATM    1  C   UNL     1     -41.175 -49.691  14.672  1.00  0.00     0.053 C 
HETATM    2  C   UNL     1     -40.863 -49.249  13.243  1.00  0.00     0.307 C 
ENDROOT
BRANCH   2   3
HETATM    3  N   UNL     1     -40.090 -50.284  12.520  1.00  0.00     0.098 N 
HETATM    4  H   UNL     1     -39.102 -50.007  12.535  1.00  0.00     0.317 HD
BRANCH   3   5
HETATM    5  C   UNL     1     -40.255 -51.611  13.130  1.00  0.00     0.292 C 
BRANCH   5   6
HETATM    6  C   UNL     1     -40.837 -52.630  12.151  1.00  0.00     0.178 C 
BRANCH   6   7
HETATM    7  N   UNL     1     -42.123 -53.126  12.609  1.00  0.00    -0.302 N 
HETATM    8  C   UNL     1     -42.353 -53.944  13.679  1.00  0.00     0.111 A 
HETATM    9  C   UNL     1     -43.712 -54.151  13.715  1.00  0.00     0.037 A 
HETATM   10  C   UNL     1     -44.213 -53.421  12.622  1.00  0.00     0.108 A 
HETATM   11  N   UNL     1     -43.248 -52.791  11.947  1.00  0.00    -0.310 N 
ATOM     12  HN  UNL     1     -43.341 -52.195  11.125  1.00  0.00     0.186 HD
ENDBRANCH   6   7
ENDBRANCH   5   6
ENDBRANCH   3   5
ENDBRANCH   2   3
BRANCH   2  13
HETATM   13  C   UNL     1     -42.171 -48.911  12.474  1.00  0.00     0.253 C 
HETATM   14  O   UNL     1     -43.111 -49.710  12.397  1.00  0.00    -0.271 OA
HETATM   15  N   UNL     1     -42.216 -47.680  11.822  1.00  0.00    -0.345 N 
HETATM   16  C   UNL     1     -43.376 -47.309  11.004  1.00  0.00     0.157 C 
HETATM   17  C   UNL     1     -41.238 -46.597  11.962  1.00  0.00     0.157 C 
HETATM   18  C   UNL     1     -42.920 -46.698   9.660  1.00  0.00     0.136 C 
HETATM   19  C   UNL     1     -44.098 -46.145   8.872  1.00  0.00     0.041 C 
HETATM   20  O   UNL     1     -41.991 -45.612   9.868  1.00  0.00    -0.378 OA
HETATM   21  C   UNL     1     -40.830 -46.059  10.585  1.00  0.00     0.136 C 
HETATM   22  C   UNL     1     -39.867 -44.892  10.750  1.00  0.00     0.041 C 
ENDBRANCH   2  13
TORSDOF 5
ENDMDL
MODEL 7
REMARK VINA RESULT:      -5.2      3.018      4.510
REMARK  5 active torsions:
REMARK  status: ('A' for Active; 'I' for Inactive)
REMARK    1  A    between atoms: C_2  and  N_3 
REMARK    2  A    between atoms: C_2  and  C_12 
REMARK    3  A    between atoms: N_3  and  C_4 
REMARK    4  A    between atoms: C_4  and  C_5 
REMARK    5  A    between atoms: C_5  and  N_6 
REMARK       I    between atoms: C_12  and  N_14 
ROOT
HETATM    1  C   UNL     1     -42.164 -49.127  14.197  1.00  0.00     0.053 C 
HETATM    2  C   UNL     1     -43.178 -49.656  13.185  1.00  0.00     0.307 C 
ENDROOT
BRANCH   2   3
HETATM    3  N   UNL     1     -42.974 -49.043  11.853  1.00  0.00     0.098 N 
HETATM    4  H   UNL     1     -43.834 -49.175  11.310  1.00  0.00     0.317 HD
BRANCH   3   5
HETATM    5  C   UNL     1     -42.652 -47.612  11.956  1.00  0.00     0.292 C 
BRANCH   5   6
HETATM    6  C   UNL     1     -42.500 -46.952  10.586  1.00  0.00     0.178 C 
BRANCH   6   7
HETATM    7  N   UNL     1     -41.492 -45.906  10.614  1.00  0.00    -0.302 N 
HETATM    8  C   UNL     1     -41.635 -44.642  11.112  1.00  0.00     0.111 A 
HETATM    9  C   UNL     1     -40.428 -44.015  10.911  1.00  0.00     0.037 A 
HETATM   10  C   UNL     1     -39.624 -44.982  10.282  1.00  0.00     0.108 A 
HETATM   11  N   UNL     1     -40.267 -46.138  10.102  1.00  0.00    -0.310 N 
ATOM     12  HN  UNL     1     -39.914 -46.996   9.678  1.00  0.00     0.186 HD
ENDBRANCH   6   7
ENDBRANCH   5   6
ENDBRANCH   3   5
ENDBRANCH   2   3
BRANCH   2  13
HETATM   13  C   UNL     1     -43.103 -51.205  13.087  1.00  0.00     0.253 C 
HETATM   14  O   UNL     1     -42.315 -51.776  12.325  1.00  0.00    -0.271 OA
HETATM   15  N   UNL     1     -44.008 -51.928  13.863  1.00  0.00    -0.345 N 
HETATM   16  C   UNL     1     -44.065 -53.391  13.775  1.00  0.00     0.157 C 
HETATM   17  C   UNL     1     -44.878 -51.377  14.906  1.00  0.00     0.157 C 
HETATM   18  C   UNL     1     -45.531 -53.873  13.689  1.00  0.00     0.136 C 
HETATM   19  C   UNL     1     -45.625 -55.389  13.776  1.00  0.00     0.041 C 
HETATM   20  O   UNL     1     -46.325 -53.329  14.766  1.00  0.00    -0.378 OA
HETATM   21  C   UNL     1     -46.312 -51.893  14.739  1.00  0.00     0.136 C 
HETATM   22  C   UNL     1     -47.186 -51.367  15.867  1.00  0.00     0.041 C 
ENDBRANCH   2  13
TORSDOF 5
ENDMDL
MODEL 8
REMARK VINA RESULT:      -5.2      3.386      4.886
REMARK  5 active torsions:
REMARK  status: ('A' for Active; 'I' for Inactive)
REMARK    1  A    between atoms: C_2  and  N_3 
REMARK    2  A    between atoms: C_2  and  C_12 
REMARK    3  A    between atoms: N_3  and  C_4 
REMARK    4  A    between atoms: C_4  and  C_5 
REMARK    5  A    between atoms: C_5  and  N_6 
REMARK       I    between atoms: C_12  and  N_14 
ROOT
HETATM    1  C   UNL     1     -37.370 -50.063  11.012  1.00  0.00     0.053 C 
HETATM    2  C   UNL     1     -38.679 -49.853  11.771  1.00  0.00     0.307 C 
ENDROOT
BRANCH   2   3
HETATM    3  N   UNL     1     -39.837 -49.848  10.849  1.00  0.00     0.098 N 
HETATM    4  H   UNL     1     -40.096 -50.822  10.663  1.00  0.00     0.317 HD
BRANCH   3   5
HETATM    5  C   UNL     1     -40.980 -49.116  11.415  1.00  0.00     0.292 C 
BRANCH   5   6
HETATM    6  C   UNL     1     -41.639 -48.191  10.392  1.00  0.00     0.178 C 
BRANCH   6   7
HETATM    7  N   UNL     1     -41.277 -46.804  10.625  1.00  0.00    -0.302 N 
HETATM    8  C   UNL     1     -42.103 -45.798  11.040  1.00  0.00     0.111 A 
HETATM    9  C   UNL     1     -41.323 -44.668  11.110  1.00  0.00     0.037 A 
HETATM   10  C   UNL     1     -40.042 -45.094  10.714  1.00  0.00     0.108 A 
HETATM   11  N   UNL     1     -40.008 -46.397  10.422  1.00  0.00    -0.310 N 
ATOM     12  HN  UNL     1     -39.209 -46.953  10.116  1.00  0.00     0.186 HD
ENDBRANCH   6   7
ENDBRANCH   5   6
ENDBRANCH   3   5
ENDBRANCH   2   3
BRANCH   2  13
HETATM   13  C   UNL     1     -38.861 -50.942  12.865  1.00  0.00     0.253 C 
HETATM   14  O   UNL     1     -39.387 -52.034  12.622  1.00  0.00    -0.271 OA
HETATM   15  N   UNL     1     -38.453 -50.609  14.157  1.00  0.00    -0.345 N 
HETATM   16  C   UNL     1     -38.660 -51.542  15.269  1.00  0.00     0.157 C 
HETATM   17  C   UNL     1     -37.687 -49.419  14.535  1.00  0.00     0.157 C 
HETATM   18  C   UNL     1     -39.223 -50.800  16.502  1.00  0.00     0.136 C 
HETATM   19  C   UNL     1     -39.279 -51.709  17.721  1.00  0.00     0.041 C 
HETATM   20  O   UNL     1     -38.401 -49.663  16.848  1.00  0.00    -0.378 OA
HETATM   21  C   UNL     1     -38.319 -48.737  15.754  1.00  0.00     0.136 C 
HETATM   22  C   UNL     1     -37.475 -47.543  16.177  1.00  0.00     0.041 C 
ENDBRANCH   2  13
TORSDOF 5
ENDMDL
MODEL 9
REMARK VINA RESULT:      -5.1      3.383      6.462
REMARK  5 active torsions:
REMARK  status: ('A' for Active; 'I' for Inactive)
REMARK    1  A    between atoms: C_2  and  N_3 
REMARK    2  A    between atoms: C_2  and  C_12 
REMARK    3  A    between atoms: N_3  and  C_4 
REMARK    4  A    between atoms: C_4  and  C_5 
REMARK    5  A    between atoms: C_5  and  N_6 
REMARK       I    between atoms: C_12  and  N_14 
ROOT
HETATM    1  C   UNL     1     -43.802 -50.157  13.237  1.00  0.00     0.053 C 
HETATM    2  C   UNL     1     -42.463 -49.620  12.731  1.00  0.00     0.307 C 
ENDROOT
BRANCH   2   3
HETATM    3  N   UNL     1     -41.839 -50.559  11.771  1.00  0.00     0.098 N 
HETATM    4  H   UNL     1     -41.399 -50.005  11.029  1.00  0.00     0.317 HD
BRANCH   3   5
HETATM    5  C   UNL     1     -40.841 -51.419  12.424  1.00  0.00     0.292 C 
BRANCH   5   6
HETATM    6  C   UNL     1     -41.052 -52.898  12.101  1.00  0.00     0.178 C 
BRANCH   6   7
HETATM    7  N   UNL     1     -42.223 -53.425  12.780  1.00  0.00    -0.302 N 
HETATM    8  C   UNL     1     -42.309 -53.812  14.088  1.00  0.00     0.111 A 
HETATM    9  C   UNL     1     -43.600 -54.247  14.272  1.00  0.00     0.037 A 
HETATM   10  C   UNL     1     -44.213 -54.086  13.016  1.00  0.00     0.108 A 
HETATM   11  N   UNL     1     -43.379 -53.581  12.105  1.00  0.00    -0.310 N 
ATOM     12  HN  UNL     1     -43.571 -53.365  11.127  1.00  0.00     0.186 HD
ENDBRANCH   6   7
ENDBRANCH   5   6
ENDBRANCH   3   5
ENDBRANCH   2   3
BRANCH   2  13
HETATM   13  C   UNL     1     -42.643 -48.220  12.081  1.00  0.00     0.253 C 
HETATM   14  O   UNL     1     -43.508 -47.999  11.226  1.00  0.00    -0.271 OA
HETATM   15  N   UNL     1     -41.742 -47.228  12.468  1.00  0.00    -0.345 N 
HETATM   16  C   UNL     1     -41.783 -45.899  11.849  1.00  0.00     0.157 C 
HETATM   17  C   UNL     1     -40.780 -47.323  13.569  1.00  0.00     0.157 C 
HETATM   18  C   UNL     1     -40.358 -45.428  11.480  1.00  0.00     0.136 C 
HETATM   19  C   UNL     1     -40.356 -43.983  11.001  1.00  0.00     0.041 C 
HETATM   20  O   UNL     1     -39.471 -45.507  12.618  1.00  0.00    -0.378 OA
HETATM   21  C   UNL     1     -39.394 -46.851  13.117  1.00  0.00     0.136 C 
HETATM   22  C   UNL     1     -38.424 -46.891  14.288  1.00  0.00     0.041 C 
ENDBRANCH   2  13
TORSDOF 5
ENDMDL
