MODEL 1
REMARK VINA RESULT:      -5.8      0.000      0.000
REMARK  7 active torsions:
REMARK  status: ('A' for Active; 'I' for Inactive)
REMARK    1  A    between atoms: N_6  and  C_7 
REMARK    2  A    between atoms: C_7  and  C_8 
REMARK    3  A    between atoms: C_8  and  N_9 
REMARK    4  A    between atoms: N_9  and  C_10 
REMARK    5  A    between atoms: C_10  and  C_12 
REMARK    6  A    between atoms: C_10  and  C_14 
REMARK    7  A    between atoms: C_12  and  O_13 
ROOT
HETATM    1  N   UNL     1     -41.987 -50.934  11.805  1.00  0.00     0.097 N 
HETATM    2  H   UNL     1     -42.277 -51.525  11.025  1.00  0.00     0.317 HD
ENDROOT
BRANCH   1   3
HETATM    3  C   UNL     1     -40.645 -50.406  11.594  1.00  0.00     0.292 C 
BRANCH   3   4
HETATM    4  C   UNL     1     -40.619 -48.868  11.640  1.00  0.00     0.179 C 
BRANCH   4   5
HETATM    5  N   UNL     1     -41.753 -48.252  10.973  1.00  0.00    -0.295 N 
HETATM    6  C   UNL     1     -42.793 -47.562  11.543  1.00  0.00     0.026 A 
HETATM    7  C   UNL     1     -43.637 -47.245  10.498  1.00  0.00     0.052 A 
HETATM    8  C   UNL     1     -42.912 -47.287  12.994  1.00  0.00     0.070 C 
HETATM    9  C   UNL     1     -43.009 -47.752   9.342  1.00  0.00     0.024 A 
HETATM   10  C   UNL     1     -43.496 -47.720   7.942  1.00  0.00     0.070 C 
HETATM   11  N   UNL     1     -41.830 -48.312   9.627  1.00  0.00    -0.303 N 
ATOM     12  HN  UNL     1     -41.144 -48.696   8.977  1.00  0.00     0.186 HD
ENDBRANCH   4   5
ENDBRANCH   3   4
ENDBRANCH   1   3
BRANCH   1  13
HETATM   13  C   UNL     1     -42.372 -51.519  13.111  1.00  0.00     0.178 C 
HETATM   14  C   UNL     1     -41.280 -51.153  14.141  1.00  0.00     0.051 C 
BRANCH  13  15
HETATM   15  C   UNL     1     -43.739 -50.930  13.576  1.00  0.00     0.205 C 
BRANCH  15  16
HETATM   16  O   UNL     1     -44.554 -50.425  12.530  1.00  0.00    -0.398 OA
HETATM   17  H   UNL     1     -45.409 -50.160  12.902  1.00  0.00     0.209 HD
ENDBRANCH  15  16
ENDBRANCH  13  15
BRANCH  13  18
HETATM   18  C   UNL     1     -42.379 -53.091  12.855  1.00  0.00     0.026 C 
HETATM   19  C   UNL     1     -43.783 -53.745  12.844  1.00  0.00     0.007 C 
HETATM   20  C   UNL     1     -44.265 -54.253  14.199  1.00  0.00     0.000 C 
HETATM   21  C   UNL     1     -43.262 -55.201  14.835  1.00  0.00     0.000 C 
HETATM   22  C   UNL     1     -41.878 -54.582  14.946  1.00  0.00     0.000 C 
HETATM   23  C   UNL     1     -41.382 -53.976  13.636  1.00  0.00     0.007 C 
ENDBRANCH  13  18
ENDBRANCH   1  13
TORSDOF 7
ENDMDL
MODEL 2
REMARK VINA RESULT:      -5.8      3.503      5.387
REMARK  7 active torsions:
REMARK  status: ('A' for Active; 'I' for Inactive)
REMARK    1  A    between atoms: N_6  and  C_7 
REMARK    2  A    between atoms: C_7  and  C_8 
REMARK    3  A    between atoms: C_8  and  N_9 
REMARK    4  A    between atoms: N_9  and  C_10 
REMARK    5  A    between atoms: C_10  and  C_12 
REMARK    6  A    between atoms: C_10  and  C_14 
REMARK    7  A    between atoms: C_12  and  O_13 
ROOT
HETATM    1  N   UNL     1     -41.199 -52.488  14.876  1.00  0.00     0.097 N 
HETATM    2  H   UNL     1     -40.872 -53.099  15.625  1.00  0.00     0.317 HD
ENDROOT
BRANCH   1   3
HETATM    3  C   UNL     1     -42.637 -52.617  14.680  1.00  0.00     0.292 C 
BRANCH   3   4
HETATM    4  C   UNL     1     -43.347 -51.253  14.718  1.00  0.00     0.179 C 
BRANCH   4   5
HETATM    5  N   UNL     1     -44.732 -51.312  14.281  1.00  0.00    -0.295 N 
HETATM    6  C   UNL     1     -45.863 -51.238  15.054  1.00  0.00     0.026 A 
HETATM    7  C   UNL     1     -46.916 -51.412  14.179  1.00  0.00     0.052 A 
HETATM    8  C   UNL     1     -45.855 -51.037  16.522  1.00  0.00     0.070 C 
HETATM    9  C   UNL     1     -46.326 -51.548  12.906  1.00  0.00     0.024 A 
HETATM   10  C   UNL     1     -46.992 -51.792  11.604  1.00  0.00     0.070 C 
HETATM   11  N   UNL     1     -44.996 -51.425  12.963  1.00  0.00    -0.303 N 
ATOM     12  HN  UNL     1     -44.333 -51.418  12.188  1.00  0.00     0.186 HD
ENDBRANCH   4   5
ENDBRANCH   3   4
ENDBRANCH   1   3
BRANCH   1  13
HETATM   13  C   UNL     1     -40.275 -52.496  13.718  1.00  0.00     0.178 C 
HETATM   14  C   UNL     1     -39.286 -53.669  13.901  1.00  0.00     0.051 C 
BRANCH  13  15
HETATM   15  C   UNL     1     -41.077 -52.698  12.396  1.00  0.00     0.205 C 
BRANCH  15  16
HETATM   16  O   UNL     1     -40.418 -53.482  11.416  1.00  0.00    -0.398 OA
HETATM   17  H   UNL     1     -40.273 -54.372  11.774  1.00  0.00     0.209 HD
ENDBRANCH  15  16
ENDBRANCH  13  15
BRANCH  13  18
HETATM   18  C   UNL     1     -39.501 -51.107  13.819  1.00  0.00     0.026 C 
HETATM   19  C   UNL     1     -40.078 -49.971  12.938  1.00  0.00     0.007 C 
HETATM   20  C   UNL     1     -39.479 -49.875  11.540  1.00  0.00     0.000 C 
HETATM   21  C   UNL     1     -37.964 -49.772  11.582  1.00  0.00     0.000 C 
HETATM   22  C   UNL     1     -37.332 -50.909  12.369  1.00  0.00     0.000 C 
HETATM   23  C   UNL     1     -37.957 -51.109  13.746  1.00  0.00     0.007 C 
ENDBRANCH  13  18
ENDBRANCH   1  13
TORSDOF 7
ENDMDL
MODEL 3
REMARK VINA RESULT:      -5.8      1.964      3.149
REMARK  7 active torsions:
REMARK  status: ('A' for Active; 'I' for Inactive)
REMARK    1  A    between atoms: N_6  and  C_7 
REMARK    2  A    between atoms: C_7  and  C_8 
REMARK    3  A    between atoms: C_8  and  N_9 
REMARK    4  A    between atoms: N_9  and  C_10 
REMARK    5  A    between atoms: C_10  and  C_12 
REMARK    6  A    between atoms: C_10  and  C_14 
REMARK    7  A    between atoms: C_12  and  O_13 
ROOT
HETATM    1  N   UNL     1     -42.487 -51.831  11.961  1.00  0.00     0.097 N 
HETATM    2  H   UNL     1     -42.737 -52.261  11.070  1.00  0.00     0.317 HD
ENDROOT
BRANCH   1   3
HETATM    3  C   UNL     1     -41.042 -51.716  12.104  1.00  0.00     0.292 C 
BRANCH   3   4
HETATM    4  C   UNL     1     -40.524 -50.346  11.633  1.00  0.00     0.179 C 
BRANCH   4   5
HETATM    5  N   UNL     1     -41.499 -49.279  11.783  1.00  0.00    -0.295 N 
HETATM    6  C   UNL     1     -41.801 -48.567  12.917  1.00  0.00     0.026 A 
HETATM    7  C   UNL     1     -42.834 -47.726  12.555  1.00  0.00     0.052 A 
HETATM    8  C   UNL     1     -41.122 -48.753  14.221  1.00  0.00     0.070 C 
HETATM    9  C   UNL     1     -43.060 -47.977  11.186  1.00  0.00     0.024 A 
HETATM   10  C   UNL     1     -44.080 -47.373  10.297  1.00  0.00     0.070 C 
HETATM   11  N   UNL     1     -42.203 -48.881  10.703  1.00  0.00    -0.303 N 
ATOM     12  HN  UNL     1     -42.103 -49.198   9.739  1.00  0.00     0.186 HD
ENDBRANCH   4   5
ENDBRANCH   3   4
ENDBRANCH   1   3
BRANCH   1  13
HETATM   13  C   UNL     1     -43.319 -52.348  13.073  1.00  0.00     0.178 C 
HETATM   14  C   UNL     1     -44.046 -53.618  12.578  1.00  0.00     0.051 C 
BRANCH  13  15
HETATM   15  C   UNL     1     -42.415 -52.711  14.290  1.00  0.00     0.205 C 
BRANCH  15  16
HETATM   16  O   UNL     1     -42.844 -53.842  15.031  1.00  0.00    -0.398 OA
HETATM   17  H   UNL     1     -42.922 -54.598  14.429  1.00  0.00     0.209 HD
ENDBRANCH  15  16
ENDBRANCH  13  15
BRANCH  13  18
HETATM   18  C   UNL     1     -44.374 -51.188  13.352  1.00  0.00     0.026 C 
HETATM   19  C   UNL     1     -44.316 -50.581  14.777  1.00  0.00     0.007 C 
HETATM   20  C   UNL     1     -45.222 -51.259  15.800  1.00  0.00     0.000 C 
HETATM   21  C   UNL     1     -46.664 -51.317  15.324  1.00  0.00     0.000 C 
HETATM   22  C   UNL     1     -46.793 -51.977  13.961  1.00  0.00     0.000 C 
HETATM   23  C   UNL     1     -45.842 -51.397  12.918  1.00  0.00     0.007 C 
ENDBRANCH  13  18
ENDBRANCH   1  13
TORSDOF 7
ENDMDL
MODEL 4
REMARK VINA RESULT:      -5.7      2.492      4.405
REMARK  7 active torsions:
REMARK  status: ('A' for Active; 'I' for Inactive)
REMARK    1  A    between atoms: N_6  and  C_7 
REMARK    2  A    between atoms: C_7  and  C_8 
REMARK    3  A    between atoms: C_8  and  N_9 
REMARK    4  A    between atoms: N_9  and  C_10 
REMARK    5  A    between atoms: C_10  and  C_12 
REMARK    6  A    between atoms: C_10  and  C_14 
REMARK    7  A    between atoms: C_12  and  O_13 
ROOT
HETATM    1  N   UNL     1     -41.833 -50.063  11.710  1.00  0.00     0.097 N 
HETATM    2  H   UNL     1     -41.460 -49.472  10.965  1.00  0.00     0.317 HD
ENDROOT
BRANCH   1   3
HETATM    3  C   UNL     1     -42.947 -49.414  12.389  1.00  0.00     0.292 C 
BRANCH   3   4
HETATM    4  C   UNL     1     -42.955 -47.892  12.156  1.00  0.00     0.179 C 
BRANCH   4   5
HETATM    5  N   UNL     1     -43.553 -47.507  10.890  1.00  0.00    -0.295 N 
HETATM    6  C   UNL     1     -43.110 -46.557  10.003  1.00  0.00     0.026 A 
HETATM    7  C   UNL     1     -44.058 -46.524   9.000  1.00  0.00     0.052 A 
HETATM    8  C   UNL     1     -41.872 -45.764  10.185  1.00  0.00     0.070 C 
HETATM    9  C   UNL     1     -45.008 -47.504   9.350  1.00  0.00     0.024 A 
HETATM   10  C   UNL     1     -46.258 -47.868   8.640  1.00  0.00     0.070 C 
HETATM   11  N   UNL     1     -44.666 -48.145  10.472  1.00  0.00    -0.303 N 
ATOM     12  HN  UNL     1     -45.136 -48.936  10.911  1.00  0.00     0.186 HD
ENDBRANCH   4   5
ENDBRANCH   3   4
ENDBRANCH   1   3
BRANCH   1  13
HETATM   13  C   UNL     1     -40.753 -50.718  12.485  1.00  0.00     0.178 C 
HETATM   14  C   UNL     1     -41.030 -50.481  13.986  1.00  0.00     0.051 C 
BRANCH  13  15
HETATM   15  C   UNL     1     -40.744 -52.250  12.196  1.00  0.00     0.205 C 
BRANCH  15  16
HETATM   16  O   UNL     1     -41.321 -52.623  10.956  1.00  0.00    -0.398 OA
HETATM   17  H   UNL     1     -42.093 -52.060  10.789  1.00  0.00     0.209 HD
ENDBRANCH  15  16
ENDBRANCH  13  15
BRANCH  13  18
HETATM   18  C   UNL     1     -39.428 -49.951  12.045  1.00  0.00     0.026 C 
HETATM   19  C   UNL     1     -38.111 -50.561  12.585  1.00  0.00     0.007 C 
HETATM   20  C   UNL     1     -37.646 -50.003  13.925  1.00  0.00     0.000 C 
HETATM   21  C   UNL     1     -37.535 -48.487  13.896  1.00  0.00     0.000 C 
HETATM   22  C   UNL     1     -38.829 -47.826  13.449  1.00  0.00     0.000 C 
HETATM   23  C   UNL     1     -39.389 -48.410  12.155  1.00  0.00     0.007 C 
ENDBRANCH  13  18
ENDBRANCH   1  13
TORSDOF 7
ENDMDL
MODEL 5
REMARK VINA RESULT:      -5.7      1.596      2.481
REMARK  7 active torsions:
REMARK  status: ('A' for Active; 'I' for Inactive)
REMARK    1  A    between atoms: N_6  and  C_7 
REMARK    2  A    between atoms: C_7  and  C_8 
REMARK    3  A    between atoms: C_8  and  N_9 
REMARK    4  A    between atoms: N_9  and  C_10 
REMARK    5  A    between atoms: C_10  and  C_12 
REMARK    6  A    between atoms: C_10  and  C_14 
REMARK    7  A    between atoms: C_12  and  O_13 
ROOT
HETATM    1  N   UNL     1     -42.194 -50.921  12.068  1.00  0.00     0.097 N 
HETATM    2  H   UNL     1     -42.890 -50.919  11.322  1.00  0.00     0.317 HD
ENDROOT
BRANCH   1   3
HETATM    3  C   UNL     1     -40.906 -50.434  11.589  1.00  0.00     0.292 C 
BRANCH   3   4
HETATM    4  C   UNL     1     -40.810 -48.900  11.658  1.00  0.00     0.179 C 
BRANCH   4   5
HETATM    5  N   UNL     1     -41.873 -48.223  10.936  1.00  0.00    -0.295 N 
HETATM    6  C   UNL     1     -42.865 -47.425  11.450  1.00  0.00     0.026 A 
HETATM    7  C   UNL     1     -43.656 -47.086  10.371  1.00  0.00     0.052 A 
HETATM    8  C   UNL     1     -42.992 -47.078  12.885  1.00  0.00     0.070 C 
HETATM    9  C   UNL     1     -43.048 -47.693   9.254  1.00  0.00     0.024 A 
HETATM   10  C   UNL     1     -43.499 -47.683   7.842  1.00  0.00     0.070 C 
HETATM   11  N   UNL     1     -41.925 -48.335   9.592  1.00  0.00    -0.303 N 
ATOM     12  HN  UNL     1     -41.260 -48.803   8.977  1.00  0.00     0.186 HD
ENDBRANCH   4   5
ENDBRANCH   3   4
ENDBRANCH   1   3
BRANCH   1  13
HETATM   13  C   UNL     1     -42.277 -52.148  12.895  1.00  0.00     0.178 C 
HETATM   14  C   UNL     1     -43.284 -53.110  12.225  1.00  0.00     0.051 C 
BRANCH  13  15
HETATM   15  C   UNL     1     -40.880 -52.835  12.974  1.00  0.00     0.205 C 
BRANCH  15  16
HETATM   16  O   UNL     1     -40.666 -53.855  12.012  1.00  0.00    -0.398 OA
HETATM   17  H   UNL     1     -41.175 -54.639  12.271  1.00  0.00     0.209 HD
ENDBRANCH  15  16
ENDBRANCH  13  15
BRANCH  13  18
HETATM   18  C   UNL     1     -42.850 -51.645  14.294  1.00  0.00     0.026 C 
HETATM   19  C   UNL     1     -43.121 -52.764  15.329  1.00  0.00     0.007 C 
HETATM   20  C   UNL     1     -44.529 -53.349  15.289  1.00  0.00     0.000 C 
HETATM   21  C   UNL     1     -45.591 -52.269  15.410  1.00  0.00     0.000 C 
HETATM   22  C   UNL     1     -45.424 -51.178  14.364  1.00  0.00     0.000 C 
HETATM   23  C   UNL     1     -44.005 -50.619  14.299  1.00  0.00     0.007 C 
ENDBRANCH  13  18
ENDBRANCH   1  13
TORSDOF 7
ENDMDL
MODEL 6
REMARK VINA RESULT:      -5.7      3.015      6.017
REMARK  7 active torsions:
REMARK  status: ('A' for Active; 'I' for Inactive)
REMARK    1  A    between atoms: N_6  and  C_7 
REMARK    2  A    between atoms: C_7  and  C_8 
REMARK    3  A    between atoms: C_8  and  N_9 
REMARK    4  A    between atoms: N_9  and  C_10 
REMARK    5  A    between atoms: C_10  and  C_12 
REMARK    6  A    between atoms: C_10  and  C_14 
REMARK    7  A    between atoms: C_12  and  O_13 
ROOT
HETATM    1  N   UNL     1     -43.109 -53.233  12.514  1.00  0.00     0.097 N 
HETATM    2  H   UNL     1     -43.836 -52.745  11.990  1.00  0.00     0.317 HD
ENDROOT
BRANCH   1   3
HETATM    3  C   UNL     1     -43.675 -54.300  13.330  1.00  0.00     0.292 C 
BRANCH   3   4
HETATM    4  C   UNL     1     -45.213 -54.310  13.278  1.00  0.00     0.179 C 
BRANCH   4   5
HETATM    5  N   UNL     1     -45.821 -53.223  14.027  1.00  0.00    -0.295 N 
HETATM    6  C   UNL     1     -46.473 -52.120  13.532  1.00  0.00     0.026 A 
HETATM    7  C   UNL     1     -46.799 -51.362  14.638  1.00  0.00     0.052 A 
HETATM    8  C   UNL     1     -46.706 -51.871  12.090  1.00  0.00     0.070 C 
HETATM    9  C   UNL     1     -46.336 -52.099  15.747  1.00  0.00     0.024 A 
HETATM   10  C   UNL     1     -46.395 -51.734  17.183  1.00  0.00     0.070 C 
HETATM   11  N   UNL     1     -45.795 -53.263  15.375  1.00  0.00    -0.303 N 
ATOM     12  HN  UNL     1     -45.444 -54.011  15.972  1.00  0.00     0.186 HD
ENDBRANCH   4   5
ENDBRANCH   3   4
ENDBRANCH   1   3
BRANCH   1  13
HETATM   13  C   UNL     1     -42.115 -52.293  13.082  1.00  0.00     0.178 C 
HETATM   14  C   UNL     1     -42.241 -52.335  14.621  1.00  0.00     0.051 C 
BRANCH  13  15
HETATM   15  C   UNL     1     -40.675 -52.726  12.670  1.00  0.00     0.205 C 
BRANCH  15  16
HETATM   16  O   UNL     1     -40.591 -53.394  11.421  1.00  0.00    -0.398 OA
HETATM   17  H   UNL     1     -41.279 -53.045  10.834  1.00  0.00     0.209 HD
ENDBRANCH  15  16
ENDBRANCH  13  15
BRANCH  13  18
HETATM   18  C   UNL     1     -42.561 -50.866  12.535  1.00  0.00     0.026 C 
HETATM   19  C   UNL     1     -41.401 -49.957  12.058  1.00  0.00     0.007 C 
HETATM   20  C   UNL     1     -40.818 -49.044  13.131  1.00  0.00     0.000 C 
HETATM   21  C   UNL     1     -41.891 -48.200  13.797  1.00  0.00     0.000 C 
HETATM   22  C   UNL     1     -43.023 -49.046  14.358  1.00  0.00     0.000 C 
HETATM   23  C   UNL     1     -43.585 -50.044  13.349  1.00  0.00     0.007 C 
ENDBRANCH  13  18
ENDBRANCH   1  13
TORSDOF 7
ENDMDL
MODEL 7
REMARK VINA RESULT:      -5.6      1.678      2.521
REMARK  7 active torsions:
REMARK  status: ('A' for Active; 'I' for Inactive)
REMARK    1  A    between atoms: N_6  and  C_7 
REMARK    2  A    between atoms: C_7  and  C_8 
REMARK    3  A    between atoms: C_8  and  N_9 
REMARK    4  A    between atoms: N_9  and  C_10 
REMARK    5  A    between atoms: C_10  and  C_12 
REMARK    6  A    between atoms: C_10  and  C_14 
REMARK    7  A    between atoms: C_12  and  O_13 
ROOT
HETATM    1  N   UNL     1     -44.121 -51.532  12.594  1.00  0.00     0.097 N 
HETATM    2  H   UNL     1     -43.521 -52.320  12.347  1.00  0.00     0.317 HD
ENDROOT
BRANCH   1   3
HETATM    3  C   UNL     1     -43.336 -50.408  13.091  1.00  0.00     0.292 C 
BRANCH   3   4
HETATM    4  C   UNL     1     -41.965 -50.314  12.400  1.00  0.00     0.179 C 
BRANCH   4   5
HETATM    5  N   UNL     1     -41.781 -49.084  11.649  1.00  0.00    -0.295 N 
HETATM    6  C   UNL     1     -40.702 -48.235  11.674  1.00  0.00     0.026 A 
HETATM    7  C   UNL     1     -41.044 -47.186  10.845  1.00  0.00     0.052 A 
HETATM    8  C   UNL     1     -39.479 -48.469  12.477  1.00  0.00     0.070 C 
HETATM    9  C   UNL     1     -42.322 -47.506  10.344  1.00  0.00     0.024 A 
HETATM   10  C   UNL     1     -43.179 -46.709   9.433  1.00  0.00     0.070 C 
HETATM   11  N   UNL     1     -42.743 -48.694  10.788  1.00  0.00    -0.303 N 
ATOM     12  HN  UNL     1     -43.596 -49.193  10.534  1.00  0.00     0.186 HD
ENDBRANCH   4   5
ENDBRANCH   3   4
ENDBRANCH   1   3
BRANCH   1  13
HETATM   13  C   UNL     1     -45.344 -51.972  13.305  1.00  0.00     0.178 C 
HETATM   14  C   UNL     1     -45.404 -51.232  14.660  1.00  0.00     0.051 C 
BRANCH  13  15
HETATM   15  C   UNL     1     -46.607 -51.615  12.464  1.00  0.00     0.205 C 
BRANCH  15  16
HETATM   16  O   UNL     1     -46.777 -52.393  11.290  1.00  0.00    -0.398 OA
HETATM   17  H   UNL     1     -47.274 -51.872  10.640  1.00  0.00     0.209 HD
ENDBRANCH  15  16
ENDBRANCH  13  15
BRANCH  13  18
HETATM   18  C   UNL     1     -45.124 -53.531  13.543  1.00  0.00     0.026 C 
HETATM   19  C   UNL     1     -45.300 -53.999  15.010  1.00  0.00     0.007 C 
HETATM   20  C   UNL     1     -44.025 -53.983  15.846  1.00  0.00     0.000 C 
HETATM   21  C   UNL     1     -42.908 -54.773  15.186  1.00  0.00     0.000 C 
HETATM   22  C   UNL     1     -42.634 -54.304  13.767  1.00  0.00     0.000 C 
HETATM   23  C   UNL     1     -43.892 -54.215  12.908  1.00  0.00     0.007 C 
ENDBRANCH  13  18
ENDBRANCH   1  13
TORSDOF 7
ENDMDL
MODEL 8
REMARK VINA RESULT:      -5.5      1.461      2.173
REMARK  7 active torsions:
REMARK  status: ('A' for Active; 'I' for Inactive)
REMARK    1  A    between atoms: N_6  and  C_7 
REMARK    2  A    between atoms: C_7  and  C_8 
REMARK    3  A    between atoms: C_8  and  N_9 
REMARK    4  A    between atoms: N_9  and  C_10 
REMARK    5  A    between atoms: C_10  and  C_12 
REMARK    6  A    between atoms: C_10  and  C_14 
REMARK    7  A    between atoms: C_12  and  O_13 
ROOT
HETATM    1  N   UNL     1     -42.739 -50.883  12.406  1.00  0.00     0.097 N 
HETATM    2  H   UNL     1     -43.469 -50.730  11.709  1.00  0.00     0.317 HD
ENDROOT
BRANCH   1   3
HETATM    3  C   UNL     1     -41.413 -50.707  11.827  1.00  0.00     0.292 C 
BRANCH   3   4
HETATM    4  C   UNL     1     -41.006 -49.225  11.761  1.00  0.00     0.179 C 
BRANCH   4   5
HETATM    5  N   UNL     1     -41.946 -48.401  11.020  1.00  0.00    -0.295 N 
HETATM    6  C   UNL     1     -42.826 -47.472  11.517  1.00  0.00     0.026 A 
HETATM    7  C   UNL     1     -43.535 -47.021  10.422  1.00  0.00     0.052 A 
HETATM    8  C   UNL     1     -42.936 -47.115  12.950  1.00  0.00     0.070 C 
HETATM    9  C   UNL     1     -42.994 -47.705   9.316  1.00  0.00     0.024 A 
HETATM   10  C   UNL     1     -43.406 -47.627   7.894  1.00  0.00     0.070 C 
HETATM   11  N   UNL     1     -41.982 -48.501   9.675  1.00  0.00    -0.303 N 
ATOM     12  HN  UNL     1     -41.375 -49.056   9.072  1.00  0.00     0.186 HD
ENDBRANCH   4   5
ENDBRANCH   3   4
ENDBRANCH   1   3
BRANCH   1  13
HETATM   13  C   UNL     1     -43.038 -52.048  13.270  1.00  0.00     0.178 C 
HETATM   14  C   UNL     1     -41.998 -53.150  12.966  1.00  0.00     0.051 C 
BRANCH  13  15
HETATM   15  C   UNL     1     -42.935 -51.640  14.771  1.00  0.00     0.205 C 
BRANCH  15  16
HETATM   16  O   UNL     1     -42.517 -50.303  14.995  1.00  0.00    -0.398 OA
HETATM   17  H   UNL     1     -43.237 -49.705  14.743  1.00  0.00     0.209 HD
ENDBRANCH  15  16
ENDBRANCH  13  15
BRANCH  13  18
HETATM   18  C   UNL     1     -44.487 -52.522  12.809  1.00  0.00     0.026 C 
HETATM   19  C   UNL     1     -45.606 -51.465  12.982  1.00  0.00     0.007 C 
HETATM   20  C   UNL     1     -46.332 -51.511  14.322  1.00  0.00     0.000 C 
HETATM   21  C   UNL     1     -46.884 -52.896  14.616  1.00  0.00     0.000 C 
HETATM   22  C   UNL     1     -45.811 -53.970  14.540  1.00  0.00     0.000 C 
HETATM   23  C   UNL     1     -44.992 -53.913  13.254  1.00  0.00     0.007 C 
ENDBRANCH  13  18
ENDBRANCH   1  13
TORSDOF 7
ENDMDL
MODEL 9
REMARK VINA RESULT:      -5.5      2.760      4.871
REMARK  7 active torsions:
REMARK  status: ('A' for Active; 'I' for Inactive)
REMARK    1  A    between atoms: N_6  and  C_7 
REMARK    2  A    between atoms: C_7  and  C_8 
REMARK    3  A    between atoms: C_8  and  N_9 
REMARK    4  A    between atoms: N_9  and  C_10 
REMARK    5  A    between atoms: C_10  and  C_12 
REMARK    6  A    between atoms: C_10  and  C_14 
REMARK    7  A    between atoms: C_12  and  O_13 
ROOT
HETATM    1  N   UNL     1     -43.074 -52.941  14.113  1.00  0.00     0.097 N 
HETATM    2  H   UNL     1     -42.609 -52.122  13.720  1.00  0.00     0.317 HD
ENDROOT
BRANCH   1   3
HETATM    3  C   UNL     1     -42.223 -54.121  14.027  1.00  0.00     0.292 C 
BRANCH   3   4
HETATM    4  C   UNL     1     -41.205 -54.014  12.878  1.00  0.00     0.179 C 
BRANCH   4   5
HETATM    5  N   UNL     1     -40.634 -52.686  12.737  1.00  0.00    -0.295 N 
HETATM    6  C   UNL     1     -39.690 -52.086  13.532  1.00  0.00     0.026 A 
HETATM    7  C   UNL     1     -39.539 -50.812  13.021  1.00  0.00     0.052 A 
HETATM    8  C   UNL     1     -39.042 -52.742  14.692  1.00  0.00     0.070 C 
HETATM    9  C   UNL     1     -40.402 -50.750  11.909  1.00  0.00     0.024 A 
HETATM   10  C   UNL     1     -40.662 -49.600  11.010  1.00  0.00     0.070 C 
HETATM   11  N   UNL     1     -41.023 -51.915  11.700  1.00  0.00    -0.303 N 
ATOM     12  HN  UNL     1     -41.647 -52.164  10.933  1.00  0.00     0.186 HD
ENDBRANCH   4   5
ENDBRANCH   3   4
ENDBRANCH   1   3
BRANCH   1  13
HETATM   13  C   UNL     1     -44.500 -53.006  13.716  1.00  0.00     0.178 C 
HETATM   14  C   UNL     1     -44.563 -53.198  12.184  1.00  0.00     0.051 C 
BRANCH  13  15
HETATM   15  C   UNL     1     -45.194 -54.213  14.417  1.00  0.00     0.205 C 
BRANCH  15  16
HETATM   16  O   UNL     1     -45.812 -55.136  13.535  1.00  0.00    -0.398 OA
HETATM   17  H   UNL     1     -46.357 -54.644  12.901  1.00  0.00     0.209 HD
ENDBRANCH  15  16
ENDBRANCH  13  15
BRANCH  13  18
HETATM   18  C   UNL     1     -45.088 -51.580  14.112  1.00  0.00     0.026 C 
HETATM   19  C   UNL     1     -44.376 -50.888  15.302  1.00  0.00     0.007 C 
HETATM   20  C   UNL     1     -44.971 -51.195  16.672  1.00  0.00     0.000 C 
HETATM   21  C   UNL     1     -46.460 -50.895  16.720  1.00  0.00     0.000 C 
HETATM   22  C   UNL     1     -47.226 -51.614  15.620  1.00  0.00     0.000 C 
HETATM   23  C   UNL     1     -46.619 -51.414  14.234  1.00  0.00     0.007 C 
ENDBRANCH  13  18
ENDBRANCH   1  13
TORSDOF 7
ENDMDL
