MODEL 1
REMARK VINA RESULT:      -6.8      0.000      0.000
REMARK  4 active torsions:
REMARK  status: ('A' for Active; 'I' for Inactive)
REMARK    1  A    between atoms: N_10  and  C_11 
REMARK    2  A    between atoms: C_11  and  C_12 
REMARK    3  A    between atoms: C_12  and  O_13 
REMARK    4  A    between atoms: C_12  and  C_14 
ROOT
HETATM    1  C   UNL     1     -41.375 -55.611  16.812  1.00  0.00     0.181 C 
HETATM    2  N   UNL     1     -41.339 -54.861  15.573  1.00  0.00    -0.261 N 
HETATM    3  N   UNL     1     -40.134 -54.194  15.293  1.00  0.00    -0.306 N 
ATOM      4  HN  UNL     1     -39.340 -54.279  15.927  1.00  0.00     0.186 HD
HETATM    5  C   UNL     1     -40.039 -53.466  14.218  1.00  0.00     0.122 A 
HETATM    6  C   UNL     1     -41.156 -53.323  13.339  1.00  0.00     0.032 A 
HETATM    7  C   UNL     1     -41.390 -52.609  12.161  1.00  0.00     0.122 A 
HETATM    8  N   UNL     1     -42.648 -52.762  11.732  1.00  0.00    -0.308 N 
ATOM      9  HN  UNL     1     -43.080 -52.355  10.902  1.00  0.00     0.186 HD
HETATM   10  N   UNL     1     -43.218 -53.581  12.653  1.00  0.00    -0.284 N 
HETATM   11  C   UNL     1     -42.335 -53.967  13.619  1.00  0.00     0.133 A 
HETATM   12  C   UNL     1     -42.497 -54.817  14.762  1.00  0.00     0.290 A 
HETATM   13  O   UNL     1     -43.534 -55.430  15.011  1.00  0.00    -0.264 OA
ENDROOT
BRANCH  10  14
HETATM   14  C   UNL     1     -44.659 -53.787  12.610  1.00  0.00     0.186 C 
BRANCH  14  15
HETATM   15  C   UNL     1     -45.452 -52.476  12.686  1.00  0.00     0.174 C 
BRANCH  15  16
HETATM   16  O   UNL     1     -46.736 -52.632  12.063  1.00  0.00    -0.389 OA
HETATM   17  H   UNL     1     -46.661 -52.325  11.139  1.00  0.00     0.210 HD
ENDBRANCH  15  16
BRANCH  15  18
HETATM   18  C   UNL     1     -45.698 -51.889  14.065  1.00  0.00     0.011 A 
HETATM   19  C   UNL     1     -46.946 -52.121  14.680  1.00  0.00     0.013 A 
HETATM   20  C   UNL     1     -47.245 -51.599  15.942  1.00  0.00     0.001 A 
HETATM   21  C   UNL     1     -46.307 -50.825  16.617  1.00  0.00     0.003 A 
HETATM   22  C   UNL     1     -45.070 -50.580  16.028  1.00  0.00     0.043 A 
HETATM   23  C   UNL     1     -44.775 -51.109  14.770  1.00  0.00     0.125 A 
HETATM   24  F   UNL     1     -43.564 -50.849  14.261  1.00  0.00    -0.205 F 
ENDBRANCH  15  18
ENDBRANCH  14  15
ENDBRANCH  10  14
TORSDOF 4
ENDMDL
MODEL 2
REMARK VINA RESULT:      -6.1      4.274      5.866
REMARK  4 active torsions:
REMARK  status: ('A' for Active; 'I' for Inactive)
REMARK    1  A    between atoms: N_10  and  C_11 
REMARK    2  A    between atoms: C_11  and  C_12 
REMARK    3  A    between atoms: C_12  and  O_13 
REMARK    4  A    between atoms: C_12  and  C_14 
ROOT
HETATM    1  C   UNL     1     -38.581 -46.829  15.315  1.00  0.00     0.181 C 
HETATM    2  N   UNL     1     -39.118 -47.356  14.077  1.00  0.00    -0.261 N 
HETATM    3  N   UNL     1     -39.532 -46.402  13.131  1.00  0.00    -0.306 N 
ATOM      4  HN  UNL     1     -39.417 -45.407  13.320  1.00  0.00     0.186 HD
HETATM    5  C   UNL     1     -40.063 -46.799  12.011  1.00  0.00     0.122 A 
HETATM    6  C   UNL     1     -40.248 -48.191  11.750  1.00  0.00     0.032 A 
HETATM    7  C   UNL     1     -40.803 -48.926  10.698  1.00  0.00     0.122 A 
HETATM    8  N   UNL     1     -40.791 -50.239  10.953  1.00  0.00    -0.308 N 
ATOM      9  HN  UNL     1     -41.131 -50.995  10.358  1.00  0.00     0.186 HD
HETATM   10  N   UNL     1     -40.225 -50.336  12.184  1.00  0.00    -0.284 N 
HETATM   11  C   UNL     1     -39.853 -49.120  12.680  1.00  0.00     0.133 A 
HETATM   12  C   UNL     1     -39.224 -48.756  13.915  1.00  0.00     0.290 A 
HETATM   13  O   UNL     1     -38.832 -49.576  14.745  1.00  0.00    -0.264 OA
ENDROOT
BRANCH  10  14
HETATM   14  C   UNL     1     -40.249 -51.623  12.865  1.00  0.00     0.186 C 
BRANCH  14  15
HETATM   15  C   UNL     1     -41.249 -52.607  12.246  1.00  0.00     0.174 C 
BRANCH  15  16
HETATM   16  O   UNL     1     -40.579 -53.490  11.331  1.00  0.00    -0.389 OA
HETATM   17  H   UNL     1     -39.662 -53.170  11.223  1.00  0.00     0.210 HD
ENDBRANCH  15  16
BRANCH  15  18
HETATM   18  C   UNL     1     -42.049 -53.481  13.197  1.00  0.00     0.011 A 
HETATM   19  C   UNL     1     -41.397 -54.012  14.329  1.00  0.00     0.013 A 
HETATM   20  C   UNL     1     -42.068 -54.835  15.237  1.00  0.00     0.001 A 
HETATM   21  C   UNL     1     -43.407 -55.154  15.032  1.00  0.00     0.003 A 
HETATM   22  C   UNL     1     -44.070 -54.644  13.920  1.00  0.00     0.043 A 
HETATM   23  C   UNL     1     -43.395 -53.818  13.019  1.00  0.00     0.125 A 
HETATM   24  F   UNL     1     -44.089 -53.348  11.975  1.00  0.00    -0.205 F 
ENDBRANCH  15  18
ENDBRANCH  14  15
ENDBRANCH  10  14
TORSDOF 4
ENDMDL
MODEL 3
REMARK VINA RESULT:      -6.0      3.562      4.782
REMARK  4 active torsions:
REMARK  status: ('A' for Active; 'I' for Inactive)
REMARK    1  A    between atoms: N_10  and  C_11 
REMARK    2  A    between atoms: C_11  and  C_12 
REMARK    3  A    between atoms: C_12  and  O_13 
REMARK    4  A    between atoms: C_12  and  C_14 
ROOT
HETATM    1  C   UNL     1     -39.629 -49.910  17.444  1.00  0.00     0.181 C 
HETATM    2  N   UNL     1     -39.150 -50.082  16.087  1.00  0.00    -0.261 N 
HETATM    3  N   UNL     1     -37.811 -49.724  15.858  1.00  0.00    -0.306 N 
ATOM      4  HN  UNL     1     -37.227 -49.398  16.628  1.00  0.00     0.186 HD
HETATM    5  C   UNL     1     -37.322 -49.811  14.655  1.00  0.00     0.122 A 
HETATM    6  C   UNL     1     -38.142 -50.244  13.569  1.00  0.00     0.032 A 
HETATM    7  C   UNL     1     -37.943 -50.407  12.195  1.00  0.00     0.122 A 
HETATM    8  N   UNL     1     -39.063 -50.796  11.576  1.00  0.00    -0.308 N 
ATOM      9  HN  UNL     1     -39.195 -50.988  10.583  1.00  0.00     0.186 HD
HETATM   10  N   UNL     1     -39.984 -50.876  12.571  1.00  0.00    -0.284 N 
HETATM   11  C   UNL     1     -39.452 -50.583  13.793  1.00  0.00     0.133 A 
HETATM   12  C   UNL     1     -40.045 -50.550  15.098  1.00  0.00     0.290 A 
HETATM   13  O   UNL     1     -41.208 -50.883  15.324  1.00  0.00    -0.264 OA
ENDROOT
BRANCH  10  14
HETATM   14  C   UNL     1     -41.383 -51.070  12.215  1.00  0.00     0.186 C 
BRANCH  14  15
HETATM   15  C   UNL     1     -41.707 -52.521  11.841  1.00  0.00     0.174 C 
BRANCH  15  16
HETATM   16  O   UNL     1     -40.516 -53.209  11.426  1.00  0.00    -0.389 OA
HETATM   17  H   UNL     1     -39.756 -52.619  11.594  1.00  0.00     0.210 HD
ENDBRANCH  15  16
BRANCH  15  18
HETATM   18  C   UNL     1     -42.369 -53.385  12.901  1.00  0.00     0.011 A 
HETATM   19  C   UNL     1     -41.562 -53.932  13.920  1.00  0.00     0.013 A 
HETATM   20  C   UNL     1     -42.103 -54.747  14.919  1.00  0.00     0.001 A 
HETATM   21  C   UNL     1     -43.462 -55.040  14.920  1.00  0.00     0.003 A 
HETATM   22  C   UNL     1     -44.278 -54.514  13.922  1.00  0.00     0.043 A 
HETATM   23  C   UNL     1     -43.732 -53.696  12.931  1.00  0.00     0.125 A 
HETATM   24  F   UNL     1     -44.569 -53.209  12.005  1.00  0.00    -0.205 F 
ENDBRANCH  15  18
ENDBRANCH  14  15
ENDBRANCH  10  14
TORSDOF 4
ENDMDL
MODEL 4
REMARK VINA RESULT:      -6.0      2.565      5.571
REMARK  4 active torsions:
REMARK  status: ('A' for Active; 'I' for Inactive)
REMARK    1  A    between atoms: N_10  and  C_11 
REMARK    2  A    between atoms: C_11  and  C_12 
REMARK    3  A    between atoms: C_12  and  O_13 
REMARK    4  A    between atoms: C_12  and  C_14 
ROOT
HETATM    1  C   UNL     1     -45.167 -49.919  17.297  1.00  0.00     0.181 C 
HETATM    2  N   UNL     1     -45.328 -50.620  16.039  1.00  0.00    -0.261 N 
HETATM    3  N   UNL     1     -46.614 -51.123  15.776  1.00  0.00    -0.306 N 
ATOM      4  HN  UNL     1     -47.375 -50.958  16.435  1.00  0.00     0.186 HD
HETATM    5  C   UNL     1     -46.826 -51.801  14.686  1.00  0.00     0.122 A 
HETATM    6  C   UNL     1     -45.759 -52.055  13.771  1.00  0.00     0.032 A 
HETATM    7  C   UNL     1     -45.646 -52.757  12.568  1.00  0.00     0.122 A 
HETATM    8  N   UNL     1     -44.390 -52.749  12.107  1.00  0.00    -0.308 N 
ATOM      9  HN  UNL     1     -44.033 -53.181  11.255  1.00  0.00     0.186 HD
HETATM   10  N   UNL     1     -43.699 -52.036  13.034  1.00  0.00    -0.284 N 
HETATM   11  C   UNL     1     -44.502 -51.572  14.035  1.00  0.00     0.133 A 
HETATM   12  C   UNL     1     -44.206 -50.784  15.195  1.00  0.00     0.290 A 
HETATM   13  O   UNL     1     -43.094 -50.313  15.431  1.00  0.00    -0.264 OA
ENDROOT
BRANCH  10  14
HETATM   14  C   UNL     1     -42.245 -52.010  12.955  1.00  0.00     0.186 C 
BRANCH  14  15
HETATM   15  C   UNL     1     -41.635 -53.397  12.714  1.00  0.00     0.174 C 
BRANCH  15  16
HETATM   16  O   UNL     1     -40.619 -53.327  11.701  1.00  0.00    -0.389 OA
HETATM   17  H   UNL     1     -40.799 -54.029  11.047  1.00  0.00     0.210 HD
ENDBRANCH  15  16
BRANCH  15  18
HETATM   18  C   UNL     1     -41.021 -54.107  13.909  1.00  0.00     0.011 A 
HETATM   19  C   UNL     1     -39.623 -54.289  13.935  1.00  0.00     0.013 A 
HETATM   20  C   UNL     1     -38.994 -54.945  14.996  1.00  0.00     0.001 A 
HETATM   21  C   UNL     1     -39.747 -55.443  16.054  1.00  0.00     0.003 A 
HETATM   22  C   UNL     1     -41.129 -55.278  16.049  1.00  0.00     0.043 A 
HETATM   23  C   UNL     1     -41.751 -54.616  14.988  1.00  0.00     0.125 A 
HETATM   24  F   UNL     1     -43.082 -54.477  15.044  1.00  0.00    -0.205 F 
ENDBRANCH  15  18
ENDBRANCH  14  15
ENDBRANCH  10  14
TORSDOF 4
ENDMDL
MODEL 5
REMARK VINA RESULT:      -5.9      3.768      5.034
REMARK  4 active torsions:
REMARK  status: ('A' for Active; 'I' for Inactive)
REMARK    1  A    between atoms: N_10  and  C_11 
REMARK    2  A    between atoms: C_11  and  C_12 
REMARK    3  A    between atoms: C_12  and  O_13 
REMARK    4  A    between atoms: C_12  and  C_14 
ROOT
HETATM    1  C   UNL     1     -39.307 -49.080  16.876  1.00  0.00     0.181 C 
HETATM    2  N   UNL     1     -39.077 -49.264  15.458  1.00  0.00    -0.261 N 
HETATM    3  N   UNL     1     -37.928 -48.645  14.935  1.00  0.00    -0.306 N 
ATOM      4  HN  UNL     1     -37.296 -48.133  15.549  1.00  0.00     0.186 HD
HETATM    5  C   UNL     1     -37.678 -48.731  13.661  1.00  0.00     0.122 A 
HETATM    6  C   UNL     1     -38.573 -49.427  12.792  1.00  0.00     0.032 A 
HETATM    7  C   UNL     1     -38.615 -49.666  11.415  1.00  0.00     0.122 A 
HETATM    8  N   UNL     1     -39.714 -50.342  11.064  1.00  0.00    -0.308 N 
ATOM      9  HN  UNL     1     -39.991 -50.647  10.130  1.00  0.00     0.186 HD
HETATM   10  N   UNL     1     -40.378 -50.531  12.234  1.00  0.00    -0.284 N 
HETATM   11  C   UNL     1     -39.700 -50.022  13.303  1.00  0.00     0.133 A 
HETATM   12  C   UNL     1     -40.016 -50.002  14.701  1.00  0.00     0.290 A 
HETATM   13  O   UNL     1     -41.002 -50.558  15.181  1.00  0.00    -0.264 OA
ENDROOT
BRANCH  10  14
HETATM   14  C   UNL     1     -41.736 -51.056  12.191  1.00  0.00     0.186 C 
BRANCH  14  15
HETATM   15  C   UNL     1     -41.784 -52.567  11.933  1.00  0.00     0.174 C 
BRANCH  15  16
HETATM   16  O   UNL     1     -40.536 -53.020  11.384  1.00  0.00    -0.389 OA
HETATM   17  H   UNL     1     -39.844 -52.880  12.058  1.00  0.00     0.210 HD
ENDBRANCH  15  16
BRANCH  15  18
HETATM   18  C   UNL     1     -42.100 -53.468  13.115  1.00  0.00     0.011 A 
HETATM   19  C   UNL     1     -43.414 -53.961  13.250  1.00  0.00     0.013 A 
HETATM   20  C   UNL     1     -43.778 -54.782  14.320  1.00  0.00     0.001 A 
HETATM   21  C   UNL     1     -42.838 -55.125  15.287  1.00  0.00     0.003 A 
HETATM   22  C   UNL     1     -41.535 -54.648  15.177  1.00  0.00     0.043 A 
HETATM   23  C   UNL     1     -41.177 -53.832  14.101  1.00  0.00     0.125 A 
HETATM   24  F   UNL     1     -39.907 -53.414  14.042  1.00  0.00    -0.205 F 
ENDBRANCH  15  18
ENDBRANCH  14  15
ENDBRANCH  10  14
TORSDOF 4
ENDMDL
MODEL 6
REMARK VINA RESULT:      -5.9      3.119      5.795
REMARK  4 active torsions:
REMARK  status: ('A' for Active; 'I' for Inactive)
REMARK    1  A    between atoms: N_10  and  C_11 
REMARK    2  A    between atoms: C_11  and  C_12 
REMARK    3  A    between atoms: C_12  and  O_13 
REMARK    4  A    between atoms: C_12  and  C_14 
ROOT
HETATM    1  C   UNL     1     -45.443 -50.610  16.943  1.00  0.00     0.181 C 
HETATM    2  N   UNL     1     -45.246 -51.592  15.896  1.00  0.00    -0.261 N 
HETATM    3  N   UNL     1     -45.916 -52.815  16.066  1.00  0.00    -0.306 N 
ATOM      4  HN  UNL     1     -46.524 -52.961  16.872  1.00  0.00     0.186 HD
HETATM    5  C   UNL     1     -45.755 -53.762  15.188  1.00  0.00     0.122 A 
HETATM    6  C   UNL     1     -44.885 -53.573  14.071  1.00  0.00     0.032 A 
HETATM    7  C   UNL     1     -44.475 -54.374  13.001  1.00  0.00     0.122 A 
HETATM    8  N   UNL     1     -43.585 -53.746  12.225  1.00  0.00    -0.308 N 
ATOM      9  HN  UNL     1     -43.129 -54.098  11.384  1.00  0.00     0.186 HD
HETATM   10  N   UNL     1     -43.427 -52.532  12.814  1.00  0.00    -0.284 N 
HETATM   11  C   UNL     1     -44.224 -52.381  13.912  1.00  0.00     0.133 A 
HETATM   12  C   UNL     1     -44.387 -51.281  14.817  1.00  0.00     0.290 A 
HETATM   13  O   UNL     1     -43.830 -50.194  14.672  1.00  0.00    -0.264 OA
ENDROOT
BRANCH  10  14
HETATM   14  C   UNL     1     -42.358 -51.661  12.345  1.00  0.00     0.186 C 
BRANCH  14  15
HETATM   15  C   UNL     1     -40.965 -52.277  12.523  1.00  0.00     0.174 C 
BRANCH  15  16
HETATM   16  O   UNL     1     -40.693 -53.210  11.464  1.00  0.00    -0.389 OA
HETATM   17  H   UNL     1     -41.338 -53.048  10.749  1.00  0.00     0.210 HD
ENDBRANCH  15  16
BRANCH  15  18
HETATM   18  C   UNL     1     -39.783 -51.325  12.588  1.00  0.00     0.011 A 
HETATM   19  C   UNL     1     -39.814 -50.162  11.791  1.00  0.00     0.013 A 
HETATM   20  C   UNL     1     -38.755 -49.250  11.791  1.00  0.00     0.001 A 
HETATM   21  C   UNL     1     -37.635 -49.482  12.583  1.00  0.00     0.003 A 
HETATM   22  C   UNL     1     -37.581 -50.625  13.375  1.00  0.00     0.043 A 
HETATM   23  C   UNL     1     -38.645 -51.529  13.375  1.00  0.00     0.125 A 
HETATM   24  F   UNL     1     -38.540 -52.603  14.167  1.00  0.00    -0.205 F 
ENDBRANCH  15  18
ENDBRANCH  14  15
ENDBRANCH  10  14
TORSDOF 4
ENDMDL
MODEL 7
REMARK VINA RESULT:      -5.8      3.986      5.616
REMARK  4 active torsions:
REMARK  status: ('A' for Active; 'I' for Inactive)
REMARK    1  A    between atoms: N_10  and  C_11 
REMARK    2  A    between atoms: C_11  and  C_12 
REMARK    3  A    between atoms: C_12  and  O_13 
REMARK    4  A    between atoms: C_12  and  C_14 
ROOT
HETATM    1  C   UNL     1     -41.993 -46.434  14.433  1.00  0.00     0.181 C 
HETATM    2  N   UNL     1     -41.093 -47.258  13.652  1.00  0.00    -0.261 N 
HETATM    3  N   UNL     1     -40.370 -46.595  12.646  1.00  0.00    -0.306 N 
ATOM      4  HN  UNL     1     -40.468 -45.588  12.521  1.00  0.00     0.186 HD
HETATM    5  C   UNL     1     -39.572 -47.277  11.876  1.00  0.00     0.122 A 
HETATM    6  C   UNL     1     -39.448 -48.691  12.031  1.00  0.00     0.032 A 
HETATM    7  C   UNL     1     -38.732 -49.691  11.367  1.00  0.00     0.122 A 
HETATM    8  N   UNL     1     -38.997 -50.903  11.866  1.00  0.00    -0.308 N 
ATOM      9  HN  UNL     1     -38.612 -51.800  11.570  1.00  0.00     0.186 HD
HETATM   10  N   UNL     1     -39.895 -50.668  12.857  1.00  0.00    -0.284 N 
HETATM   11  C   UNL     1     -40.164 -49.338  13.007  1.00  0.00     0.133 A 
HETATM   12  C   UNL     1     -41.029 -48.646  13.917  1.00  0.00     0.290 A 
HETATM   13  O   UNL     1     -41.651 -49.203  14.820  1.00  0.00    -0.264 OA
ENDROOT
BRANCH  10  14
HETATM   14  C   UNL     1     -40.565 -51.802  13.479  1.00  0.00     0.186 C 
BRANCH  14  15
HETATM   15  C   UNL     1     -41.408 -52.614  12.488  1.00  0.00     0.174 C 
BRANCH  15  16
HETATM   16  O   UNL     1     -40.570 -53.502  11.730  1.00  0.00    -0.389 OA
HETATM   17  H   UNL     1     -40.463 -54.325  12.245  1.00  0.00     0.210 HD
ENDBRANCH  15  16
BRANCH  15  18
HETATM   18  C   UNL     1     -42.540 -53.452  13.057  1.00  0.00     0.011 A 
HETATM   19  C   UNL     1     -43.834 -53.281  12.523  1.00  0.00     0.013 A 
HETATM   20  C   UNL     1     -44.924 -54.009  13.009  1.00  0.00     0.001 A 
HETATM   21  C   UNL     1     -44.749 -54.919  14.046  1.00  0.00     0.003 A 
HETATM   22  C   UNL     1     -43.481 -55.102  14.591  1.00  0.00     0.043 A 
HETATM   23  C   UNL     1     -42.395 -54.376  14.097  1.00  0.00     0.125 A 
HETATM   24  F   UNL     1     -41.198 -54.603  14.653  1.00  0.00    -0.205 F 
ENDBRANCH  15  18
ENDBRANCH  14  15
ENDBRANCH  10  14
TORSDOF 4
ENDMDL
MODEL 8
REMARK VINA RESULT:      -5.8      2.779      5.268
REMARK  4 active torsions:
REMARK  status: ('A' for Active; 'I' for Inactive)
REMARK    1  A    between atoms: N_10  and  C_11 
REMARK    2  A    between atoms: C_11  and  C_12 
REMARK    3  A    between atoms: C_12  and  O_13 
REMARK    4  A    between atoms: C_12  and  C_14 
ROOT
HETATM    1  C   UNL     1     -46.322 -53.696  18.900  1.00  0.00     0.181 C 
HETATM    2  N   UNL     1     -46.427 -53.042  17.611  1.00  0.00    -0.261 N 
HETATM    3  N   UNL     1     -47.304 -51.945  17.547  1.00  0.00    -0.306 N 
ATOM      4  HN  UNL     1     -47.796 -51.632  18.384  1.00  0.00     0.186 HD
HETATM    5  C   UNL     1     -47.482 -51.333  16.413  1.00  0.00     0.122 A 
HETATM    6  C   UNL     1     -46.813 -51.782  15.234  1.00  0.00     0.032 A 
HETATM    7  C   UNL     1     -46.815 -51.383  13.894  1.00  0.00     0.122 A 
HETATM    8  N   UNL     1     -46.041 -52.174  13.142  1.00  0.00    -0.308 N 
ATOM      9  HN  UNL     1     -45.864 -52.105  12.140  1.00  0.00     0.186 HD
HETATM   10  N   UNL     1     -45.547 -53.088  14.017  1.00  0.00    -0.284 N 
HETATM   11  C   UNL     1     -45.966 -52.859  15.296  1.00  0.00     0.133 A 
HETATM   12  C   UNL     1     -45.690 -53.555  16.518  1.00  0.00     0.290 A 
HETATM   13  O   UNL     1     -44.908 -54.500  16.600  1.00  0.00    -0.264 OA
ENDROOT
BRANCH  10  14
HETATM   14  C   UNL     1     -44.826 -54.239  13.493  1.00  0.00     0.186 C 
BRANCH  14  15
HETATM   15  C   UNL     1     -43.511 -53.856  12.803  1.00  0.00     0.174 C 
BRANCH  15  16
HETATM   16  O   UNL     1     -43.510 -52.459  12.470  1.00  0.00    -0.389 OA
HETATM   17  H   UNL     1     -42.592 -52.134  12.541  1.00  0.00     0.210 HD
ENDBRANCH  15  16
BRANCH  15  18
HETATM   18  C   UNL     1     -42.221 -54.131  13.558  1.00  0.00     0.011 A 
HETATM   19  C   UNL     1     -42.308 -54.651  14.866  1.00  0.00     0.013 A 
HETATM   20  C   UNL     1     -41.162 -54.914  15.623  1.00  0.00     0.001 A 
HETATM   21  C   UNL     1     -39.902 -54.657  15.093  1.00  0.00     0.003 A 
HETATM   22  C   UNL     1     -39.792 -54.140  13.805  1.00  0.00     0.043 A 
HETATM   23  C   UNL     1     -40.940 -53.885  13.053  1.00  0.00     0.125 A 
HETATM   24  F   UNL     1     -40.771 -53.400  11.816  1.00  0.00    -0.205 F 
ENDBRANCH  15  18
ENDBRANCH  14  15
ENDBRANCH  10  14
TORSDOF 4
ENDMDL
MODEL 9
REMARK VINA RESULT:      -5.8      3.124      5.793
REMARK  4 active torsions:
REMARK  status: ('A' for Active; 'I' for Inactive)
REMARK    1  A    between atoms: N_10  and  C_11 
REMARK    2  A    between atoms: C_11  and  C_12 
REMARK    3  A    between atoms: C_12  and  O_13 
REMARK    4  A    between atoms: C_12  and  C_14 
ROOT
HETATM    1  C   UNL     1     -45.805 -50.859  17.142  1.00  0.00     0.181 C 
HETATM    2  N   UNL     1     -45.531 -51.732  16.019  1.00  0.00    -0.261 N 
HETATM    3  N   UNL     1     -46.156 -52.990  16.051  1.00  0.00    -0.306 N 
ATOM      4  HN  UNL     1     -46.787 -53.231  16.815  1.00  0.00     0.186 HD
HETATM    5  C   UNL     1     -45.925 -53.845  15.098  1.00  0.00     0.122 A 
HETATM    6  C   UNL     1     -45.024 -53.522  14.037  1.00  0.00     0.032 A 
HETATM    7  C   UNL     1     -44.543 -54.205  12.917  1.00  0.00     0.122 A 
HETATM    8  N   UNL     1     -43.651 -53.476  12.238  1.00  0.00    -0.308 N 
ATOM      9  HN  UNL     1     -43.151 -53.732  11.386  1.00  0.00     0.186 HD
HETATM   10  N   UNL     1     -43.564 -52.316  12.940  1.00  0.00    -0.284 N 
HETATM   11  C   UNL     1     -44.406 -52.296  14.014  1.00  0.00     0.133 A 
HETATM   12  C   UNL     1     -44.646 -51.292  15.008  1.00  0.00     0.290 A 
HETATM   13  O   UNL     1     -44.128 -50.176  14.984  1.00  0.00    -0.264 OA
ENDROOT
BRANCH  10  14
HETATM   14  C   UNL     1     -42.515 -51.367  12.595  1.00  0.00     0.186 C 
BRANCH  14  15
HETATM   15  C   UNL     1     -41.168 -52.043  12.313  1.00  0.00     0.174 C 
BRANCH  15  16
HETATM   16  O   UNL     1     -41.169 -52.633  11.003  1.00  0.00    -0.389 OA
HETATM   17  H   UNL     1     -40.408 -53.242  10.948  1.00  0.00     0.210 HD
ENDBRANCH  15  16
BRANCH  15  18
HETATM   18  C   UNL     1     -39.921 -51.181  12.407  1.00  0.00     0.011 A 
HETATM   19  C   UNL     1     -38.953 -51.504  13.381  1.00  0.00     0.013 A 
HETATM   20  C   UNL     1     -37.790 -50.745  13.533  1.00  0.00     0.001 A 
HETATM   21  C   UNL     1     -37.567 -49.639  12.719  1.00  0.00     0.003 A 
HETATM   22  C   UNL     1     -38.509 -49.298  11.753  1.00  0.00     0.043 A 
HETATM   23  C   UNL     1     -39.667 -50.064  11.603  1.00  0.00     0.125 A 
HETATM   24  F   UNL     1     -40.531 -49.695  10.649  1.00  0.00    -0.205 F 
ENDBRANCH  15  18
ENDBRANCH  14  15
ENDBRANCH  10  14
TORSDOF 4
ENDMDL
