MODEL 1
REMARK VINA RESULT:      -6.1      0.000      0.000
REMARK  7 active torsions:
REMARK  status: ('A' for Active; 'I' for Inactive)
REMARK    1  A    between atoms: C_5  and  O_6 
REMARK    2  A    between atoms: O_6  and  C_7 
REMARK    3  A    between atoms: C_7  and  C_8 
REMARK    4  A    between atoms: C_8  and  N_9 
REMARK    5  A    between atoms: C_10  and  C_11 
REMARK    6  A    between atoms: C_11  and  N_12 
REMARK    7  A    between atoms: N_12  and  C_13 
ROOT
HETATM    1  N   UNL     1     -42.725 -51.771  14.081  1.00  0.00    -0.331 N 
HETATM    2  C   UNL     1     -42.544 -52.253  12.796  1.00  0.00     0.102 A 
HETATM    3  N   UNL     1     -43.707 -52.491  12.220  1.00  0.00    -0.343 N 
ATOM      4  HN  UNL     1     -43.863 -52.901  11.300  1.00  0.00     0.167 HD
HETATM    5  C   UNL     1     -44.661 -52.077  13.110  1.00  0.00     0.060 A 
HETATM    6  C   UNL     1     -46.055 -52.048  12.960  1.00  0.00     0.032 A 
HETATM    7  C   UNL     1     -46.837 -51.562  14.013  1.00  0.00     0.002 A 
HETATM    8  C   UNL     1     -46.242 -51.126  15.198  1.00  0.00     0.002 A 
HETATM    9  C   UNL     1     -44.849 -51.153  15.364  1.00  0.00     0.032 A 
HETATM   10  C   UNL     1     -44.081 -51.628  14.293  1.00  0.00     0.062 A 
ENDROOT
BRANCH   1  11
HETATM   11  C   UNL     1     -41.673 -51.452  15.035  1.00  0.00     0.157 C 
BRANCH  11  12
HETATM   12  C   UNL     1     -41.355 -49.961  15.085  1.00  0.00     0.196 C 
BRANCH  12  13
HETATM   13  O   UNL     1     -39.950 -49.756  15.253  1.00  0.00    -0.350 OA
BRANCH  13  14
HETATM   14  C   UNL     1     -39.220 -49.928  14.101  1.00  0.00     0.068 A 
HETATM   15  C   UNL     1     -39.551 -49.093  13.034  1.00  0.00     0.037 A 
HETATM   16  C   UNL     1     -38.835 -49.160  11.833  1.00  0.00     0.009 A 
HETATM   17  C   UNL     1     -37.770 -50.057  11.691  1.00  0.00    -0.062 A 
HETATM   18  C   UNL     1     -36.947 -50.104  10.439  1.00  0.00     0.048 C 
HETATM   19  C   UNL     1     -37.447 -50.897  12.761  1.00  0.00     0.009 A 
HETATM   20  C   UNL     1     -38.165 -50.833  13.958  1.00  0.00     0.037 A 
ENDBRANCH  13  14
ENDBRANCH  12  13
ENDBRANCH  11  12
ENDBRANCH   1  11
BRANCH   2  21
HETATM   21  C   UNL     1     -41.221 -52.468  12.135  1.00  0.00     0.198 C 
BRANCH  21  22
HETATM   22  N   UNL     1     -40.857 -53.864  12.236  1.00  0.00    -0.361 N 
HETATM   23  H   UNL     1     -40.853 -54.418  11.389  1.00  0.00     0.162 HD
BRANCH  22  24
HETATM   24  C   UNL     1     -40.215 -54.332  13.351  1.00  0.00     0.348 C 
HETATM   25  O   UNL     1     -39.038 -54.146  13.619  1.00  0.00    -0.284 OA
ENDBRANCH  22  24
ENDBRANCH  21  22
ENDBRANCH   2  21
TORSDOF 7
ENDMDL
MODEL 2
REMARK VINA RESULT:      -6.1      2.237      2.979
REMARK  7 active torsions:
REMARK  status: ('A' for Active; 'I' for Inactive)
REMARK    1  A    between atoms: C_5  and  O_6 
REMARK    2  A    between atoms: O_6  and  C_7 
REMARK    3  A    between atoms: C_7  and  C_8 
REMARK    4  A    between atoms: C_8  and  N_9 
REMARK    5  A    between atoms: C_10  and  C_11 
REMARK    6  A    between atoms: C_11  and  N_12 
REMARK    7  A    between atoms: N_12  and  C_13 
ROOT
HETATM    1  N   UNL     1     -42.733 -51.882  13.809  1.00  0.00    -0.331 N 
HETATM    2  C   UNL     1     -42.466 -52.539  12.621  1.00  0.00     0.102 A 
HETATM    3  N   UNL     1     -43.587 -52.917  12.037  1.00  0.00    -0.343 N 
ATOM      4  HN  UNL     1     -43.679 -53.466  11.182  1.00  0.00     0.167 HD
HETATM    5  C   UNL     1     -44.603 -52.423  12.810  1.00  0.00     0.060 A 
HETATM    6  C   UNL     1     -45.987 -52.485  12.596  1.00  0.00     0.032 A 
HETATM    7  C   UNL     1     -46.842 -51.888  13.528  1.00  0.00     0.002 A 
HETATM    8  C   UNL     1     -46.328 -51.252  14.658  1.00  0.00     0.002 A 
HETATM    9  C   UNL     1     -44.945 -51.186  14.889  1.00  0.00     0.032 A 
HETATM   10  C   UNL     1     -44.103 -51.775  13.937  1.00  0.00     0.062 A 
ENDROOT
BRANCH   1  11
HETATM   11  C   UNL     1     -41.746 -51.373  14.751  1.00  0.00     0.157 C 
BRANCH  11  12
HETATM   12  C   UNL     1     -41.586 -49.858  14.675  1.00  0.00     0.196 C 
BRANCH  12  13
HETATM   13  O   UNL     1     -40.843 -49.494  13.508  1.00  0.00    -0.350 OA
BRANCH  13  14
HETATM   14  C   UNL     1     -41.593 -48.862  12.545  1.00  0.00     0.068 A 
HETATM   15  C   UNL     1     -41.051 -48.843  11.259  1.00  0.00     0.037 A 
HETATM   16  C   UNL     1     -41.759 -48.264  10.200  1.00  0.00     0.009 A 
HETATM   17  C   UNL     1     -43.025 -47.708  10.414  1.00  0.00    -0.062 A 
HETATM   18  C   UNL     1     -43.831 -47.139   9.285  1.00  0.00     0.048 C 
HETATM   19  C   UNL     1     -43.561 -47.722  11.705  1.00  0.00     0.009 A 
HETATM   20  C   UNL     1     -42.851 -48.297  12.763  1.00  0.00     0.037 A 
ENDBRANCH  13  14
ENDBRANCH  12  13
ENDBRANCH  11  12
ENDBRANCH   1  11
BRANCH   2  21
HETATM   21  C   UNL     1     -41.104 -52.784  12.060  1.00  0.00     0.198 C 
BRANCH  21  22
HETATM   22  N   UNL     1     -40.681 -54.125  12.399  1.00  0.00    -0.361 N 
HETATM   23  H   UNL     1     -40.716 -54.833  11.677  1.00  0.00     0.162 HD
BRANCH  22  24
HETATM   24  C   UNL     1     -39.943 -54.352  13.529  1.00  0.00     0.348 C 
HETATM   25  O   UNL     1     -38.829 -53.902  13.749  1.00  0.00    -0.284 OA
ENDBRANCH  22  24
ENDBRANCH  21  22
ENDBRANCH   2  21
TORSDOF 7
ENDMDL
MODEL 3
REMARK VINA RESULT:      -6.0      3.242      7.369
REMARK  7 active torsions:
REMARK  status: ('A' for Active; 'I' for Inactive)
REMARK    1  A    between atoms: C_5  and  O_6 
REMARK    2  A    between atoms: O_6  and  C_7 
REMARK    3  A    between atoms: C_7  and  C_8 
REMARK    4  A    between atoms: C_8  and  N_9 
REMARK    5  A    between atoms: C_10  and  C_11 
REMARK    6  A    between atoms: C_11  and  N_12 
REMARK    7  A    between atoms: N_12  and  C_13 
ROOT
HETATM    1  N   UNL     1     -41.104 -48.898  12.574  1.00  0.00    -0.331 N 
HETATM    2  C   UNL     1     -40.842 -48.041  11.519  1.00  0.00     0.102 A 
HETATM    3  N   UNL     1     -39.595 -48.176  11.110  1.00  0.00    -0.343 N 
ATOM      4  HN  UNL     1     -39.124 -47.630  10.388  1.00  0.00     0.167 HD
HETATM    5  C   UNL     1     -39.061 -49.196  11.850  1.00  0.00     0.060 A 
HETATM    6  C   UNL     1     -37.790 -49.779  11.761  1.00  0.00     0.032 A 
HETATM    7  C   UNL     1     -37.468 -50.833  12.623  1.00  0.00     0.002 A 
HETATM    8  C   UNL     1     -38.393 -51.287  13.565  1.00  0.00     0.002 A 
HETATM    9  C   UNL     1     -39.668 -50.710  13.669  1.00  0.00     0.032 A 
HETATM   10  C   UNL     1     -39.978 -49.667  12.786  1.00  0.00     0.062 A 
ENDROOT
BRANCH   1  11
HETATM   11  C   UNL     1     -42.352 -48.989  13.319  1.00  0.00     0.157 C 
BRANCH  11  12
HETATM   12  C   UNL     1     -43.287 -50.062  12.771  1.00  0.00     0.196 C 
BRANCH  12  13
HETATM   13  O   UNL     1     -43.386 -51.154  13.690  1.00  0.00    -0.350 OA
BRANCH  13  14
HETATM   14  C   UNL     1     -44.482 -51.088  14.517  1.00  0.00     0.068 A 
HETATM   15  C   UNL     1     -45.706 -51.432  13.944  1.00  0.00     0.037 A 
HETATM   16  C   UNL     1     -46.873 -51.440  14.717  1.00  0.00     0.009 A 
HETATM   17  C   UNL     1     -46.825 -51.115  16.077  1.00  0.00    -0.062 A 
HETATM   18  C   UNL     1     -48.049 -51.178  16.941  1.00  0.00     0.048 C 
HETATM   19  C   UNL     1     -45.597 -50.763  16.645  1.00  0.00     0.009 A 
HETATM   20  C   UNL     1     -44.433 -50.751  15.872  1.00  0.00     0.037 A 
ENDBRANCH  13  14
ENDBRANCH  12  13
ENDBRANCH  11  12
ENDBRANCH   1  11
BRANCH   2  21
HETATM   21  C   UNL     1     -41.828 -47.098  10.911  1.00  0.00     0.198 C 
BRANCH  21  22
HETATM   22  N   UNL     1     -42.260 -47.617   9.632  1.00  0.00    -0.361 N 
HETATM   23  H   UNL     1     -42.002 -48.565   9.390  1.00  0.00     0.162 HD
BRANCH  22  24
HETATM   24  C   UNL     1     -43.257 -46.991   8.934  1.00  0.00     0.348 C 
HETATM   25  O   UNL     1     -43.200 -45.859   8.479  1.00  0.00    -0.284 OA
ENDBRANCH  22  24
ENDBRANCH  21  22
ENDBRANCH   2  21
TORSDOF 7
ENDMDL
MODEL 4
REMARK VINA RESULT:      -5.9      4.981      6.949
REMARK  7 active torsions:
REMARK  status: ('A' for Active; 'I' for Inactive)
REMARK    1  A    between atoms: C_5  and  O_6 
REMARK    2  A    between atoms: O_6  and  C_7 
REMARK    3  A    between atoms: C_7  and  C_8 
REMARK    4  A    between atoms: C_8  and  N_9 
REMARK    5  A    between atoms: C_10  and  C_11 
REMARK    6  A    between atoms: C_11  and  N_12 
REMARK    7  A    between atoms: N_12  and  C_13 
ROOT
HETATM    1  N   UNL     1     -42.111 -46.920  10.442  1.00  0.00    -0.331 N 
HETATM    2  C   UNL     1     -43.244 -46.359   9.880  1.00  0.00     0.102 A 
HETATM    3  N   UNL     1     -43.321 -45.075  10.171  1.00  0.00    -0.343 N 
ATOM      4  HN  UNL     1     -44.079 -44.435   9.932  1.00  0.00     0.167 HD
HETATM    5  C   UNL     1     -42.176 -44.774  10.860  1.00  0.00     0.060 A 
HETATM    6  C   UNL     1     -41.735 -43.533  11.340  1.00  0.00     0.032 A 
HETATM    7  C   UNL     1     -40.509 -43.465  12.011  1.00  0.00     0.002 A 
HETATM    8  C   UNL     1     -39.745 -44.616  12.210  1.00  0.00     0.002 A 
HETATM    9  C   UNL     1     -40.176 -45.866  11.740  1.00  0.00     0.032 A 
HETATM   10  C   UNL     1     -41.398 -45.911  11.056  1.00  0.00     0.062 A 
ENDROOT
BRANCH   1  11
HETATM   11  C   UNL     1     -41.725 -48.323  10.381  1.00  0.00     0.157 C 
BRANCH  11  12
HETATM   12  C   UNL     1     -42.125 -49.098  11.632  1.00  0.00     0.196 C 
BRANCH  12  13
HETATM   13  O   UNL     1     -41.107 -50.041  11.981  1.00  0.00    -0.350 OA
BRANCH  13  14
HETATM   14  C   UNL     1     -40.043 -49.488  12.653  1.00  0.00     0.068 A 
HETATM   15  C   UNL     1     -40.353 -48.759  13.801  1.00  0.00     0.037 A 
HETATM   16  C   UNL     1     -39.336 -48.196  14.580  1.00  0.00     0.009 A 
HETATM   17  C   UNL     1     -37.993 -48.366  14.223  1.00  0.00    -0.062 A 
HETATM   18  C   UNL     1     -36.882 -47.828  15.074  1.00  0.00     0.048 C 
HETATM   19  C   UNL     1     -37.687 -49.091  13.067  1.00  0.00     0.009 A 
HETATM   20  C   UNL     1     -38.704 -49.649  12.288  1.00  0.00     0.037 A 
ENDBRANCH  13  14
ENDBRANCH  12  13
ENDBRANCH  11  12
ENDBRANCH   1  11
BRANCH   2  21
HETATM   21  C   UNL     1     -44.245 -47.091   9.046  1.00  0.00     0.198 C 
BRANCH  21  22
HETATM   22  N   UNL     1     -45.459 -46.310   8.960  1.00  0.00    -0.361 N 
HETATM   23  H   UNL     1     -45.402 -45.382   8.561  1.00  0.00     0.162 HD
BRANCH  22  24
HETATM   24  C   UNL     1     -46.680 -46.915   9.085  1.00  0.00     0.348 C 
HETATM   25  O   UNL     1     -47.057 -47.887   8.448  1.00  0.00    -0.284 OA
ENDBRANCH  22  24
ENDBRANCH  21  22
ENDBRANCH   2  21
TORSDOF 7
ENDMDL
MODEL 5
REMARK VINA RESULT:      -5.9      2.253      3.497
REMARK  7 active torsions:
REMARK  status: ('A' for Active; 'I' for Inactive)
REMARK    1  A    between atoms: C_5  and  O_6 
REMARK    2  A    between atoms: O_6  and  C_7 
REMARK    3  A    between atoms: C_7  and  C_8 
REMARK    4  A    between atoms: C_8  and  N_9 
REMARK    5  A    between atoms: C_10  and  C_11 
REMARK    6  A    between atoms: C_11  and  N_12 
REMARK    7  A    between atoms: N_12  and  C_13 
ROOT
HETATM    1  N   UNL     1     -42.357 -51.937  12.511  1.00  0.00    -0.331 N 
HETATM    2  C   UNL     1     -42.472 -50.558  12.534  1.00  0.00     0.102 A 
HETATM    3  N   UNL     1     -43.711 -50.200  12.814  1.00  0.00    -0.343 N 
ATOM      4  HN  UNL     1     -44.084 -49.251  12.839  1.00  0.00     0.167 HD
HETATM    5  C   UNL     1     -44.394 -51.360  13.062  1.00  0.00     0.060 A 
HETATM    6  C   UNL     1     -45.724 -51.531  13.470  1.00  0.00     0.032 A 
HETATM    7  C   UNL     1     -46.205 -52.829  13.679  1.00  0.00     0.002 A 
HETATM    8  C   UNL     1     -45.377 -53.934  13.474  1.00  0.00     0.002 A 
HETATM    9  C   UNL     1     -44.045 -53.778  13.061  1.00  0.00     0.032 A 
HETATM   10  C   UNL     1     -43.577 -52.472  12.872  1.00  0.00     0.062 A 
ENDROOT
BRANCH   1  11
HETATM   11  C   UNL     1     -41.157 -52.694  12.183  1.00  0.00     0.157 C 
BRANCH  11  12
HETATM   12  C   UNL     1     -40.396 -53.156  13.422  1.00  0.00     0.196 C 
BRANCH  12  13
HETATM   13  O   UNL     1     -38.997 -52.891  13.274  1.00  0.00    -0.350 OA
BRANCH  13  14
HETATM   14  C   UNL     1     -38.629 -51.618  13.639  1.00  0.00     0.068 A 
HETATM   15  C   UNL     1     -37.950 -50.875  12.674  1.00  0.00     0.037 A 
HETATM   16  C   UNL     1     -37.573 -49.552  12.933  1.00  0.00     0.009 A 
HETATM   17  C   UNL     1     -37.883 -48.954  14.160  1.00  0.00    -0.062 A 
HETATM   18  C   UNL     1     -37.548 -47.520  14.439  1.00  0.00     0.048 C 
HETATM   19  C   UNL     1     -38.558 -49.705  15.127  1.00  0.00     0.009 A 
HETATM   20  C   UNL     1     -38.930 -51.027  14.868  1.00  0.00     0.037 A 
ENDBRANCH  13  14
ENDBRANCH  12  13
ENDBRANCH  11  12
ENDBRANCH   1  11
BRANCH   2  21
HETATM   21  C   UNL     1     -41.356 -49.597  12.290  1.00  0.00     0.198 C 
BRANCH  21  22
HETATM   22  N   UNL     1     -41.285 -49.295  10.877  1.00  0.00    -0.361 N 
HETATM   23  H   UNL     1     -41.128 -50.060  10.233  1.00  0.00     0.162 HD
BRANCH  22  24
HETATM   24  C   UNL     1     -41.752 -48.099  10.402  1.00  0.00     0.348 C 
HETATM   25  O   UNL     1     -42.765 -47.950   9.735  1.00  0.00    -0.284 OA
ENDBRANCH  22  24
ENDBRANCH  21  22
ENDBRANCH   2  21
TORSDOF 7
ENDMDL
MODEL 6
REMARK VINA RESULT:      -5.9      2.775      5.418
REMARK  7 active torsions:
REMARK  status: ('A' for Active; 'I' for Inactive)
REMARK    1  A    between atoms: C_5  and  O_6 
REMARK    2  A    between atoms: O_6  and  C_7 
REMARK    3  A    between atoms: C_7  and  C_8 
REMARK    4  A    between atoms: C_8  and  N_9 
REMARK    5  A    between atoms: C_10  and  C_11 
REMARK    6  A    between atoms: C_11  and  N_12 
REMARK    7  A    between atoms: N_12  and  C_13 
ROOT
HETATM    1  N   UNL     1     -39.363 -50.132  12.903  1.00  0.00    -0.331 N 
HETATM    2  C   UNL     1     -38.831 -50.069  11.627  1.00  0.00     0.102 A 
HETATM    3  N   UNL     1     -39.714 -49.576  10.779  1.00  0.00    -0.343 N 
ATOM      4  HN  UNL     1     -39.605 -49.474   9.770  1.00  0.00     0.167 HD
HETATM    5  C   UNL     1     -40.807 -49.232  11.528  1.00  0.00     0.060 A 
HETATM    6  C   UNL     1     -41.994 -48.607  11.122  1.00  0.00     0.032 A 
HETATM    7  C   UNL     1     -42.978 -48.338  12.080  1.00  0.00     0.002 A 
HETATM    8  C   UNL     1     -42.786 -48.698  13.415  1.00  0.00     0.002 A 
HETATM    9  C   UNL     1     -41.605 -49.330  13.835  1.00  0.00     0.032 A 
HETATM   10  C   UNL     1     -40.625 -49.576  12.865  1.00  0.00     0.062 A 
ENDROOT
BRANCH   1  11
HETATM   11  C   UNL     1     -38.703 -50.671  14.083  1.00  0.00     0.157 C 
BRANCH  11  12
HETATM   12  C   UNL     1     -39.206 -52.062  14.455  1.00  0.00     0.196 C 
BRANCH  12  13
HETATM   13  O   UNL     1     -39.597 -52.781  13.282  1.00  0.00    -0.350 OA
BRANCH  13  14
HETATM   14  C   UNL     1     -40.894 -53.236  13.313  1.00  0.00     0.068 A 
HETATM   15  C   UNL     1     -41.195 -54.165  14.309  1.00  0.00     0.037 A 
HETATM   16  C   UNL     1     -42.499 -54.653  14.452  1.00  0.00     0.009 A 
HETATM   17  C   UNL     1     -43.520 -54.207  13.606  1.00  0.00    -0.062 A 
HETATM   18  C   UNL     1     -44.936 -54.665  13.779  1.00  0.00     0.048 C 
HETATM   19  C   UNL     1     -43.212 -53.281  12.604  1.00  0.00     0.009 A 
HETATM   20  C   UNL     1     -41.909 -52.797  12.460  1.00  0.00     0.037 A 
ENDBRANCH  13  14
ENDBRANCH  12  13
ENDBRANCH  11  12
ENDBRANCH   1  11
BRANCH   2  21
HETATM   21  C   UNL     1     -37.447 -50.485  11.249  1.00  0.00     0.198 C 
BRANCH  21  22
HETATM   22  N   UNL     1     -37.144 -49.991   9.923  1.00  0.00    -0.361 N 
HETATM   23  H   UNL     1     -37.435 -49.051   9.687  1.00  0.00     0.162 HD
BRANCH  22  24
HETATM   24  C   UNL     1     -36.209 -50.622   9.148  1.00  0.00     0.348 C 
HETATM   25  O   UNL     1     -35.969 -51.820   9.163  1.00  0.00    -0.284 OA
ENDBRANCH  22  24
ENDBRANCH  21  22
ENDBRANCH   2  21
TORSDOF 7
ENDMDL
MODEL 7
REMARK VINA RESULT:      -5.9      4.848      7.395
REMARK  7 active torsions:
REMARK  status: ('A' for Active; 'I' for Inactive)
REMARK    1  A    between atoms: C_5  and  O_6 
REMARK    2  A    between atoms: O_6  and  C_7 
REMARK    3  A    between atoms: C_7  and  C_8 
REMARK    4  A    between atoms: C_8  and  N_9 
REMARK    5  A    between atoms: C_10  and  C_11 
REMARK    6  A    between atoms: C_11  and  N_12 
REMARK    7  A    between atoms: N_12  and  C_13 
ROOT
HETATM    1  N   UNL     1     -42.051 -47.025  10.434  1.00  0.00    -0.331 N 
HETATM    2  C   UNL     1     -43.252 -46.496   9.996  1.00  0.00     0.102 A 
HETATM    3  N   UNL     1     -43.331 -45.212  10.294  1.00  0.00    -0.343 N 
ATOM      4  HN  UNL     1     -44.127 -44.594  10.137  1.00  0.00     0.167 HD
HETATM    5  C   UNL     1     -42.128 -44.879  10.855  1.00  0.00     0.060 A 
HETATM    6  C   UNL     1     -41.670 -43.626  11.285  1.00  0.00     0.032 A 
HETATM    7  C   UNL     1     -40.382 -43.524  11.820  1.00  0.00     0.002 A 
HETATM    8  C   UNL     1     -39.570 -44.653  11.937  1.00  0.00     0.002 A 
HETATM    9  C   UNL     1     -40.016 -45.915  11.517  1.00  0.00     0.032 A 
HETATM   10  C   UNL     1     -41.303 -45.995  10.968  1.00  0.00     0.062 A 
ENDROOT
BRANCH   1  11
HETATM   11  C   UNL     1     -41.637 -48.417  10.333  1.00  0.00     0.157 C 
BRANCH  11  12
HETATM   12  C   UNL     1     -41.846 -49.189  11.632  1.00  0.00     0.196 C 
BRANCH  12  13
HETATM   13  O   UNL     1     -41.016 -50.354  11.658  1.00  0.00    -0.350 OA
BRANCH  13  14
HETATM   14  C   UNL     1     -41.573 -51.420  12.324  1.00  0.00     0.068 A 
HETATM   15  C   UNL     1     -42.769 -51.168  12.995  1.00  0.00     0.037 A 
HETATM   16  C   UNL     1     -43.438 -52.199  13.665  1.00  0.00     0.009 A 
HETATM   17  C   UNL     1     -42.921 -53.500  13.658  1.00  0.00    -0.062 A 
HETATM   18  C   UNL     1     -43.650 -54.635  14.312  1.00  0.00     0.048 C 
HETATM   19  C   UNL     1     -41.718 -53.746  12.991  1.00  0.00     0.009 A 
HETATM   20  C   UNL     1     -41.049 -52.715  12.326  1.00  0.00     0.037 A 
ENDBRANCH  13  14
ENDBRANCH  12  13
ENDBRANCH  11  12
ENDBRANCH   1  11
BRANCH   2  21
HETATM   21  C   UNL     1     -44.317 -47.256   9.276  1.00  0.00     0.198 C 
BRANCH  21  22
HETATM   22  N   UNL     1     -45.612 -46.712   9.622  1.00  0.00    -0.361 N 
HETATM   23  H   UNL     1     -45.645 -45.795  10.048  1.00  0.00     0.162 HD
BRANCH  22  24
HETATM   24  C   UNL     1     -46.752 -47.249   9.088  1.00  0.00     0.348 C 
HETATM   25  O   UNL     1     -46.791 -48.155   8.270  1.00  0.00    -0.284 OA
ENDBRANCH  22  24
ENDBRANCH  21  22
ENDBRANCH   2  21
TORSDOF 7
ENDMDL
MODEL 8
REMARK VINA RESULT:      -5.9      3.297      6.863
REMARK  7 active torsions:
REMARK  status: ('A' for Active; 'I' for Inactive)
REMARK    1  A    between atoms: C_5  and  O_6 
REMARK    2  A    between atoms: O_6  and  C_7 
REMARK    3  A    between atoms: C_7  and  C_8 
REMARK    4  A    between atoms: C_8  and  N_9 
REMARK    5  A    between atoms: C_10  and  C_11 
REMARK    6  A    between atoms: C_11  and  N_12 
REMARK    7  A    between atoms: N_12  and  C_13 
ROOT
HETATM    1  N   UNL     1     -41.093 -48.863  12.773  1.00  0.00    -0.331 N 
HETATM    2  C   UNL     1     -41.281 -48.683  11.414  1.00  0.00     0.102 A 
HETATM    3  N   UNL     1     -40.210 -49.062  10.743  1.00  0.00    -0.343 N 
ATOM      4  HN  UNL     1     -40.057 -48.985   9.737  1.00  0.00     0.167 HD
HETATM    5  C   UNL     1     -39.345 -49.578  11.669  1.00  0.00     0.060 A 
HETATM    6  C   UNL     1     -38.093 -50.178  11.471  1.00  0.00     0.032 A 
HETATM    7  C   UNL     1     -37.388 -50.651  12.583  1.00  0.00     0.002 A 
HETATM    8  C   UNL     1     -37.915 -50.517  13.868  1.00  0.00     0.002 A 
HETATM    9  C   UNL     1     -39.163 -49.914  14.083  1.00  0.00     0.032 A 
HETATM   10  C   UNL     1     -39.863 -49.461  12.957  1.00  0.00     0.062 A 
ENDROOT
BRANCH   1  11
HETATM   11  C   UNL     1     -42.033 -48.505  13.826  1.00  0.00     0.157 C 
BRANCH  11  12
HETATM   12  C   UNL     1     -42.857 -49.695  14.309  1.00  0.00     0.196 C 
BRANCH  12  13
HETATM   13  O   UNL     1     -43.931 -49.958  13.401  1.00  0.00    -0.350 OA
BRANCH  13  14
HETATM   14  C   UNL     1     -44.393 -51.252  13.445  1.00  0.00     0.068 A 
HETATM   15  C   UNL     1     -43.421 -52.252  13.434  1.00  0.00     0.037 A 
HETATM   16  C   UNL     1     -43.789 -53.600  13.521  1.00  0.00     0.009 A 
HETATM   17  C   UNL     1     -45.136 -53.961  13.634  1.00  0.00    -0.062 A 
HETATM   18  C   UNL     1     -45.553 -55.392  13.795  1.00  0.00     0.048 C 
HETATM   19  C   UNL     1     -46.108 -52.955  13.638  1.00  0.00     0.009 A 
HETATM   20  C   UNL     1     -45.739 -51.611  13.546  1.00  0.00     0.037 A 
ENDBRANCH  13  14
ENDBRANCH  12  13
ENDBRANCH  11  12
ENDBRANCH   1  11
BRANCH   2  21
HETATM   21  C   UNL     1     -42.522 -48.145  10.780  1.00  0.00     0.198 C 
BRANCH  21  22
HETATM   22  N   UNL     1     -42.286 -47.938   9.368  1.00  0.00    -0.361 N 
HETATM   23  H   UNL     1     -41.425 -48.291   8.971  1.00  0.00     0.162 HD
BRANCH  22  24
HETATM   24  C   UNL     1     -43.320 -47.595   8.538  1.00  0.00     0.348 C 
HETATM   25  O   UNL     1     -43.565 -48.115   7.461  1.00  0.00    -0.284 OA
ENDBRANCH  22  24
ENDBRANCH  21  22
ENDBRANCH   2  21
TORSDOF 7
ENDMDL
MODEL 9
REMARK VINA RESULT:      -5.8      3.387      6.988
REMARK  7 active torsions:
REMARK  status: ('A' for Active; 'I' for Inactive)
REMARK    1  A    between atoms: C_5  and  O_6 
REMARK    2  A    between atoms: O_6  and  C_7 
REMARK    3  A    between atoms: C_7  and  C_8 
REMARK    4  A    between atoms: C_8  and  N_9 
REMARK    5  A    between atoms: C_10  and  C_11 
REMARK    6  A    between atoms: C_11  and  N_12 
REMARK    7  A    between atoms: N_12  and  C_13 
ROOT
HETATM    1  N   UNL     1     -41.698 -47.963  11.857  1.00  0.00    -0.331 N 
HETATM    2  C   UNL     1     -40.458 -48.413  11.439  1.00  0.00     0.102 A 
HETATM    3  N   UNL     1     -39.658 -47.397  11.179  1.00  0.00    -0.343 N 
ATOM      4  HN  UNL     1     -38.711 -47.442  10.803  1.00  0.00     0.167 HD
HETATM    5  C   UNL     1     -40.358 -46.269  11.515  1.00  0.00     0.060 A 
HETATM    6  C   UNL     1     -39.939 -44.931  11.492  1.00  0.00     0.032 A 
HETATM    7  C   UNL     1     -40.835 -43.936  11.899  1.00  0.00     0.002 A 
HETATM    8  C   UNL     1     -42.127 -44.269  12.308  1.00  0.00     0.002 A 
HETATM    9  C   UNL     1     -42.562 -45.603  12.331  1.00  0.00     0.032 A 
HETATM   10  C   UNL     1     -41.647 -46.587  11.935  1.00  0.00     0.062 A 
ENDROOT
BRANCH   1  11
HETATM   11  C   UNL     1     -42.851 -48.793  12.177  1.00  0.00     0.157 C 
BRANCH  11  12
HETATM   12  C   UNL     1     -42.773 -49.393  13.578  1.00  0.00     0.196 C 
BRANCH  12  13
HETATM   13  O   UNL     1     -43.246 -50.744  13.568  1.00  0.00    -0.350 OA
BRANCH  13  14
HETATM   14  C   UNL     1     -44.402 -50.934  14.287  1.00  0.00     0.068 A 
HETATM   15  C   UNL     1     -44.339 -50.621  15.645  1.00  0.00     0.037 A 
HETATM   16  C   UNL     1     -45.476 -50.738  16.453  1.00  0.00     0.009 A 
HETATM   17  C   UNL     1     -46.694 -51.159  15.906  1.00  0.00    -0.062 A 
HETATM   18  C   UNL     1     -47.941 -51.232  16.735  1.00  0.00     0.048 C 
HETATM   19  C   UNL     1     -46.750 -51.480  14.547  1.00  0.00     0.009 A 
HETATM   20  C   UNL     1     -45.613 -51.366  13.742  1.00  0.00     0.037 A 
ENDBRANCH  13  14
ENDBRANCH  12  13
ENDBRANCH  11  12
ENDBRANCH   1  11
BRANCH   2  21
HETATM   21  C   UNL     1     -40.062 -49.848  11.308  1.00  0.00     0.198 C 
BRANCH  21  22
HETATM   22  N   UNL     1     -38.675 -49.926  10.905  1.00  0.00    -0.361 N 
HETATM   23  H   UNL     1     -38.416 -49.531  10.010  1.00  0.00     0.162 HD
BRANCH  22  24
HETATM   24  C   UNL     1     -37.702 -50.201  11.827  1.00  0.00     0.348 C 
HETATM   25  O   UNL     1     -37.250 -51.309  12.071  1.00  0.00    -0.284 OA
ENDBRANCH  22  24
ENDBRANCH  21  22
ENDBRANCH   2  21
TORSDOF 7
ENDMDL
