MODEL 1
REMARK VINA RESULT:      -5.6      0.000      0.000
REMARK  5 active torsions:
REMARK  status: ('A' for Active; 'I' for Inactive)
REMARK    1  A    between atoms: C_2  and  C_5 
REMARK    2  A    between atoms: C_5  and  N_6 
REMARK    3  A    between atoms: N_6  and  C_7 
REMARK    4  A    between atoms: C_7  and  C_8 
REMARK    5  A    between atoms: C_14  and  N_15 
ROOT
HETATM    1  C   UNL     1     -42.367 -49.434  12.653  1.00  0.00     0.014 A 
HETATM    2  C   UNL     1     -43.130 -48.310  12.280  1.00  0.00     0.014 A 
HETATM    3  C   UNL     1     -42.890 -47.659  11.079  1.00  0.00     0.018 A 
HETATM    4  C   UNL     1     -41.877 -48.148  10.285  1.00  0.00     0.089 A 
HETATM    5  N   UNL     1     -41.132 -49.225  10.599  1.00  0.00    -0.352 N 
ATOM      6  HN  UNL     1     -40.396 -49.543   9.968  1.00  0.00     0.166 HD
HETATM    7  C   UNL     1     -41.371 -49.887  11.765  1.00  0.00     0.111 A 
ENDROOT
BRANCH   1   8
HETATM    8  C   UNL     1     -42.657 -50.034  14.012  1.00  0.00     0.312 C 
BRANCH   8   9
HETATM    9  N   UNL     1     -44.010 -50.555  14.213  1.00  0.00     0.088 N 
HETATM   10  H   UNL     1     -44.081 -50.923  15.158  1.00  0.00     0.316 HD
BRANCH   9  11
HETATM   11  C   UNL     1     -44.403 -51.592  13.254  1.00  0.00     0.278 C 
BRANCH  11  12
HETATM   12  C   UNL     1     -45.879 -52.042  13.454  1.00  0.00    -0.025 C 
HETATM   13  C   UNL     1     -46.699 -51.765  12.181  1.00  0.00     0.016 C 
HETATM   14  C   UNL     1     -46.529 -51.314  14.644  1.00  0.00     0.016 C 
HETATM   15  C   UNL     1     -45.912 -53.558  13.732  1.00  0.00     0.016 C 
ENDBRANCH  11  12
ENDBRANCH   9  11
ENDBRANCH   8   9
ENDBRANCH   1   8
BRANCH   7  16
HETATM   16  N   UNL     1     -40.573 -50.977  11.990  1.00  0.00    -0.363 N 
HETATM   17  C   UNL     1     -41.105 -52.319  11.755  1.00  0.00     0.150 C 
HETATM   18  C   UNL     1     -40.881 -53.222  12.974  1.00  0.00     0.187 C 
HETATM   19  O   UNL     1     -39.506 -53.209  13.400  1.00  0.00    -0.388 OA
HETATM   20  C   UNL     1     -39.127 -51.872  13.763  1.00  0.00     0.187 C 
HETATM   21  C   UNL     1     -39.240 -50.901  12.574  1.00  0.00     0.150 C 
ENDBRANCH   7  16
TORSDOF 5
ENDMDL
MODEL 2
REMARK VINA RESULT:      -5.3      3.457      5.027
REMARK  5 active torsions:
REMARK  status: ('A' for Active; 'I' for Inactive)
REMARK    1  A    between atoms: C_2  and  C_5 
REMARK    2  A    between atoms: C_5  and  N_6 
REMARK    3  A    between atoms: N_6  and  C_7 
REMARK    4  A    between atoms: C_7  and  C_8 
REMARK    5  A    between atoms: C_14  and  N_15 
ROOT
HETATM    1  C   UNL     1     -43.905 -54.190  13.722  1.00  0.00     0.014 A 
HETATM    2  C   UNL     1     -43.764 -53.444  12.535  1.00  0.00     0.014 A 
HETATM    3  C   UNL     1     -42.631 -52.677  12.311  1.00  0.00     0.018 A 
HETATM    4  C   UNL     1     -41.668 -52.668  13.295  1.00  0.00     0.089 A 
HETATM    5  N   UNL     1     -41.758 -53.375  14.438  1.00  0.00    -0.352 N 
ATOM      6  HN  UNL     1     -41.010 -53.331  15.130  1.00  0.00     0.166 HD
HETATM    7  C   UNL     1     -42.856 -54.149  14.661  1.00  0.00     0.111 A 
ENDROOT
BRANCH   1   8
HETATM    8  C   UNL     1     -45.206 -54.941  13.905  1.00  0.00     0.312 C 
BRANCH   8   9
HETATM    9  N   UNL     1     -46.400 -54.122  14.120  1.00  0.00     0.088 N 
HETATM   10  H   UNL     1     -46.469 -53.442  13.366  1.00  0.00     0.316 HD
BRANCH   9  11
HETATM   11  C   UNL     1     -46.426 -53.425  15.410  1.00  0.00     0.278 C 
BRANCH  11  12
HETATM   12  C   UNL     1     -46.448 -51.878  15.237  1.00  0.00    -0.025 C 
HETATM   13  C   UNL     1     -45.069 -51.284  15.578  1.00  0.00     0.016 C 
HETATM   14  C   UNL     1     -47.516 -51.230  16.135  1.00  0.00     0.016 C 
HETATM   15  C   UNL     1     -46.773 -51.539  13.769  1.00  0.00     0.016 C 
ENDBRANCH  11  12
ENDBRANCH   9  11
ENDBRANCH   8   9
ENDBRANCH   1   8
BRANCH   7  16
HETATM   16  N   UNL     1     -42.850 -54.840  15.843  1.00  0.00    -0.363 N 
HETATM   17  C   UNL     1     -43.271 -54.166  17.072  1.00  0.00     0.150 C 
HETATM   18  C   UNL     1     -42.225 -54.340  18.181  1.00  0.00     0.187 C 
HETATM   19  O   UNL     1     -41.873 -55.723  18.369  1.00  0.00    -0.388 OA
HETATM   20  C   UNL     1     -41.320 -56.248  17.151  1.00  0.00     0.187 C 
HETATM   21  C   UNL     1     -42.330 -56.193  15.992  1.00  0.00     0.150 C 
ENDBRANCH   7  16
TORSDOF 5
ENDMDL
MODEL 3
REMARK VINA RESULT:      -5.2      2.787      6.352
REMARK  5 active torsions:
REMARK  status: ('A' for Active; 'I' for Inactive)
REMARK    1  A    between atoms: C_2  and  C_5 
REMARK    2  A    between atoms: C_5  and  N_6 
REMARK    3  A    between atoms: N_6  and  C_7 
REMARK    4  A    between atoms: C_7  and  C_8 
REMARK    5  A    between atoms: C_14  and  N_15 
ROOT
HETATM    1  C   UNL     1     -41.481 -53.217  13.255  1.00  0.00     0.014 A 
HETATM    2  C   UNL     1     -40.097 -53.428  13.402  1.00  0.00     0.014 A 
HETATM    3  C   UNL     1     -39.606 -54.212  14.435  1.00  0.00     0.018 A 
HETATM    4  C   UNL     1     -40.522 -54.757  15.306  1.00  0.00     0.089 A 
HETATM    5  N   UNL     1     -41.854 -54.590  15.195  1.00  0.00    -0.352 N 
ATOM      6  HN  UNL     1     -42.485 -55.021  15.870  1.00  0.00     0.166 HD
HETATM    7  C   UNL     1     -42.350 -53.839  14.172  1.00  0.00     0.111 A 
ENDROOT
BRANCH   1   8
HETATM    8  C   UNL     1     -41.915 -52.291  12.139  1.00  0.00     0.312 C 
BRANCH   8   9
HETATM    9  N   UNL     1     -40.844 -51.591  11.427  1.00  0.00     0.088 N 
HETATM   10  H   UNL     1     -39.949 -51.956  11.745  1.00  0.00     0.316 HD
BRANCH   9  11
HETATM   11  C   UNL     1     -40.865 -50.135  11.592  1.00  0.00     0.278 C 
BRANCH  11  12
HETATM   12  C   UNL     1     -39.633 -49.621  12.392  1.00  0.00    -0.025 C 
HETATM   13  C   UNL     1     -38.373 -50.414  12.000  1.00  0.00     0.016 C 
HETATM   14  C   UNL     1     -39.860 -49.746  13.909  1.00  0.00     0.016 C 
HETATM   15  C   UNL     1     -39.396 -48.136  12.055  1.00  0.00     0.016 C 
ENDBRANCH  11  12
ENDBRANCH   9  11
ENDBRANCH   8   9
ENDBRANCH   1   8
BRANCH   7  16
HETATM   16  N   UNL     1     -43.716 -53.738  14.134  1.00  0.00    -0.363 N 
HETATM   17  C   UNL     1     -44.413 -53.011  15.196  1.00  0.00     0.150 C 
HETATM   18  C   UNL     1     -45.545 -53.858  15.790  1.00  0.00     0.187 C 
HETATM   19  O   UNL     1     -46.419 -54.372  14.769  1.00  0.00    -0.388 OA
HETATM   20  C   UNL     1     -45.669 -55.203  13.868  1.00  0.00     0.187 C 
HETATM   21  C   UNL     1     -44.554 -54.418  13.155  1.00  0.00     0.150 C 
ENDBRANCH   7  16
TORSDOF 5
ENDMDL
MODEL 4
REMARK VINA RESULT:      -5.2      1.516      2.122
REMARK  5 active torsions:
REMARK  status: ('A' for Active; 'I' for Inactive)
REMARK    1  A    between atoms: C_2  and  C_5 
REMARK    2  A    between atoms: C_5  and  N_6 
REMARK    3  A    between atoms: N_6  and  C_7 
REMARK    4  A    between atoms: C_7  and  C_8 
REMARK    5  A    between atoms: C_14  and  N_15 
ROOT
HETATM    1  C   UNL     1     -42.732 -48.487  11.688  1.00  0.00     0.014 A 
HETATM    2  C   UNL     1     -43.824 -47.878  11.041  1.00  0.00     0.014 A 
HETATM    3  C   UNL     1     -43.621 -46.936  10.043  1.00  0.00     0.018 A 
HETATM    4  C   UNL     1     -42.318 -46.620   9.727  1.00  0.00     0.089 A 
HETATM    5  N   UNL     1     -41.246 -47.187  10.313  1.00  0.00    -0.352 N 
ATOM      6  HN  UNL     1     -40.304 -46.915  10.035  1.00  0.00     0.166 HD
HETATM    7  C   UNL     1     -41.432 -48.128  11.280  1.00  0.00     0.111 A 
ENDROOT
BRANCH   1   8
HETATM    8  C   UNL     1     -43.055 -49.450  12.811  1.00  0.00     0.312 C 
BRANCH   8   9
HETATM    9  N   UNL     1     -44.221 -50.311  12.607  1.00  0.00     0.088 N 
HETATM   10  H   UNL     1     -45.036 -49.724  12.445  1.00  0.00     0.316 HD
BRANCH   9  11
HETATM   11  C   UNL     1     -44.492 -51.227  13.719  1.00  0.00     0.278 C 
BRANCH  11  12
HETATM   12  C   UNL     1     -45.892 -51.897  13.595  1.00  0.00    -0.025 C 
HETATM   13  C   UNL     1     -45.762 -53.428  13.688  1.00  0.00     0.016 C 
HETATM   14  C   UNL     1     -46.573 -51.526  12.266  1.00  0.00     0.016 C 
HETATM   15  C   UNL     1     -46.786 -51.414  14.754  1.00  0.00     0.016 C 
ENDBRANCH  11  12
ENDBRANCH   9  11
ENDBRANCH   8   9
ENDBRANCH   1   8
BRANCH   7  16
HETATM   16  N   UNL     1     -40.284 -48.657  11.807  1.00  0.00    -0.363 N 
HETATM   17  C   UNL     1     -39.826 -49.972  11.360  1.00  0.00     0.150 C 
HETATM   18  C   UNL     1     -39.545 -50.892  12.554  1.00  0.00     0.187 C 
HETATM   19  O   UNL     1     -38.671 -50.269  13.513  1.00  0.00    -0.388 OA
HETATM   20  C   UNL     1     -39.283 -49.069  14.012  1.00  0.00     0.187 C 
HETATM   21  C   UNL     1     -39.530 -48.043  12.893  1.00  0.00     0.150 C 
ENDBRANCH   7  16
TORSDOF 5
ENDMDL
MODEL 5
REMARK VINA RESULT:      -5.1      3.069      4.867
REMARK  5 active torsions:
REMARK  status: ('A' for Active; 'I' for Inactive)
REMARK    1  A    between atoms: C_2  and  C_5 
REMARK    2  A    between atoms: C_5  and  N_6 
REMARK    3  A    between atoms: N_6  and  C_7 
REMARK    4  A    between atoms: C_7  and  C_8 
REMARK    5  A    between atoms: C_14  and  N_15 
ROOT
HETATM    1  C   UNL     1     -39.095 -49.998  13.306  1.00  0.00     0.014 A 
HETATM    2  C   UNL     1     -37.985 -50.862  13.390  1.00  0.00     0.014 A 
HETATM    3  C   UNL     1     -37.095 -50.975  12.332  1.00  0.00     0.018 A 
HETATM    4  C   UNL     1     -37.350 -50.223  11.208  1.00  0.00     0.089 A 
HETATM    5  N   UNL     1     -38.392 -49.376  11.091  1.00  0.00    -0.352 N 
ATOM      6  HN  UNL     1     -38.528 -48.842  10.233  1.00  0.00     0.166 HD
HETATM    7  C   UNL     1     -39.262 -49.241  12.131  1.00  0.00     0.111 A 
ENDROOT
BRANCH   1   8
HETATM    8  C   UNL     1     -40.046 -49.995  14.484  1.00  0.00     0.312 C 
BRANCH   8   9
HETATM    9  N   UNL     1     -40.518 -51.305  14.937  1.00  0.00     0.088 N 
HETATM   10  H   UNL     1     -39.770 -51.982  14.809  1.00  0.00     0.316 HD
BRANCH   9  11
HETATM   11  C   UNL     1     -41.727 -51.776  14.255  1.00  0.00     0.278 C 
BRANCH  11  12
HETATM   12  C   UNL     1     -41.445 -53.018  13.360  1.00  0.00    -0.025 C 
HETATM   13  C   UNL     1     -42.654 -53.971  13.372  1.00  0.00     0.016 C 
HETATM   14  C   UNL     1     -40.196 -53.779  13.838  1.00  0.00     0.016 C 
HETATM   15  C   UNL     1     -41.208 -52.552  11.911  1.00  0.00     0.016 C 
ENDBRANCH  11  12
ENDBRANCH   9  11
ENDBRANCH   8   9
ENDBRANCH   1   8
BRANCH   7  16
HETATM   16  N   UNL     1     -40.280 -48.348  11.924  1.00  0.00    -0.363 N 
HETATM   17  C   UNL     1     -41.558 -48.825  11.396  1.00  0.00     0.150 C 
HETATM   18  C   UNL     1     -41.996 -47.995  10.183  1.00  0.00     0.187 C 
HETATM   19  O   UNL     1     -41.976 -46.585  10.467  1.00  0.00    -0.388 OA
HETATM   20  C   UNL     1     -40.643 -46.184  10.820  1.00  0.00     0.187 C 
HETATM   21  C   UNL     1     -40.141 -46.906  12.083  1.00  0.00     0.150 C 
ENDBRANCH   7  16
TORSDOF 5
ENDMDL
MODEL 6
REMARK VINA RESULT:      -5.1      1.838      4.240
REMARK  5 active torsions:
REMARK  status: ('A' for Active; 'I' for Inactive)
REMARK    1  A    between atoms: C_2  and  C_5 
REMARK    2  A    between atoms: C_5  and  N_6 
REMARK    3  A    between atoms: N_6  and  C_7 
REMARK    4  A    between atoms: C_7  and  C_8 
REMARK    5  A    between atoms: C_14  and  N_15 
ROOT
HETATM    1  C   UNL     1     -44.225 -51.657  14.295  1.00  0.00     0.014 A 
HETATM    2  C   UNL     1     -45.556 -51.249  14.513  1.00  0.00     0.014 A 
HETATM    3  C   UNL     1     -46.550 -51.560  13.597  1.00  0.00     0.018 A 
HETATM    4  C   UNL     1     -46.179 -52.265  12.475  1.00  0.00     0.089 A 
HETATM    5  N   UNL     1     -44.921 -52.683  12.234  1.00  0.00    -0.352 N 
ATOM      6  HN  UNL     1     -44.706 -53.205  11.385  1.00  0.00     0.166 HD
HETATM    7  C   UNL     1     -43.939 -52.403  13.135  1.00  0.00     0.111 A 
ENDROOT
BRANCH   1   8
HETATM    8  C   UNL     1     -43.200 -51.211  15.316  1.00  0.00     0.312 C 
BRANCH   8   9
HETATM    9  N   UNL     1     -42.318 -50.116  14.910  1.00  0.00     0.088 N 
HETATM   10  H   UNL     1     -41.554 -50.048  15.578  1.00  0.00     0.316 HD
BRANCH   9  11
HETATM   11  C   UNL     1     -42.987 -48.816  14.800  1.00  0.00     0.278 C 
BRANCH  11  12
HETATM   12  C   UNL     1     -42.542 -48.038  13.527  1.00  0.00    -0.025 C 
HETATM   13  C   UNL     1     -41.007 -48.036  13.411  1.00  0.00     0.016 C 
HETATM   14  C   UNL     1     -43.051 -46.586  13.554  1.00  0.00     0.016 C 
HETATM   15  C   UNL     1     -43.123 -48.736  12.281  1.00  0.00     0.016 C 
ENDBRANCH  11  12
ENDBRANCH   9  11
ENDBRANCH   8   9
ENDBRANCH   1   8
BRANCH   7  16
HETATM   16  N   UNL     1     -42.698 -52.881  12.810  1.00  0.00    -0.363 N 
HETATM   17  C   UNL     1     -42.217 -54.116  13.431  1.00  0.00     0.150 C 
HETATM   18  C   UNL     1     -40.824 -53.918  14.041  1.00  0.00     0.187 C 
HETATM   19  O   UNL     1     -39.903 -53.349  13.093  1.00  0.00    -0.388 OA
HETATM   20  C   UNL     1     -40.385 -52.065  12.666  1.00  0.00     0.187 C 
HETATM   21  C   UNL     1     -41.750 -52.170  11.962  1.00  0.00     0.150 C 
ENDBRANCH   7  16
TORSDOF 5
ENDMDL
MODEL 7
REMARK VINA RESULT:      -5.1      4.805      7.122
REMARK  5 active torsions:
REMARK  status: ('A' for Active; 'I' for Inactive)
REMARK    1  A    between atoms: C_2  and  C_5 
REMARK    2  A    between atoms: C_5  and  N_6 
REMARK    3  A    between atoms: N_6  and  C_7 
REMARK    4  A    between atoms: C_7  and  C_8 
REMARK    5  A    between atoms: C_14  and  N_15 
ROOT
HETATM    1  C   UNL     1     -41.686 -46.952  10.665  1.00  0.00     0.014 A 
HETATM    2  C   UNL     1     -42.267 -47.881   9.780  1.00  0.00     0.014 A 
HETATM    3  C   UNL     1     -43.388 -47.544   9.036  1.00  0.00     0.018 A 
HETATM    4  C   UNL     1     -43.906 -46.280   9.209  1.00  0.00     0.089 A 
HETATM    5  N   UNL     1     -43.374 -45.358  10.036  1.00  0.00    -0.352 N 
ATOM      6  HN  UNL     1     -43.801 -44.436  10.121  1.00  0.00     0.166 HD
HETATM    7  C   UNL     1     -42.261 -45.670  10.757  1.00  0.00     0.111 A 
ENDROOT
BRANCH   1   8
HETATM    8  C   UNL     1     -40.508 -47.436  11.484  1.00  0.00     0.312 C 
BRANCH   8   9
HETATM    9  N   UNL     1     -39.973 -48.752  11.131  1.00  0.00     0.088 N 
HETATM   10  H   UNL     1     -40.600 -49.190  10.460  1.00  0.00     0.316 HD
BRANCH   9  11
HETATM   11  C   UNL     1     -39.778 -49.648  12.275  1.00  0.00     0.278 C 
BRANCH  11  12
HETATM   12  C   UNL     1     -38.270 -49.892  12.574  1.00  0.00    -0.025 C 
HETATM   13  C   UNL     1     -37.451 -49.836  11.271  1.00  0.00     0.016 C 
HETATM   14  C   UNL     1     -38.048 -51.253  13.254  1.00  0.00     0.016 C 
HETATM   15  C   UNL     1     -37.757 -48.785  13.516  1.00  0.00     0.016 C 
ENDBRANCH  11  12
ENDBRANCH   9  11
ENDBRANCH   8   9
ENDBRANCH   1   8
BRANCH   7  16
HETATM   16  N   UNL     1     -41.787 -44.666  11.558  1.00  0.00    -0.363 N 
HETATM   17  C   UNL     1     -42.442 -44.397  12.838  1.00  0.00     0.150 C 
HETATM   18  C   UNL     1     -42.792 -42.910  12.976  1.00  0.00     0.187 C 
HETATM   19  O   UNL     1     -41.654 -42.068  12.718  1.00  0.00    -0.388 OA
HETATM   20  C   UNL     1     -41.184 -42.291  11.380  1.00  0.00     0.187 C 
HETATM   21  C   UNL     1     -40.727 -43.745  11.165  1.00  0.00     0.150 C 
ENDBRANCH   7  16
TORSDOF 5
ENDMDL
MODEL 8
REMARK VINA RESULT:      -5.1      2.444      4.397
REMARK  5 active torsions:
REMARK  status: ('A' for Active; 'I' for Inactive)
REMARK    1  A    between atoms: C_2  and  C_5 
REMARK    2  A    between atoms: C_5  and  N_6 
REMARK    3  A    between atoms: N_6  and  C_7 
REMARK    4  A    between atoms: C_7  and  C_8 
REMARK    5  A    between atoms: C_14  and  N_15 
ROOT
HETATM    1  C   UNL     1     -40.425 -52.929  13.255  1.00  0.00     0.014 A 
HETATM    2  C   UNL     1     -40.885 -54.149  13.788  1.00  0.00     0.014 A 
HETATM    3  C   UNL     1     -40.372 -54.639  14.980  1.00  0.00     0.018 A 
HETATM    4  C   UNL     1     -39.398 -53.893  15.603  1.00  0.00     0.089 A 
HETATM    5  N   UNL     1     -38.939 -52.717  15.134  1.00  0.00    -0.352 N 
ATOM      6  HN  UNL     1     -38.216 -52.207  15.642  1.00  0.00     0.166 HD
HETATM    7  C   UNL     1     -39.449 -52.214  13.975  1.00  0.00     0.111 A 
ENDROOT
BRANCH   1   8
HETATM    8  C   UNL     1     -40.995 -52.512  11.916  1.00  0.00     0.312 C 
BRANCH   8   9
HETATM    9  N   UNL     1     -42.455 -52.483  11.815  1.00  0.00     0.088 N 
HETATM   10  H   UNL     1     -42.711 -52.216  10.868  1.00  0.00     0.316 HD
BRANCH   9  11
HETATM   11  C   UNL     1     -43.105 -51.581  12.770  1.00  0.00     0.278 C 
BRANCH  11  12
HETATM   12  C   UNL     1     -44.301 -52.264  13.496  1.00  0.00    -0.025 C 
HETATM   13  C   UNL     1     -44.553 -53.664  12.908  1.00  0.00     0.016 C 
HETATM   14  C   UNL     1     -45.584 -51.423  13.372  1.00  0.00     0.016 C 
HETATM   15  C   UNL     1     -43.962 -52.419  14.991  1.00  0.00     0.016 C 
ENDBRANCH  11  12
ENDBRANCH   9  11
ENDBRANCH   8   9
ENDBRANCH   1   8
BRANCH   7  16
HETATM   16  N   UNL     1     -38.930 -51.008  13.587  1.00  0.00    -0.363 N 
HETATM   17  C   UNL     1     -39.701 -49.786  13.816  1.00  0.00     0.150 C 
HETATM   18  C   UNL     1     -39.817 -48.959  12.530  1.00  0.00     0.187 C 
HETATM   19  O   UNL     1     -38.531 -48.729  11.925  1.00  0.00    -0.388 OA
HETATM   20  C   UNL     1     -37.925 -49.987  11.591  1.00  0.00     0.187 C 
HETATM   21  C   UNL     1     -37.690 -50.861  12.835  1.00  0.00     0.150 C 
ENDBRANCH   7  16
TORSDOF 5
ENDMDL
MODEL 9
REMARK VINA RESULT:      -4.9      3.046      4.908
REMARK  5 active torsions:
REMARK  status: ('A' for Active; 'I' for Inactive)
REMARK    1  A    between atoms: C_2  and  C_5 
REMARK    2  A    between atoms: C_5  and  N_6 
REMARK    3  A    between atoms: N_6  and  C_7 
REMARK    4  A    between atoms: C_7  and  C_8 
REMARK    5  A    between atoms: C_14  and  N_15 
ROOT
HETATM    1  C   UNL     1     -39.658 -50.026  12.428  1.00  0.00     0.014 A 
HETATM    2  C   UNL     1     -38.725 -50.991  12.855  1.00  0.00     0.014 A 
HETATM    3  C   UNL     1     -37.659 -50.635  13.668  1.00  0.00     0.018 A 
HETATM    4  C   UNL     1     -37.550 -49.309  14.023  1.00  0.00     0.089 A 
HETATM    5  N   UNL     1     -38.425 -48.357  13.646  1.00  0.00    -0.352 N 
ATOM      6  HN  UNL     1     -38.294 -47.390  13.943  1.00  0.00     0.166 HD
HETATM    7  C   UNL     1     -39.488 -48.698  12.865  1.00  0.00     0.111 A 
ENDROOT
BRANCH   1   8
HETATM    8  C   UNL     1     -40.746 -50.499  11.488  1.00  0.00     0.312 C 
BRANCH   8   9
HETATM    9  N   UNL     1     -41.016 -51.938  11.485  1.00  0.00     0.088 N 
HETATM   10  H   UNL     1     -41.067 -52.257  10.520  1.00  0.00     0.316 HD
BRANCH   9  11
HETATM   11  C   UNL     1     -42.242 -52.320  12.191  1.00  0.00     0.278 C 
BRANCH  11  12
HETATM   12  C   UNL     1     -41.950 -53.254  13.403  1.00  0.00    -0.025 C 
HETATM   13  C   UNL     1     -43.154 -54.174  13.670  1.00  0.00     0.016 C 
HETATM   14  C   UNL     1     -41.641 -52.441  14.672  1.00  0.00     0.016 C 
HETATM   15  C   UNL     1     -40.728 -54.135  13.077  1.00  0.00     0.016 C 
ENDBRANCH  11  12
ENDBRANCH   9  11
ENDBRANCH   8   9
ENDBRANCH   1   8
BRANCH   7  16
HETATM   16  N   UNL     1     -40.330 -47.666  12.545  1.00  0.00    -0.363 N 
HETATM   17  C   UNL     1     -41.503 -47.409  13.381  1.00  0.00     0.150 C 
HETATM   18  C   UNL     1     -42.775 -47.318  12.530  1.00  0.00     0.187 C 
HETATM   19  O   UNL     1     -42.623 -46.388  11.442  1.00  0.00    -0.388 OA
HETATM   20  C   UNL     1     -41.550 -46.816  10.590  1.00  0.00     0.187 C 
HETATM   21  C   UNL     1     -40.205 -46.860  11.337  1.00  0.00     0.150 C 
ENDBRANCH   7  16
TORSDOF 5
ENDMDL
