MODEL 1
REMARK VINA RESULT:      -5.8      0.000      0.000
REMARK  5 active torsions:
REMARK  status: ('A' for Active; 'I' for Inactive)
REMARK    1  A    between atoms: O_2  and  C_3 
REMARK    2  A    between atoms: C_3  and  C_4 
REMARK    3  A    between atoms: C_4  and  O_5 
REMARK    4  A    between atoms: O_5  and  C_6 
REMARK    5  A    between atoms: C_9  and  N_10 
REMARK       I    between atoms: N_10  and  C_11 
REMARK       I    between atoms: C_11  and  N_13 
ROOT
HETATM    1  C   UNL     1     -42.932 -47.753  10.360  1.00  0.00     0.141 A 
HETATM    2  C   UNL     1     -43.401 -48.088  11.618  1.00  0.00     0.058 A 
HETATM    3  C   UNL     1     -42.667 -48.986  12.389  1.00  0.00     0.035 A 
HETATM    4  C   UNL     1     -41.476 -49.522  11.899  1.00  0.00     0.051 A 
HETATM    5  C   UNL     1     -41.085 -49.097  10.628  1.00  0.00     0.119 A 
HETATM    6  N   UNL     1     -41.781 -48.232   9.845  1.00  0.00    -0.345 N 
ATOM      7  HN  UNL     1     -41.451 -47.959   8.919  1.00  0.00     0.167 HD
ENDROOT
BRANCH   4   8
HETATM    8  N   UNL     1     -40.663 -50.442  12.616  1.00  0.00    -0.307 N 
HETATM    9  C   UNL     1     -40.848 -51.807  12.659  1.00  0.00     0.322 C 
HETATM   10  O   UNL     1     -41.732 -52.377  12.015  1.00  0.00    -0.247 OA
HETATM   11  N   UNL     1     -39.971 -52.544  13.454  1.00  0.00    -0.334 N 
HETATM   12  C   UNL     1     -38.903 -52.029  14.317  1.00  0.00     0.127 C 
HETATM   13  C   UNL     1     -40.181 -53.994  13.491  1.00  0.00     0.127 C 
HETATM   14  C   UNL     1     -39.334 -51.965  15.780  1.00  0.00     0.020 C 
HETATM   15  C   UNL     1     -39.136 -53.263  16.564  1.00  0.00     0.002 C 
HETATM   16  C   UNL     1     -39.435 -54.577  15.844  1.00  0.00     0.002 C 
HETATM   17  C   UNL     1     -40.602 -54.524  14.863  1.00  0.00     0.020 C 
HETATM   18  H   UNL     1     -39.794 -50.077  12.960  1.00  0.00     0.170 HD
ENDBRANCH   4   8
BRANCH   1  19
HETATM   19  O   UNL     1     -43.665 -46.809   9.673  1.00  0.00    -0.334 OA
BRANCH  19  20
HETATM   20  C   UNL     1     -44.634 -47.371   8.790  1.00  0.00     0.203 C 
BRANCH  20  21
HETATM   21  C   UNL     1     -46.013 -46.875   9.222  1.00  0.00     0.193 C 
BRANCH  21  22
HETATM   22  O   UNL     1     -47.028 -47.617   8.546  1.00  0.00    -0.394 OA
HETATM   23  C   UNL     1     -46.561 -48.897   8.143  1.00  0.00     0.201 C 
ENDBRANCH  21  22
ENDBRANCH  20  21
ENDBRANCH  19  20
ENDBRANCH   1  19
TORSDOF 5
ENDMDL
MODEL 2
REMARK VINA RESULT:      -5.7      3.025      4.126
REMARK  5 active torsions:
REMARK  status: ('A' for Active; 'I' for Inactive)
REMARK    1  A    between atoms: O_2  and  C_3 
REMARK    2  A    between atoms: C_3  and  C_4 
REMARK    3  A    between atoms: C_4  and  O_5 
REMARK    4  A    between atoms: O_5  and  C_6 
REMARK    5  A    between atoms: C_9  and  N_10 
REMARK       I    between atoms: N_10  and  C_11 
REMARK       I    between atoms: C_11  and  N_13 
ROOT
HETATM    1  C   UNL     1     -41.355 -46.150  10.331  1.00  0.00     0.141 A 
HETATM    2  C   UNL     1     -42.712 -46.402  10.424  1.00  0.00     0.058 A 
HETATM    3  C   UNL     1     -43.132 -47.645  10.893  1.00  0.00     0.035 A 
HETATM    4  C   UNL     1     -42.195 -48.605  11.271  1.00  0.00     0.051 A 
HETATM    5  C   UNL     1     -40.853 -48.236  11.159  1.00  0.00     0.119 A 
HETATM    6  N   UNL     1     -40.408 -47.038  10.696  1.00  0.00    -0.345 N 
ATOM      7  HN  UNL     1     -39.414 -46.823  10.628  1.00  0.00     0.167 HD
ENDROOT
BRANCH   4   8
HETATM    8  N   UNL     1     -42.532 -49.896  11.762  1.00  0.00    -0.307 N 
HETATM    9  C   UNL     1     -43.020 -50.170  13.022  1.00  0.00     0.322 C 
HETATM   10  O   UNL     1     -43.267 -49.284  13.843  1.00  0.00    -0.247 OA
HETATM   11  N   UNL     1     -43.253 -51.508  13.338  1.00  0.00    -0.334 N 
HETATM   12  C   UNL     1     -42.972 -52.682  12.506  1.00  0.00     0.127 C 
HETATM   13  C   UNL     1     -43.770 -51.783  14.681  1.00  0.00     0.127 C 
HETATM   14  C   UNL     1     -41.667 -53.365  12.907  1.00  0.00     0.020 C 
HETATM   15  C   UNL     1     -41.799 -54.386  14.040  1.00  0.00     0.002 C 
HETATM   16  C   UNL     1     -42.750 -54.049  15.188  1.00  0.00     0.002 C 
HETATM   17  C   UNL     1     -42.805 -52.573  15.567  1.00  0.00     0.020 C 
HETATM   18  H   UNL     1     -42.584 -50.624  11.073  1.00  0.00     0.170 HD
ENDBRANCH   4   8
BRANCH   1  19
HETATM   19  O   UNL     1     -41.003 -44.881   9.925  1.00  0.00    -0.334 OA
BRANCH  19  20
HETATM   20  C   UNL     1     -40.163 -44.197  10.856  1.00  0.00     0.203 C 
BRANCH  20  21
HETATM   21  C   UNL     1     -40.957 -43.029  11.439  1.00  0.00     0.193 C 
BRANCH  21  22
HETATM   22  O   UNL     1     -41.937 -42.592  10.498  1.00  0.00    -0.394 OA
HETATM   23  C   UNL     1     -43.219 -42.466  11.098  1.00  0.00     0.201 C 
ENDBRANCH  21  22
ENDBRANCH  20  21
ENDBRANCH  19  20
ENDBRANCH   1  19
TORSDOF 5
ENDMDL
MODEL 3
REMARK VINA RESULT:      -5.5      3.387      4.837
REMARK  5 active torsions:
REMARK  status: ('A' for Active; 'I' for Inactive)
REMARK    1  A    between atoms: O_2  and  C_3 
REMARK    2  A    between atoms: C_3  and  C_4 
REMARK    3  A    between atoms: C_4  and  O_5 
REMARK    4  A    between atoms: O_5  and  C_6 
REMARK    5  A    between atoms: C_9  and  N_10 
REMARK       I    between atoms: N_10  and  C_11 
REMARK       I    between atoms: C_11  and  N_13 
ROOT
HETATM    1  C   UNL     1     -41.579 -46.303  10.587  1.00  0.00     0.141 A 
HETATM    2  C   UNL     1     -42.472 -46.028  11.608  1.00  0.00     0.058 A 
HETATM    3  C   UNL     1     -43.077 -47.092  12.273  1.00  0.00     0.035 A 
HETATM    4  C   UNL     1     -42.773 -48.406  11.918  1.00  0.00     0.051 A 
HETATM    5  C   UNL     1     -41.841 -48.568  10.891  1.00  0.00     0.119 A 
HETATM    6  N   UNL     1     -41.240 -47.554  10.215  1.00  0.00    -0.345 N 
ATOM      7  HN  UNL     1     -40.569 -47.729   9.466  1.00  0.00     0.167 HD
ENDROOT
BRANCH   4   8
HETATM    8  N   UNL     1     -43.339 -49.551  12.542  1.00  0.00    -0.307 N 
HETATM    9  C   UNL     1     -42.706 -50.352  13.468  1.00  0.00     0.322 C 
HETATM   10  O   UNL     1     -41.574 -50.108  13.891  1.00  0.00    -0.247 OA
HETATM   11  N   UNL     1     -43.409 -51.460  13.939  1.00  0.00    -0.334 N 
HETATM   12  C   UNL     1     -44.734 -51.922  13.512  1.00  0.00     0.127 C 
HETATM   13  C   UNL     1     -42.722 -52.303  14.921  1.00  0.00     0.127 C 
HETATM   14  C   UNL     1     -44.640 -53.073  12.512  1.00  0.00     0.020 C 
HETATM   15  C   UNL     1     -44.524 -54.462  13.142  1.00  0.00     0.002 C 
HETATM   16  C   UNL     1     -43.657 -54.601  14.393  1.00  0.00     0.002 C 
HETATM   17  C   UNL     1     -42.416 -53.715  14.419  1.00  0.00     0.020 C 
HETATM   18  H   UNL     1     -44.330 -49.664  12.427  1.00  0.00     0.170 HD
ENDBRANCH   4   8
BRANCH   1  19
HETATM   19  O   UNL     1     -40.962 -45.212  10.014  1.00  0.00    -0.334 OA
BRANCH  19  20
HETATM   20  C   UNL     1     -39.856 -44.721  10.770  1.00  0.00     0.203 C 
BRANCH  20  21
HETATM   21  C   UNL     1     -40.230 -43.344  11.317  1.00  0.00     0.193 C 
BRANCH  21  22
HETATM   22  O   UNL     1     -39.600 -43.139  12.581  1.00  0.00    -0.394 OA
HETATM   23  C   UNL     1     -39.234 -44.369  13.191  1.00  0.00     0.201 C 
ENDBRANCH  21  22
ENDBRANCH  20  21
ENDBRANCH  19  20
ENDBRANCH   1  19
TORSDOF 5
ENDMDL
MODEL 4
REMARK VINA RESULT:      -5.3      4.292      6.104
REMARK  5 active torsions:
REMARK  status: ('A' for Active; 'I' for Inactive)
REMARK    1  A    between atoms: O_2  and  C_3 
REMARK    2  A    between atoms: C_3  and  C_4 
REMARK    3  A    between atoms: C_4  and  O_5 
REMARK    4  A    between atoms: O_5  and  C_6 
REMARK    5  A    between atoms: C_9  and  N_10 
REMARK       I    between atoms: N_10  and  C_11 
REMARK       I    between atoms: C_11  and  N_13 
ROOT
HETATM    1  C   UNL     1     -43.542 -53.489  12.722  1.00  0.00     0.141 A 
HETATM    2  C   UNL     1     -42.557 -54.233  13.347  1.00  0.00     0.058 A 
HETATM    3  C   UNL     1     -41.335 -53.625  13.628  1.00  0.00     0.035 A 
HETATM    4  C   UNL     1     -41.123 -52.288  13.294  1.00  0.00     0.051 A 
HETATM    5  C   UNL     1     -42.193 -51.626  12.689  1.00  0.00     0.119 A 
HETATM    6  N   UNL     1     -43.393 -52.190  12.391  1.00  0.00    -0.345 N 
ATOM      7  HN  UNL     1     -44.141 -51.660  11.941  1.00  0.00     0.167 HD
ENDROOT
BRANCH   4   8
HETATM    8  N   UNL     1     -39.912 -51.588  13.545  1.00  0.00    -0.307 N 
HETATM    9  C   UNL     1     -39.338 -51.403  14.784  1.00  0.00     0.322 C 
HETATM   10  O   UNL     1     -39.810 -51.891  15.813  1.00  0.00    -0.247 OA
HETATM   11  N   UNL     1     -38.166 -50.649  14.837  1.00  0.00    -0.334 N 
HETATM   12  C   UNL     1     -37.499 -49.959  13.729  1.00  0.00     0.127 C 
HETATM   13  C   UNL     1     -37.568 -50.459  16.162  1.00  0.00     0.127 C 
HETATM   14  C   UNL     1     -37.829 -48.468  13.704  1.00  0.00     0.020 C 
HETATM   15  C   UNL     1     -36.931 -47.599  14.587  1.00  0.00     0.002 C 
HETATM   16  C   UNL     1     -36.516 -48.162  15.945  1.00  0.00     0.002 C 
HETATM   17  C   UNL     1     -37.576 -49.008  16.644  1.00  0.00     0.020 C 
HETATM   18  H   UNL     1     -39.357 -51.376  12.736  1.00  0.00     0.170 HD
ENDBRANCH   4   8
BRANCH   1  19
HETATM   19  O   UNL     1     -44.750 -54.124  12.532  1.00  0.00    -0.334 OA
BRANCH  19  20
HETATM   20  C   UNL     1     -45.781 -53.660  13.402  1.00  0.00     0.203 C 
BRANCH  20  21
HETATM   21  C   UNL     1     -46.151 -54.802  14.348  1.00  0.00     0.193 C 
BRANCH  21  22
HETATM   22  O   UNL     1     -45.360 -54.723  15.534  1.00  0.00    -0.394 OA
HETATM   23  C   UNL     1     -45.861 -53.744  16.434  1.00  0.00     0.201 C 
ENDBRANCH  21  22
ENDBRANCH  20  21
ENDBRANCH  19  20
ENDBRANCH   1  19
TORSDOF 5
ENDMDL
MODEL 5
REMARK VINA RESULT:      -5.2      3.535      7.076
REMARK  5 active torsions:
REMARK  status: ('A' for Active; 'I' for Inactive)
REMARK    1  A    between atoms: O_2  and  C_3 
REMARK    2  A    between atoms: C_3  and  C_4 
REMARK    3  A    between atoms: C_4  and  O_5 
REMARK    4  A    between atoms: O_5  and  C_6 
REMARK    5  A    between atoms: C_9  and  N_10 
REMARK       I    between atoms: N_10  and  C_11 
REMARK       I    between atoms: C_11  and  N_13 
ROOT
HETATM    1  C   UNL     1     -43.472 -52.669  12.588  1.00  0.00     0.141 A 
HETATM    2  C   UNL     1     -42.156 -52.395  12.263  1.00  0.00     0.058 A 
HETATM    3  C   UNL     1     -41.716 -51.074  12.309  1.00  0.00     0.035 A 
HETATM    4  C   UNL     1     -42.589 -50.056  12.688  1.00  0.00     0.051 A 
HETATM    5  C   UNL     1     -43.888 -50.448  13.019  1.00  0.00     0.119 A 
HETATM    6  N   UNL     1     -44.354 -51.724  12.975  1.00  0.00    -0.345 N 
ATOM      7  HN  UNL     1     -45.316 -51.955  13.221  1.00  0.00     0.167 HD
ENDROOT
BRANCH   4   8
HETATM    8  N   UNL     1     -42.227 -48.684  12.765  1.00  0.00    -0.307 N 
HETATM    9  C   UNL     1     -42.133 -47.821  11.694  1.00  0.00     0.322 C 
HETATM   10  O   UNL     1     -42.415 -48.160  10.544  1.00  0.00    -0.247 OA
HETATM   11  N   UNL     1     -41.719 -46.517  11.962  1.00  0.00    -0.334 N 
HETATM   12  C   UNL     1     -41.300 -45.961  13.253  1.00  0.00     0.127 C 
HETATM   13  C   UNL     1     -41.622 -45.611  10.814  1.00  0.00     0.127 C 
HETATM   14  C   UNL     1     -39.780 -45.904  13.381  1.00  0.00     0.020 C 
HETATM   15  C   UNL     1     -39.134 -44.645  12.800  1.00  0.00     0.002 C 
HETATM   16  C   UNL     1     -39.709 -44.093  11.496  1.00  0.00     0.002 C 
HETATM   17  C   UNL     1     -40.196 -45.148  10.509  1.00  0.00     0.020 C 
HETATM   18  H   UNL     1     -42.220 -48.287  13.687  1.00  0.00     0.170 HD
ENDBRANCH   4   8
BRANCH   1  19
HETATM   19  O   UNL     1     -43.830 -54.000  12.590  1.00  0.00    -0.334 OA
BRANCH  19  20
HETATM   20  C   UNL     1     -44.068 -54.525  13.896  1.00  0.00     0.203 C 
BRANCH  20  21
HETATM   21  C   UNL     1     -45.532 -54.955  13.973  1.00  0.00     0.193 C 
BRANCH  21  22
HETATM   22  O   UNL     1     -46.355 -53.823  14.256  1.00  0.00    -0.394 OA
HETATM   23  C   UNL     1     -46.242 -53.419  15.613  1.00  0.00     0.201 C 
ENDBRANCH  21  22
ENDBRANCH  20  21
ENDBRANCH  19  20
ENDBRANCH   1  19
TORSDOF 5
ENDMDL
MODEL 6
REMARK VINA RESULT:      -5.1      3.741      7.534
REMARK  5 active torsions:
REMARK  status: ('A' for Active; 'I' for Inactive)
REMARK    1  A    between atoms: O_2  and  C_3 
REMARK    2  A    between atoms: C_3  and  C_4 
REMARK    3  A    between atoms: C_4  and  O_5 
REMARK    4  A    between atoms: O_5  and  C_6 
REMARK    5  A    between atoms: C_9  and  N_10 
REMARK       I    between atoms: N_10  and  C_11 
REMARK       I    between atoms: C_11  and  N_13 
ROOT
HETATM    1  C   UNL     1     -41.801 -51.992  12.277  1.00  0.00     0.141 A 
HETATM    2  C   UNL     1     -42.626 -51.065  12.889  1.00  0.00     0.058 A 
HETATM    3  C   UNL     1     -42.434 -49.713  12.613  1.00  0.00     0.035 A 
HETATM    4  C   UNL     1     -41.436 -49.313  11.726  1.00  0.00     0.051 A 
HETATM    5  C   UNL     1     -40.678 -50.333  11.147  1.00  0.00     0.119 A 
HETATM    6  N   UNL     1     -40.830 -51.659  11.402  1.00  0.00    -0.345 N 
ATOM      7  HN  UNL     1     -40.244 -52.364  10.955  1.00  0.00     0.167 HD
ENDROOT
BRANCH   4   8
HETATM    8  N   UNL     1     -41.171 -47.959  11.384  1.00  0.00    -0.307 N 
HETATM    9  C   UNL     1     -40.326 -47.112  12.069  1.00  0.00     0.322 C 
HETATM   10  O   UNL     1     -39.662 -47.482  13.040  1.00  0.00    -0.247 OA
HETATM   11  N   UNL     1     -40.227 -45.800  11.607  1.00  0.00    -0.334 N 
HETATM   12  C   UNL     1     -40.975 -45.183  10.507  1.00  0.00     0.127 C 
HETATM   13  C   UNL     1     -39.327 -44.911  12.347  1.00  0.00     0.127 C 
HETATM   14  C   UNL     1     -42.152 -44.353  11.014  1.00  0.00     0.020 C 
HETATM   15  C   UNL     1     -41.806 -42.911  11.387  1.00  0.00     0.002 C 
HETATM   16  C   UNL     1     -40.472 -42.663  12.089  1.00  0.00     0.002 C 
HETATM   17  C   UNL     1     -40.039 -43.759  13.057  1.00  0.00     0.020 C 
HETATM   18  H   UNL     1     -41.487 -47.669  10.477  1.00  0.00     0.170 HD
ENDBRANCH   4   8
BRANCH   1  19
HETATM   19  O   UNL     1     -42.083 -53.316  12.537  1.00  0.00    -0.334 OA
BRANCH  19  20
HETATM   20  C   UNL     1     -43.326 -53.513  13.211  1.00  0.00     0.203 C 
BRANCH  20  21
HETATM   21  C   UNL     1     -43.104 -54.539  14.321  1.00  0.00     0.193 C 
BRANCH  21  22
HETATM   22  O   UNL     1     -44.331 -55.208  14.614  1.00  0.00    -0.394 OA
HETATM   23  C   UNL     1     -45.326 -54.927  13.638  1.00  0.00     0.201 C 
ENDBRANCH  21  22
ENDBRANCH  20  21
ENDBRANCH  19  20
ENDBRANCH   1  19
TORSDOF 5
ENDMDL
MODEL 7
REMARK VINA RESULT:      -5.1      3.476      7.223
REMARK  5 active torsions:
REMARK  status: ('A' for Active; 'I' for Inactive)
REMARK    1  A    between atoms: O_2  and  C_3 
REMARK    2  A    between atoms: C_3  and  C_4 
REMARK    3  A    between atoms: C_4  and  O_5 
REMARK    4  A    between atoms: O_5  and  C_6 
REMARK    5  A    between atoms: C_9  and  N_10 
REMARK       I    between atoms: N_10  and  C_11 
REMARK       I    between atoms: C_11  and  N_13 
ROOT
HETATM    1  C   UNL     1     -42.478 -53.623  13.798  1.00  0.00     0.141 A 
HETATM    2  C   UNL     1     -42.863 -52.471  14.459  1.00  0.00     0.058 A 
HETATM    3  C   UNL     1     -42.712 -51.246  13.814  1.00  0.00     0.035 A 
HETATM    4  C   UNL     1     -42.194 -51.193  12.520  1.00  0.00     0.051 A 
HETATM    5  C   UNL     1     -41.861 -52.418  11.938  1.00  0.00     0.119 A 
HETATM    6  N   UNL     1     -41.984 -53.629  12.543  1.00  0.00    -0.345 N 
ATOM      7  HN  UNL     1     -41.719 -54.495  12.073  1.00  0.00     0.167 HD
ENDROOT
BRANCH   4   8
HETATM    8  N   UNL     1     -42.008 -49.991  11.786  1.00  0.00    -0.307 N 
HETATM    9  C   UNL     1     -40.954 -49.115  11.940  1.00  0.00     0.322 C 
HETATM   10  O   UNL     1     -40.022 -49.331  12.716  1.00  0.00    -0.247 OA
HETATM   11  N   UNL     1     -40.965 -47.962  11.156  1.00  0.00    -0.334 N 
HETATM   12  C   UNL     1     -42.011 -47.526  10.224  1.00  0.00     0.127 C 
HETATM   13  C   UNL     1     -39.840 -47.039  11.332  1.00  0.00     0.127 C 
HETATM   14  C   UNL     1     -42.925 -46.473  10.846  1.00  0.00     0.020 C 
HETATM   15  C   UNL     1     -42.423 -45.033  10.720  1.00  0.00     0.002 C 
HETATM   16  C   UNL     1     -40.924 -44.790  10.888  1.00  0.00     0.002 C 
HETATM   17  C   UNL     1     -40.237 -45.682  11.917  1.00  0.00     0.020 C 
HETATM   18  H   UNL     1     -42.594 -49.879  10.979  1.00  0.00     0.170 HD
ENDBRANCH   4   8
BRANCH   1  19
HETATM   19  O   UNL     1     -42.714 -54.808  14.461  1.00  0.00    -0.334 OA
BRANCH  19  20
HETATM   20  C   UNL     1     -44.022 -54.893  15.028  1.00  0.00     0.203 C 
BRANCH  20  21
HETATM   21  C   UNL     1     -45.020 -55.090  13.888  1.00  0.00     0.193 C 
BRANCH  21  22
HETATM   22  O   UNL     1     -46.048 -54.103  13.971  1.00  0.00    -0.394 OA
HETATM   23  C   UNL     1     -46.283 -53.702  15.314  1.00  0.00     0.201 C 
ENDBRANCH  21  22
ENDBRANCH  20  21
ENDBRANCH  19  20
ENDBRANCH   1  19
TORSDOF 5
ENDMDL
MODEL 8
REMARK VINA RESULT:      -5.1      5.794     10.170
REMARK  5 active torsions:
REMARK  status: ('A' for Active; 'I' for Inactive)
REMARK    1  A    between atoms: O_2  and  C_3 
REMARK    2  A    between atoms: C_3  and  C_4 
REMARK    3  A    between atoms: C_4  and  O_5 
REMARK    4  A    between atoms: O_5  and  C_6 
REMARK    5  A    between atoms: C_9  and  N_10 
REMARK       I    between atoms: N_10  and  C_11 
REMARK       I    between atoms: C_11  and  N_13 
ROOT
HETATM    1  C   UNL     1     -38.303 -55.514  16.552  1.00  0.00     0.141 A 
HETATM    2  C   UNL     1     -38.777 -55.159  15.302  1.00  0.00     0.058 A 
HETATM    3  C   UNL     1     -40.019 -54.533  15.211  1.00  0.00     0.035 A 
HETATM    4  C   UNL     1     -40.755 -54.262  16.363  1.00  0.00     0.051 A 
HETATM    5  C   UNL     1     -40.170 -54.642  17.573  1.00  0.00     0.119 A 
HETATM    6  N   UNL     1     -38.968 -55.263  17.698  1.00  0.00    -0.345 N 
ATOM      7  HN  UNL     1     -38.589 -55.524  18.609  1.00  0.00     0.167 HD
ENDROOT
BRANCH   4   8
HETATM    8  N   UNL     1     -42.026 -53.626  16.365  1.00  0.00    -0.307 N 
HETATM    9  C   UNL     1     -43.240 -54.266  16.226  1.00  0.00     0.322 C 
HETATM   10  O   UNL     1     -43.336 -55.491  16.139  1.00  0.00    -0.247 OA
HETATM   11  N   UNL     1     -44.382 -53.467  16.208  1.00  0.00    -0.334 N 
HETATM   12  C   UNL     1     -44.447 -52.002  16.251  1.00  0.00     0.127 C 
HETATM   13  C   UNL     1     -45.665 -54.160  16.058  1.00  0.00     0.127 C 
HETATM   14  C   UNL     1     -44.651 -51.401  14.863  1.00  0.00     0.020 C 
HETATM   15  C   UNL     1     -46.110 -51.302  14.414  1.00  0.00     0.002 C 
HETATM   16  C   UNL     1     -47.041 -52.458  14.777  1.00  0.00     0.002 C 
HETATM   17  C   UNL     1     -46.393 -53.839  14.752  1.00  0.00     0.020 C 
HETATM   18  H   UNL     1     -42.035 -52.670  16.671  1.00  0.00     0.170 HD
ENDBRANCH   4   8
BRANCH   1  19
HETATM   19  O   UNL     1     -37.041 -56.067  16.584  1.00  0.00    -0.334 OA
BRANCH  19  20
HETATM   20  C   UNL     1     -36.359 -55.862  17.821  1.00  0.00     0.203 C 
BRANCH  20  21
HETATM   21  C   UNL     1     -34.870 -55.701  17.520  1.00  0.00     0.193 C 
BRANCH  21  22
HETATM   22  O   UNL     1     -34.391 -56.849  16.821  1.00  0.00    -0.394 OA
HETATM   23  C   UNL     1     -33.827 -57.806  17.708  1.00  0.00     0.201 C 
ENDBRANCH  21  22
ENDBRANCH  20  21
ENDBRANCH  19  20
ENDBRANCH   1  19
TORSDOF 5
ENDMDL
MODEL 9
REMARK VINA RESULT:      -5.0      3.262      8.128
REMARK  5 active torsions:
REMARK  status: ('A' for Active; 'I' for Inactive)
REMARK    1  A    between atoms: O_2  and  C_3 
REMARK    2  A    between atoms: C_3  and  C_4 
REMARK    3  A    between atoms: C_4  and  O_5 
REMARK    4  A    between atoms: O_5  and  C_6 
REMARK    5  A    between atoms: C_9  and  N_10 
REMARK       I    between atoms: N_10  and  C_11 
REMARK       I    between atoms: C_11  and  N_13 
ROOT
HETATM    1  C   UNL     1     -42.539 -53.998  14.050  1.00  0.00     0.141 A 
HETATM    2  C   UNL     1     -41.483 -54.004  13.156  1.00  0.00     0.058 A 
HETATM    3  C   UNL     1     -41.258 -52.870  12.378  1.00  0.00     0.035 A 
HETATM    4  C   UNL     1     -42.078 -51.751  12.515  1.00  0.00     0.051 A 
HETATM    5  C   UNL     1     -43.098 -51.845  13.465  1.00  0.00     0.119 A 
HETATM    6  N   UNL     1     -43.352 -52.938  14.232  1.00  0.00    -0.345 N 
ATOM      7  HN  UNL     1     -44.116 -52.956  14.907  1.00  0.00     0.167 HD
ENDROOT
BRANCH   4   8
HETATM    8  N   UNL     1     -41.921 -50.553  11.767  1.00  0.00    -0.307 N 
HETATM    9  C   UNL     1     -40.975 -49.579  12.007  1.00  0.00     0.322 C 
HETATM   10  O   UNL     1     -40.119 -49.690  12.886  1.00  0.00    -0.247 OA
HETATM   11  N   UNL     1     -41.003 -48.449  11.190  1.00  0.00    -0.334 N 
HETATM   12  C   UNL     1     -41.974 -48.134  10.137  1.00  0.00     0.127 C 
HETATM   13  C   UNL     1     -39.993 -47.422  11.458  1.00  0.00     0.127 C 
HETATM   14  C   UNL     1     -43.043 -47.157  10.623  1.00  0.00     0.020 C 
HETATM   15  C   UNL     1     -42.663 -45.680  10.506  1.00  0.00     0.002 C 
HETATM   16  C   UNL     1     -41.220 -45.294  10.827  1.00  0.00     0.002 C 
HETATM   17  C   UNL     1     -40.573 -46.096  11.952  1.00  0.00     0.020 C 
HETATM   18  H   UNL     1     -42.422 -50.513  10.898  1.00  0.00     0.170 HD
ENDBRANCH   4   8
BRANCH   1  19
HETATM   19  O   UNL     1     -42.668 -55.121  14.838  1.00  0.00    -0.334 OA
BRANCH  19  20
HETATM   20  C   UNL     1     -41.829 -55.109  15.992  1.00  0.00     0.203 C 
BRANCH  20  21
HETATM   21  C   UNL     1     -41.996 -56.445  16.714  1.00  0.00     0.193 C 
BRANCH  21  22
HETATM   22  O   UNL     1     -42.987 -56.322  17.735  1.00  0.00    -0.394 OA
HETATM   23  C   UNL     1     -42.932 -55.051  18.368  1.00  0.00     0.201 C 
ENDBRANCH  21  22
ENDBRANCH  20  21
ENDBRANCH  19  20
ENDBRANCH   1  19
TORSDOF 5
ENDMDL
