MODEL 1
REMARK VINA RESULT:      -6.5      0.000      0.000
REMARK  7 active torsions:
REMARK  status: ('A' for Active; 'I' for Inactive)
REMARK    1  A    between atoms: O_2  and  C_3 
REMARK    2  A    between atoms: C_3  and  C_4 
REMARK    3  A    between atoms: C_4  and  N_5 
REMARK    4  A    between atoms: C_7  and  N_8 
REMARK       I    between atoms: N_8  and  C_9 
REMARK    5  A    between atoms: C_9  and  C_11 
REMARK    6  A    between atoms: C_11  and  O_12 
REMARK    7  A    between atoms: O_12  and  C_13 
ROOT
HETATM    1  N   UNL     1     -41.724 -49.994  11.418  1.00  0.00    -0.324 N 
HETATM    2  C   UNL     1     -42.443 -50.353  12.557  1.00  0.00     0.245 C 
HETATM    3  O   UNL     1     -42.968 -49.543  13.317  1.00  0.00    -0.271 OA
HETATM    4  H   UNL     1     -41.039 -50.667  11.094  1.00  0.00     0.169 HD
ENDROOT
BRANCH   1   5
HETATM    5  C   UNL     1     -41.543 -48.683  11.042  1.00  0.00     0.050 A 
HETATM    6  C   UNL     1     -42.458 -47.965  10.362  1.00  0.00     0.123 A 
HETATM    7  N   UNL     1     -42.268 -46.622  10.080  1.00  0.00    -0.320 N 
HETATM    8  C   UNL     1     -41.158 -45.920  10.555  1.00  0.00     0.247 A 
HETATM    9  C   UNL     1     -40.141 -46.727  11.275  1.00  0.00     0.077 A 
HETATM   10  O   UNL     1     -40.967 -44.719  10.399  1.00  0.00    -0.268 OA
HETATM   11  C   UNL     1     -40.320 -48.040  11.463  1.00  0.00     0.036 A 
BRANCH   7  12
HETATM   12  C   UNL     1     -43.318 -45.880   9.370  1.00  0.00     0.158 C 
BRANCH  12  13
HETATM   13  C   UNL     1     -44.376 -46.785   8.729  1.00  0.00     0.187 C 
BRANCH  13  14
HETATM   14  O   UNL     1     -45.648 -46.131   8.781  1.00  0.00    -0.394 OA
HETATM   15  C   UNL     1     -46.690 -47.042   9.107  1.00  0.00     0.201 C 
ENDBRANCH  13  14
ENDBRANCH  12  13
ENDBRANCH   7  12
ENDBRANCH   1   5
BRANCH   2  16
HETATM   16  C   UNL     1     -42.491 -51.867  12.786  1.00  0.00     0.271 C 
BRANCH  16  17
HETATM   17  O   UNL     1     -43.594 -52.199  13.614  1.00  0.00    -0.376 OA
BRANCH  17  18
HETATM   18  C   UNL     1     -44.609 -53.005  13.018  1.00  0.00     0.125 C 
HETATM   19  C   UNL     1     -45.832 -52.168  12.611  1.00  0.00     0.032 C 
HETATM   20  C   UNL     1     -46.456 -51.474  13.822  1.00  0.00     0.002 C 
HETATM   21  C   UNL     1     -46.869 -52.493  14.878  1.00  0.00     0.001 C 
HETATM   22  C   UNL     1     -45.706 -53.395  15.284  1.00  0.00     0.007 C 
HETATM   23  C   UNL     1     -45.046 -54.063  14.063  1.00  0.00     0.011 C 
HETATM   24  C   UNL     1     -43.880 -54.940  14.524  1.00  0.00     0.012 C 
ENDBRANCH  17  18
ENDBRANCH  16  17
ENDBRANCH   2  16
TORSDOF 7
ENDMDL
MODEL 2
REMARK VINA RESULT:      -6.2      1.818      2.481
REMARK  7 active torsions:
REMARK  status: ('A' for Active; 'I' for Inactive)
REMARK    1  A    between atoms: O_2  and  C_3 
REMARK    2  A    between atoms: C_3  and  C_4 
REMARK    3  A    between atoms: C_4  and  N_5 
REMARK    4  A    between atoms: C_7  and  N_8 
REMARK       I    between atoms: N_8  and  C_9 
REMARK    5  A    between atoms: C_9  and  C_11 
REMARK    6  A    between atoms: C_11  and  O_12 
REMARK    7  A    between atoms: O_12  and  C_13 
ROOT
HETATM    1  N   UNL     1     -41.052 -49.215  10.686  1.00  0.00    -0.324 N 
HETATM    2  C   UNL     1     -41.384 -49.932  11.835  1.00  0.00     0.245 C 
HETATM    3  O   UNL     1     -42.179 -49.534  12.682  1.00  0.00    -0.271 OA
HETATM    4  H   UNL     1     -40.151 -49.429  10.273  1.00  0.00     0.169 HD
ENDROOT
BRANCH   1   5
HETATM    5  C   UNL     1     -41.597 -47.985  10.400  1.00  0.00     0.050 A 
HETATM    6  C   UNL     1     -42.777 -47.816   9.772  1.00  0.00     0.123 A 
HETATM    7  N   UNL     1     -43.328 -46.559   9.581  1.00  0.00    -0.320 N 
HETATM    8  C   UNL     1     -42.733 -45.408  10.103  1.00  0.00     0.247 A 
HETATM    9  C   UNL     1     -41.419 -45.601  10.765  1.00  0.00     0.077 A 
HETATM   10  O   UNL     1     -43.205 -44.279  10.028  1.00  0.00    -0.268 OA
HETATM   11  C   UNL     1     -40.878 -46.821  10.863  1.00  0.00     0.036 A 
BRANCH   7  12
HETATM   12  C   UNL     1     -44.636 -46.439   8.924  1.00  0.00     0.158 C 
BRANCH  12  13
HETATM   13  C   UNL     1     -45.678 -47.430   9.454  1.00  0.00     0.187 C 
BRANCH  13  14
HETATM   14  O   UNL     1     -46.651 -47.679   8.435  1.00  0.00    -0.394 OA
HETATM   15  C   UNL     1     -46.496 -48.975   7.870  1.00  0.00     0.201 C 
ENDBRANCH  13  14
ENDBRANCH  12  13
ENDBRANCH   7  12
ENDBRANCH   1   5
BRANCH   2  16
HETATM   16  C   UNL     1     -40.633 -51.263  11.951  1.00  0.00     0.271 C 
BRANCH  16  17
HETATM   17  O   UNL     1     -41.139 -52.012  13.045  1.00  0.00    -0.376 OA
BRANCH  17  18
HETATM   18  C   UNL     1     -41.610 -53.324  12.746  1.00  0.00     0.125 C 
HETATM   19  C   UNL     1     -43.146 -53.390  12.748  1.00  0.00     0.032 C 
HETATM   20  C   UNL     1     -43.714 -53.004  14.113  1.00  0.00     0.002 C 
HETATM   21  C   UNL     1     -43.168 -53.915  15.206  1.00  0.00     0.001 C 
HETATM   22  C   UNL     1     -41.641 -53.937  15.219  1.00  0.00     0.007 C 
HETATM   23  C   UNL     1     -41.062 -54.282  13.833  1.00  0.00     0.011 C 
HETATM   24  C   UNL     1     -39.533 -54.274  13.898  1.00  0.00     0.012 C 
ENDBRANCH  17  18
ENDBRANCH  16  17
ENDBRANCH   2  16
TORSDOF 7
ENDMDL
MODEL 3
REMARK VINA RESULT:      -6.1      0.745      1.816
REMARK  7 active torsions:
REMARK  status: ('A' for Active; 'I' for Inactive)
REMARK    1  A    between atoms: O_2  and  C_3 
REMARK    2  A    between atoms: C_3  and  C_4 
REMARK    3  A    between atoms: C_4  and  N_5 
REMARK    4  A    between atoms: C_7  and  N_8 
REMARK       I    between atoms: N_8  and  C_9 
REMARK    5  A    between atoms: C_9  and  C_11 
REMARK    6  A    between atoms: C_11  and  O_12 
REMARK    7  A    between atoms: O_12  and  C_13 
ROOT
HETATM    1  N   UNL     1     -41.464 -49.804  11.393  1.00  0.00    -0.324 N 
HETATM    2  C   UNL     1     -42.187 -50.207  12.515  1.00  0.00     0.245 C 
HETATM    3  O   UNL     1     -42.855 -49.444  13.208  1.00  0.00    -0.271 OA
HETATM    4  H   UNL     1     -40.680 -50.391  11.135  1.00  0.00     0.169 HD
ENDROOT
BRANCH   1   5
HETATM    5  C   UNL     1     -41.440 -48.498  10.961  1.00  0.00     0.050 A 
HETATM    6  C   UNL     1     -42.404 -47.941  10.203  1.00  0.00     0.123 A 
HETATM    7  N   UNL     1     -42.380 -46.598   9.863  1.00  0.00    -0.320 N 
HETATM    8  C   UNL     1     -41.402 -45.731  10.356  1.00  0.00     0.247 A 
HETATM    9  C   UNL     1     -40.327 -46.360  11.165  1.00  0.00     0.077 A 
HETATM   10  O   UNL     1     -41.365 -44.524  10.149  1.00  0.00    -0.268 OA
HETATM   11  C   UNL     1     -40.339 -47.676  11.409  1.00  0.00     0.036 A 
BRANCH   7  12
HETATM   12  C   UNL     1     -43.479 -46.038   9.066  1.00  0.00     0.158 C 
BRANCH  12  13
HETATM   13  C   UNL     1     -44.499 -47.087   8.612  1.00  0.00     0.187 C 
BRANCH  13  14
HETATM   14  O   UNL     1     -45.764 -46.809   9.222  1.00  0.00    -0.394 OA
HETATM   15  C   UNL     1     -46.706 -47.842   8.964  1.00  0.00     0.201 C 
ENDBRANCH  13  14
ENDBRANCH  12  13
ENDBRANCH   7  12
ENDBRANCH   1   5
BRANCH   2  16
HETATM   16  C   UNL     1     -42.045 -51.703  12.816  1.00  0.00     0.271 C 
BRANCH  16  17
HETATM   17  O   UNL     1     -43.327 -52.294  12.956  1.00  0.00    -0.376 OA
BRANCH  17  18
HETATM   18  C   UNL     1     -43.830 -52.402  14.286  1.00  0.00     0.125 C 
HETATM   19  C   UNL     1     -43.217 -53.599  15.029  1.00  0.00     0.032 C 
HETATM   20  C   UNL     1     -43.533 -54.914  14.316  1.00  0.00     0.002 C 
HETATM   21  C   UNL     1     -45.038 -55.115  14.190  1.00  0.00     0.001 C 
HETATM   22  C   UNL     1     -45.716 -53.929  13.508  1.00  0.00     0.007 C 
HETATM   23  C   UNL     1     -45.365 -52.596  14.196  1.00  0.00     0.011 C 
HETATM   24  C   UNL     1     -46.055 -51.442  13.464  1.00  0.00     0.012 C 
ENDBRANCH  17  18
ENDBRANCH  16  17
ENDBRANCH   2  16
TORSDOF 7
ENDMDL
MODEL 4
REMARK VINA RESULT:      -5.8      3.389      4.781
REMARK  7 active torsions:
REMARK  status: ('A' for Active; 'I' for Inactive)
REMARK    1  A    between atoms: O_2  and  C_3 
REMARK    2  A    between atoms: C_3  and  C_4 
REMARK    3  A    between atoms: C_4  and  N_5 
REMARK    4  A    between atoms: C_7  and  N_8 
REMARK       I    between atoms: N_8  and  C_9 
REMARK    5  A    between atoms: C_9  and  C_11 
REMARK    6  A    between atoms: C_11  and  O_12 
REMARK    7  A    between atoms: O_12  and  C_13 
ROOT
HETATM    1  N   UNL     1     -41.294 -49.002  10.646  1.00  0.00    -0.324 N 
HETATM    2  C   UNL     1     -41.668 -49.681  11.805  1.00  0.00     0.245 C 
HETATM    3  O   UNL     1     -42.557 -49.301  12.564  1.00  0.00    -0.271 OA
HETATM    4  H   UNL     1     -40.350 -49.168  10.318  1.00  0.00     0.169 HD
ENDROOT
BRANCH   1   5
HETATM    5  C   UNL     1     -41.901 -47.833  10.247  1.00  0.00     0.050 A 
HETATM    6  C   UNL     1     -43.057 -47.787   9.557  1.00  0.00     0.123 A 
HETATM    7  N   UNL     1     -43.676 -46.585   9.251  1.00  0.00    -0.320 N 
HETATM    8  C   UNL     1     -43.181 -45.364   9.713  1.00  0.00     0.247 A 
HETATM    9  C   UNL     1     -41.891 -45.423  10.446  1.00  0.00     0.077 A 
HETATM   10  O   UNL     1     -43.718 -44.276   9.536  1.00  0.00    -0.268 OA
HETATM   11  C   UNL     1     -41.280 -46.595  10.656  1.00  0.00     0.036 A 
BRANCH   7  12
HETATM   12  C   UNL     1     -44.955 -46.598   8.529  1.00  0.00     0.158 C 
BRANCH  12  13
HETATM   13  C   UNL     1     -46.157 -46.921   9.424  1.00  0.00     0.187 C 
BRANCH  13  14
HETATM   14  O   UNL     1     -47.081 -47.736   8.695  1.00  0.00    -0.394 OA
HETATM   15  C   UNL     1     -46.415 -48.777   7.992  1.00  0.00     0.201 C 
ENDBRANCH  13  14
ENDBRANCH  12  13
ENDBRANCH   7  12
ENDBRANCH   1   5
BRANCH   2  16
HETATM   16  C   UNL     1     -40.836 -50.943  12.057  1.00  0.00     0.271 C 
BRANCH  16  17
HETATM   17  O   UNL     1     -39.994 -50.753  13.183  1.00  0.00    -0.376 OA
BRANCH  17  18
HETATM   18  C   UNL     1     -38.906 -51.666  13.317  1.00  0.00     0.125 C 
HETATM   19  C   UNL     1     -38.944 -52.399  14.667  1.00  0.00     0.032 C 
HETATM   20  C   UNL     1     -38.857 -51.415  15.834  1.00  0.00     0.002 C 
HETATM   21  C   UNL     1     -37.585 -50.581  15.748  1.00  0.00     0.001 C 
HETATM   22  C   UNL     1     -37.461 -49.869  14.402  1.00  0.00     0.007 C 
HETATM   23  C   UNL     1     -37.592 -50.850  13.222  1.00  0.00     0.011 C 
HETATM   24  C   UNL     1     -37.477 -50.084  11.901  1.00  0.00     0.012 C 
ENDBRANCH  17  18
ENDBRANCH  16  17
ENDBRANCH   2  16
TORSDOF 7
ENDMDL
MODEL 5
REMARK VINA RESULT:      -5.7      1.603      3.368
REMARK  7 active torsions:
REMARK  status: ('A' for Active; 'I' for Inactive)
REMARK    1  A    between atoms: O_2  and  C_3 
REMARK    2  A    between atoms: C_3  and  C_4 
REMARK    3  A    between atoms: C_4  and  N_5 
REMARK    4  A    between atoms: C_7  and  N_8 
REMARK       I    between atoms: N_8  and  C_9 
REMARK    5  A    between atoms: C_9  and  C_11 
REMARK    6  A    between atoms: C_11  and  O_12 
REMARK    7  A    between atoms: O_12  and  C_13 
ROOT
HETATM    1  N   UNL     1     -42.256 -49.746  11.726  1.00  0.00    -0.324 N 
HETATM    2  C   UNL     1     -42.922 -50.248  12.843  1.00  0.00     0.245 C 
HETATM    3  O   UNL     1     -43.438 -49.542  13.706  1.00  0.00    -0.271 OA
HETATM    4  H   UNL     1     -41.568 -50.360  11.305  1.00  0.00     0.169 HD
ENDROOT
BRANCH   1   5
HETATM    5  C   UNL     1     -42.121 -48.397  11.491  1.00  0.00     0.050 A 
HETATM    6  C   UNL     1     -41.066 -47.667  11.903  1.00  0.00     0.123 A 
HETATM    7  N   UNL     1     -40.930 -46.329  11.570  1.00  0.00    -0.320 N 
HETATM    8  C   UNL     1     -41.835 -45.686  10.721  1.00  0.00     0.247 A 
HETATM    9  C   UNL     1     -43.010 -46.490  10.299  1.00  0.00     0.077 A 
HETATM   10  O   UNL     1     -41.734 -44.528  10.334  1.00  0.00    -0.268 OA
HETATM   11  C   UNL     1     -43.149 -47.758  10.704  1.00  0.00     0.036 A 
BRANCH   7  12
HETATM   12  C   UNL     1     -39.740 -45.594  12.014  1.00  0.00     0.158 C 
BRANCH  12  13
HETATM   13  C   UNL     1     -39.386 -45.838  13.485  1.00  0.00     0.187 C 
BRANCH  13  14
HETATM   14  O   UNL     1     -39.201 -44.578  14.140  1.00  0.00    -0.394 OA
HETATM   15  C   UNL     1     -40.105 -44.417  15.226  1.00  0.00     0.201 C 
ENDBRANCH  13  14
ENDBRANCH  12  13
ENDBRANCH   7  12
ENDBRANCH   1   5
BRANCH   2  16
HETATM   16  C   UNL     1     -42.925 -51.779  12.904  1.00  0.00     0.271 C 
BRANCH  16  17
HETATM   17  O   UNL     1     -43.974 -52.230  13.744  1.00  0.00    -0.376 OA
BRANCH  17  18
HETATM   18  C   UNL     1     -45.114 -52.783  13.088  1.00  0.00     0.125 C 
HETATM   19  C   UNL     1     -46.264 -51.767  12.998  1.00  0.00     0.032 C 
HETATM   20  C   UNL     1     -46.715 -51.315  14.386  1.00  0.00     0.002 C 
HETATM   21  C   UNL     1     -47.158 -52.506  15.228  1.00  0.00     0.001 C 
HETATM   22  C   UNL     1     -46.075 -53.580  15.310  1.00  0.00     0.007 C 
HETATM   23  C   UNL     1     -45.586 -54.007  13.913  1.00  0.00     0.011 C 
HETATM   24  C   UNL     1     -44.493 -55.069  14.054  1.00  0.00     0.012 C 
ENDBRANCH  17  18
ENDBRANCH  16  17
ENDBRANCH   2  16
TORSDOF 7
ENDMDL
MODEL 6
REMARK VINA RESULT:      -5.7      2.500      4.349
REMARK  7 active torsions:
REMARK  status: ('A' for Active; 'I' for Inactive)
REMARK    1  A    between atoms: O_2  and  C_3 
REMARK    2  A    between atoms: C_3  and  C_4 
REMARK    3  A    between atoms: C_4  and  N_5 
REMARK    4  A    between atoms: C_7  and  N_8 
REMARK       I    between atoms: N_8  and  C_9 
REMARK    5  A    between atoms: C_9  and  C_11 
REMARK    6  A    between atoms: C_11  and  O_12 
REMARK    7  A    between atoms: O_12  and  C_13 
ROOT
HETATM    1  N   UNL     1     -41.749 -52.296  14.962  1.00  0.00    -0.324 N 
HETATM    2  C   UNL     1     -42.387 -53.526  14.808  1.00  0.00     0.245 C 
HETATM    3  O   UNL     1     -42.110 -54.334  13.925  1.00  0.00    -0.271 OA
HETATM    4  H   UNL     1     -42.279 -51.577  15.442  1.00  0.00     0.169 HD
ENDROOT
BRANCH   1   5
HETATM    5  C   UNL     1     -40.738 -51.880  14.127  1.00  0.00     0.050 A 
HETATM    6  C   UNL     1     -40.934 -51.111  13.038  1.00  0.00     0.123 A 
HETATM    7  N   UNL     1     -39.876 -50.643  12.275  1.00  0.00    -0.320 N 
HETATM    8  C   UNL     1     -38.547 -50.874  12.640  1.00  0.00     0.247 A 
HETATM    9  C   UNL     1     -38.342 -51.748  13.823  1.00  0.00     0.077 A 
HETATM   10  O   UNL     1     -37.570 -50.431  12.048  1.00  0.00    -0.268 OA
HETATM   11  C   UNL     1     -39.389 -52.246  14.491  1.00  0.00     0.036 A 
BRANCH   7  12
HETATM   12  C   UNL     1     -40.148 -49.777  11.122  1.00  0.00     0.158 C 
BRANCH  12  13
HETATM   13  C   UNL     1     -41.473 -49.015  11.231  1.00  0.00     0.187 C 
BRANCH  13  14
HETATM   14  O   UNL     1     -41.416 -47.851  10.400  1.00  0.00    -0.394 OA
HETATM   15  C   UNL     1     -42.670 -47.590   9.781  1.00  0.00     0.201 C 
ENDBRANCH  13  14
ENDBRANCH  12  13
ENDBRANCH   7  12
ENDBRANCH   1   5
BRANCH   2  16
HETATM   16  C   UNL     1     -43.496 -53.762  15.839  1.00  0.00     0.271 C 
BRANCH  16  17
HETATM   17  O   UNL     1     -44.603 -52.919  15.563  1.00  0.00    -0.376 OA
BRANCH  17  18
HETATM   18  C   UNL     1     -45.792 -53.567  15.112  1.00  0.00     0.125 C 
HETATM   19  C   UNL     1     -45.627 -54.128  13.691  1.00  0.00     0.032 C 
HETATM   20  C   UNL     1     -45.308 -53.017  12.690  1.00  0.00     0.002 C 
HETATM   21  C   UNL     1     -46.402 -51.955  12.691  1.00  0.00     0.001 C 
HETATM   22  C   UNL     1     -46.653 -51.397  14.091  1.00  0.00     0.007 C 
HETATM   23  C   UNL     1     -46.931 -52.517  15.111  1.00  0.00     0.011 C 
HETATM   24  C   UNL     1     -47.158 -51.905  16.496  1.00  0.00     0.012 C 
ENDBRANCH  17  18
ENDBRANCH  16  17
ENDBRANCH   2  16
TORSDOF 7
ENDMDL
MODEL 7
REMARK VINA RESULT:      -5.6      1.948      3.745
REMARK  7 active torsions:
REMARK  status: ('A' for Active; 'I' for Inactive)
REMARK    1  A    between atoms: O_2  and  C_3 
REMARK    2  A    between atoms: C_3  and  C_4 
REMARK    3  A    between atoms: C_4  and  N_5 
REMARK    4  A    between atoms: C_7  and  N_8 
REMARK       I    between atoms: N_8  and  C_9 
REMARK    5  A    between atoms: C_9  and  C_11 
REMARK    6  A    between atoms: C_11  and  O_12 
REMARK    7  A    between atoms: O_12  and  C_13 
ROOT
HETATM    1  N   UNL     1     -41.310 -48.900  10.659  1.00  0.00    -0.324 N 
HETATM    2  C   UNL     1     -41.572 -49.689  11.778  1.00  0.00     0.245 C 
HETATM    3  O   UNL     1     -42.437 -49.429  12.611  1.00  0.00    -0.271 OA
HETATM    4  H   UNL     1     -40.378 -48.977  10.268  1.00  0.00     0.169 HD
ENDROOT
BRANCH   1   5
HETATM    5  C   UNL     1     -42.010 -47.747  10.389  1.00  0.00     0.050 A 
HETATM    6  C   UNL     1     -41.807 -46.579  11.029  1.00  0.00     0.123 A 
HETATM    7  N   UNL     1     -42.475 -45.421  10.665  1.00  0.00    -0.320 N 
HETATM    8  C   UNL     1     -43.332 -45.382   9.563  1.00  0.00     0.247 A 
HETATM    9  C   UNL     1     -43.574 -46.680   8.883  1.00  0.00     0.077 A 
HETATM   10  O   UNL     1     -43.898 -44.376   9.149  1.00  0.00    -0.268 OA
HETATM   11  C   UNL     1     -42.971 -47.795   9.310  1.00  0.00     0.036 A 
BRANCH   7  12
HETATM   12  C   UNL     1     -42.184 -44.169  11.374  1.00  0.00     0.158 C 
BRANCH  12  13
HETATM   13  C   UNL     1     -40.693 -43.819  11.407  1.00  0.00     0.187 C 
BRANCH  13  14
HETATM   14  O   UNL     1     -40.245 -43.793  12.766  1.00  0.00    -0.394 OA
HETATM   15  C   UNL     1     -38.932 -44.325  12.893  1.00  0.00     0.201 C 
ENDBRANCH  13  14
ENDBRANCH  12  13
ENDBRANCH   7  12
ENDBRANCH   1   5
BRANCH   2  16
HETATM   16  C   UNL     1     -40.651 -50.909  11.881  1.00  0.00     0.271 C 
BRANCH  16  17
HETATM   17  O   UNL     1     -41.098 -51.769  12.918  1.00  0.00    -0.376 OA
BRANCH  17  18
HETATM   18  C   UNL     1     -41.667 -53.010  12.507  1.00  0.00     0.125 C 
HETATM   19  C   UNL     1     -43.198 -52.924  12.401  1.00  0.00     0.032 C 
HETATM   20  C   UNL     1     -43.827 -52.561  13.745  1.00  0.00     0.002 C 
HETATM   21  C   UNL     1     -43.451 -53.580  14.814  1.00  0.00     0.001 C 
HETATM   22  C   UNL     1     -41.938 -53.752  14.929  1.00  0.00     0.007 C 
HETATM   23  C   UNL     1     -41.294 -54.076  13.567  1.00  0.00     0.011 C 
HETATM   24  C   UNL     1     -39.779 -54.222  13.736  1.00  0.00     0.012 C 
ENDBRANCH  17  18
ENDBRANCH  16  17
ENDBRANCH   2  16
TORSDOF 7
ENDMDL
MODEL 8
REMARK VINA RESULT:      -5.6      2.386      3.804
REMARK  7 active torsions:
REMARK  status: ('A' for Active; 'I' for Inactive)
REMARK    1  A    between atoms: O_2  and  C_3 
REMARK    2  A    between atoms: C_3  and  C_4 
REMARK    3  A    between atoms: C_4  and  N_5 
REMARK    4  A    between atoms: C_7  and  N_8 
REMARK       I    between atoms: N_8  and  C_9 
REMARK    5  A    between atoms: C_9  and  C_11 
REMARK    6  A    between atoms: C_11  and  O_12 
REMARK    7  A    between atoms: O_12  and  C_13 
ROOT
HETATM    1  N   UNL     1     -40.705 -49.073  12.784  1.00  0.00    -0.324 N 
HETATM    2  C   UNL     1     -39.681 -49.941  12.410  1.00  0.00     0.245 C 
HETATM    3  O   UNL     1     -39.135 -49.920  11.310  1.00  0.00    -0.271 OA
HETATM    4  H   UNL     1     -41.321 -49.402  13.519  1.00  0.00     0.169 HD
ENDROOT
BRANCH   1   5
HETATM    5  C   UNL     1     -41.197 -48.104  11.940  1.00  0.00     0.050 A 
HETATM    6  C   UNL     1     -40.518 -46.991  11.601  1.00  0.00     0.123 A 
HETATM    7  N   UNL     1     -41.017 -46.084  10.680  1.00  0.00    -0.320 N 
HETATM    8  C   UNL     1     -42.211 -46.315   9.992  1.00  0.00     0.247 A 
HETATM    9  C   UNL     1     -42.967 -47.528  10.396  1.00  0.00     0.077 A 
HETATM   10  O   UNL     1     -42.670 -45.588   9.118  1.00  0.00    -0.268 OA
HETATM   11  C   UNL     1     -42.492 -48.342  11.346  1.00  0.00     0.036 A 
BRANCH   7  12
HETATM   12  C   UNL     1     -40.215 -44.908  10.320  1.00  0.00     0.158 C 
BRANCH  12  13
HETATM   13  C   UNL     1     -40.467 -43.697  11.225  1.00  0.00     0.187 C 
BRANCH  13  14
HETATM   14  O   UNL     1     -41.447 -42.851  10.615  1.00  0.00    -0.394 OA
HETATM   15  C   UNL     1     -41.637 -41.654  11.359  1.00  0.00     0.201 C 
ENDBRANCH  13  14
ENDBRANCH  12  13
ENDBRANCH   7  12
ENDBRANCH   1   5
BRANCH   2  16
HETATM   16  C   UNL     1     -39.318 -50.949  13.505  1.00  0.00     0.271 C 
BRANCH  16  17
HETATM   17  O   UNL     1     -40.402 -51.836  13.728  1.00  0.00    -0.376 OA
BRANCH  17  18
HETATM   18  C   UNL     1     -40.703 -52.743  12.670  1.00  0.00     0.125 C 
HETATM   19  C   UNL     1     -42.072 -52.444  12.038  1.00  0.00     0.032 C 
HETATM   20  C   UNL     1     -43.195 -52.561  13.068  1.00  0.00     0.002 C 
HETATM   21  C   UNL     1     -43.219 -53.952  13.690  1.00  0.00     0.001 C 
HETATM   22  C   UNL     1     -41.865 -54.332  14.288  1.00  0.00     0.007 C 
HETATM   23  C   UNL     1     -40.724 -54.174  13.266  1.00  0.00     0.011 C 
HETATM   24  C   UNL     1     -39.392 -54.550  13.920  1.00  0.00     0.012 C 
ENDBRANCH  17  18
ENDBRANCH  16  17
ENDBRANCH   2  16
TORSDOF 7
ENDMDL
MODEL 9
REMARK VINA RESULT:      -5.5      3.836      8.269
REMARK  7 active torsions:
REMARK  status: ('A' for Active; 'I' for Inactive)
REMARK    1  A    between atoms: O_2  and  C_3 
REMARK    2  A    between atoms: C_3  and  C_4 
REMARK    3  A    between atoms: C_4  and  N_5 
REMARK    4  A    between atoms: C_7  and  N_8 
REMARK       I    between atoms: N_8  and  C_9 
REMARK    5  A    between atoms: C_9  and  C_11 
REMARK    6  A    between atoms: C_11  and  O_12 
REMARK    7  A    between atoms: O_12  and  C_13 
ROOT
HETATM    1  N   UNL     1     -41.788 -51.569  13.242  1.00  0.00    -0.324 N 
HETATM    2  C   UNL     1     -41.028 -51.621  12.075  1.00  0.00     0.245 C 
HETATM    3  O   UNL     1     -40.684 -52.666  11.528  1.00  0.00    -0.271 OA
HETATM    4  H   UNL     1     -41.693 -50.727  13.798  1.00  0.00     0.169 HD
ENDROOT
BRANCH   1   5
HETATM    5  C   UNL     1     -42.225 -52.702  13.889  1.00  0.00     0.050 A 
HETATM    6  C   UNL     1     -43.429 -53.268  13.679  1.00  0.00     0.123 A 
HETATM    7  N   UNL     1     -43.793 -54.458  14.289  1.00  0.00    -0.320 N 
HETATM    8  C   UNL     1     -42.902 -55.177  15.089  1.00  0.00     0.247 A 
HETATM    9  C   UNL     1     -41.589 -54.530  15.340  1.00  0.00     0.077 A 
HETATM   10  O   UNL     1     -43.138 -56.266  15.599  1.00  0.00    -0.268 OA
HETATM   11  C   UNL     1     -41.300 -53.341  14.797  1.00  0.00     0.036 A 
BRANCH   7  12
HETATM   12  C   UNL     1     -45.104 -55.048  13.991  1.00  0.00     0.158 C 
BRANCH  12  13
HETATM   13  C   UNL     1     -46.260 -54.374  14.738  1.00  0.00     0.187 C 
BRANCH  13  14
HETATM   14  O   UNL     1     -46.098 -54.585  16.144  1.00  0.00    -0.394 OA
HETATM   15  C   UNL     1     -45.950 -53.355  16.842  1.00  0.00     0.201 C 
ENDBRANCH  13  14
ENDBRANCH  12  13
ENDBRANCH   7  12
ENDBRANCH   1   5
BRANCH   2  16
HETATM   16  C   UNL     1     -40.638 -50.235  11.550  1.00  0.00     0.271 C 
BRANCH  16  17
HETATM   17  O   UNL     1     -40.031 -49.477  12.584  1.00  0.00    -0.376 OA
BRANCH  17  18
HETATM   18  C   UNL     1     -38.727 -48.968  12.311  1.00  0.00     0.125 C 
HETATM   19  C   UNL     1     -37.707 -50.100  12.113  1.00  0.00     0.032 C 
HETATM   20  C   UNL     1     -37.601 -50.975  13.362  1.00  0.00     0.002 C 
HETATM   21  C   UNL     1     -37.202 -50.143  14.575  1.00  0.00     0.001 C 
HETATM   22  C   UNL     1     -38.149 -48.964  14.792  1.00  0.00     0.007 C 
HETATM   23  C   UNL     1     -38.293 -48.105  13.522  1.00  0.00     0.011 C 
HETATM   24  C   UNL     1     -39.263 -46.951  13.790  1.00  0.00     0.012 C 
ENDBRANCH  17  18
ENDBRANCH  16  17
ENDBRANCH   2  16
TORSDOF 7
ENDMDL
