MODEL 1
REMARK VINA RESULT:      -6.0      0.000      0.000
REMARK  4 active torsions:
REMARK  status: ('A' for Active; 'I' for Inactive)
REMARK    1  A    between atoms: C_2  and  C_3 
REMARK    2  A    between atoms: C_9  and  N_10 
REMARK    3  A    between atoms: N_10  and  C_11 
REMARK    4  A    between atoms: C_15  and  O_16 
ROOT
HETATM    1  C   UNL     1     -46.143 -52.585  13.941  1.00  0.00     0.052 A 
HETATM    2  N   UNL     1     -46.332 -53.900  14.193  1.00  0.00    -0.353 N 
ATOM      3  HN  UNL     1     -47.110 -54.236  14.761  1.00  0.00     0.166 HD
HETATM    4  C   UNL     1     -45.431 -54.736  13.652  1.00  0.00     0.182 A 
HETATM    5  N   UNL     1     -44.355 -54.389  12.924  1.00  0.00    -0.341 N 
ATOM      6  HN  UNL     1     -43.689 -55.082  12.582  1.00  0.00     0.167 HD
HETATM    7  C   UNL     1     -44.204 -53.075  12.672  1.00  0.00     0.122 A 
HETATM    8  C   UNL     1     -45.110 -52.134  13.143  1.00  0.00     0.177 A 
HETATM    9  F   UNL     1     -44.932 -50.825  12.915  1.00  0.00    -0.201 F 
ENDROOT
BRANCH   7  10
HETATM   10  N   UNL     1     -43.074 -52.615  11.985  1.00  0.00    -0.267 NA
HETATM   11  H   UNL     1     -42.725 -53.323  11.341  1.00  0.00     0.129 HD
BRANCH  10  12
HETATM   12  C   UNL     1     -42.039 -51.919  12.754  1.00  0.00     0.116 C 
HETATM   13  C   UNL     1     -41.676 -50.569  12.124  1.00  0.00     0.190 C 
HETATM   14  O   UNL     1     -40.254 -50.398  12.183  1.00  0.00    -0.387 OA
HETATM   15  C   UNL     1     -39.674 -51.586  12.740  1.00  0.00     0.201 C 
HETATM   16  C   UNL     1     -40.718 -52.684  12.650  1.00  0.00     0.162 C 
BRANCH  16  17
HETATM   17  O   UNL     1     -40.594 -53.367  11.390  1.00  0.00    -0.392 OA
HETATM   18  H   UNL     1     -40.607 -52.675  10.699  1.00  0.00     0.210 HD
ENDBRANCH  16  17
ENDBRANCH  10  12
ENDBRANCH   7  10
BRANCH   1  19
HETATM   19  C   UNL     1     -47.020 -51.598  14.664  1.00  0.00     0.056 C 
HETATM   20  C   UNL     1     -46.383 -51.168  15.979  1.00  0.00     0.011 C 
ENDBRANCH   1  19
TORSDOF 4
ENDMDL
MODEL 2
REMARK VINA RESULT:      -5.6      4.429      6.263
REMARK  4 active torsions:
REMARK  status: ('A' for Active; 'I' for Inactive)
REMARK    1  A    between atoms: C_2  and  C_3 
REMARK    2  A    between atoms: C_9  and  N_10 
REMARK    3  A    between atoms: N_10  and  C_11 
REMARK    4  A    between atoms: C_15  and  O_16 
ROOT
HETATM    1  C   UNL     1     -41.125 -46.460  11.189  1.00  0.00     0.052 A 
HETATM    2  N   UNL     1     -42.449 -46.305  10.963  1.00  0.00    -0.353 N 
ATOM      3  HN  UNL     1     -42.900 -45.390  10.991  1.00  0.00     0.166 HD
HETATM    4  C   UNL     1     -43.135 -47.429  10.701  1.00  0.00     0.182 A 
HETATM    5  N   UNL     1     -42.641 -48.680  10.679  1.00  0.00    -0.341 N 
ATOM      6  HN  UNL     1     -43.236 -49.491  10.515  1.00  0.00     0.167 HD
HETATM    7  C   UNL     1     -41.316 -48.801  10.888  1.00  0.00     0.122 A 
HETATM    8  C   UNL     1     -40.510 -47.693  11.116  1.00  0.00     0.177 A 
HETATM    9  F   UNL     1     -39.198 -47.828  11.355  1.00  0.00    -0.201 F 
ENDROOT
BRANCH   7  10
HETATM   10  N   UNL     1     -40.727 -50.070  10.955  1.00  0.00    -0.267 NA
HETATM   11  H   UNL     1     -41.092 -50.681  10.226  1.00  0.00     0.129 HD
BRANCH  10  12
HETATM   12  C   UNL     1     -40.595 -50.695  12.273  1.00  0.00     0.116 C 
HETATM   13  C   UNL     1     -39.141 -51.079  12.575  1.00  0.00     0.190 C 
HETATM   14  O   UNL     1     -39.123 -52.368  13.202  1.00  0.00    -0.387 OA
HETATM   15  C   UNL     1     -40.466 -52.870  13.253  1.00  0.00     0.201 C 
HETATM   16  C   UNL     1     -41.289 -52.059  12.269  1.00  0.00     0.162 C 
BRANCH  16  17
HETATM   17  O   UNL     1     -41.240 -52.679  10.971  1.00  0.00    -0.392 OA
HETATM   18  H   UNL     1     -42.166 -52.858  10.715  1.00  0.00     0.210 HD
ENDBRANCH  16  17
ENDBRANCH  10  12
ENDBRANCH   7  10
BRANCH   1  19
HETATM   19  C   UNL     1     -40.347 -45.259  11.655  1.00  0.00     0.056 C 
HETATM   20  C   UNL     1     -39.684 -44.551  10.481  1.00  0.00     0.011 C 
ENDBRANCH   1  19
TORSDOF 4
ENDMDL
MODEL 3
REMARK VINA RESULT:      -5.3      3.079      5.768
REMARK  4 active torsions:
REMARK  status: ('A' for Active; 'I' for Inactive)
REMARK    1  A    between atoms: C_2  and  C_3 
REMARK    2  A    between atoms: C_9  and  N_10 
REMARK    3  A    between atoms: N_10  and  C_11 
REMARK    4  A    between atoms: C_15  and  O_16 
ROOT
HETATM    1  C   UNL     1     -40.550 -53.242  13.597  1.00  0.00     0.052 A 
HETATM    2  N   UNL     1     -40.199 -52.245  12.754  1.00  0.00    -0.353 N 
ATOM      3  HN  UNL     1     -39.288 -51.789  12.803  1.00  0.00     0.166 HD
HETATM    4  C   UNL     1     -41.125 -51.891  11.847  1.00  0.00     0.182 A 
HETATM    5  N   UNL     1     -42.363 -52.403  11.727  1.00  0.00    -0.341 N 
ATOM      6  HN  UNL     1     -43.027 -52.050  11.038  1.00  0.00     0.167 HD
HETATM    7  C   UNL     1     -42.676 -53.407  12.567  1.00  0.00     0.122 A 
HETATM    8  C   UNL     1     -41.770 -53.882  13.507  1.00  0.00     0.177 A 
HETATM    9  F   UNL     1     -42.105 -54.859  14.360  1.00  0.00    -0.201 F 
ENDROOT
BRANCH   7  10
HETATM   10  N   UNL     1     -43.967 -53.951  12.563  1.00  0.00    -0.267 NA
HETATM   11  H   UNL     1     -44.458 -53.720  11.701  1.00  0.00     0.129 HD
BRANCH  10  12
HETATM   12  C   UNL     1     -44.769 -53.823  13.782  1.00  0.00     0.116 C 
HETATM   13  C   UNL     1     -45.501 -55.128  14.119  1.00  0.00     0.190 C 
HETATM   14  O   UNL     1     -46.831 -54.814  14.552  1.00  0.00    -0.387 OA
HETATM   15  C   UNL     1     -47.025 -53.397  14.442  1.00  0.00     0.201 C 
HETATM   16  C   UNL     1     -45.932 -52.860  13.535  1.00  0.00     0.162 C 
BRANCH  16  17
HETATM   17  O   UNL     1     -46.377 -52.900  12.167  1.00  0.00    -0.392 OA
HETATM   18  H   UNL     1     -46.121 -52.045  11.768  1.00  0.00     0.210 HD
ENDBRANCH  16  17
ENDBRANCH  10  12
ENDBRANCH   7  10
BRANCH   1  19
HETATM   19  C   UNL     1     -39.620 -53.556  14.737  1.00  0.00     0.056 C 
HETATM   20  C   UNL     1     -38.911 -54.885  14.509  1.00  0.00     0.011 C 
ENDBRANCH   1  19
TORSDOF 4
ENDMDL
MODEL 4
REMARK VINA RESULT:      -5.2      6.633      8.133
REMARK  4 active torsions:
REMARK  status: ('A' for Active; 'I' for Inactive)
REMARK    1  A    between atoms: C_2  and  C_3 
REMARK    2  A    between atoms: C_9  and  N_10 
REMARK    3  A    between atoms: N_10  and  C_11 
REMARK    4  A    between atoms: C_15  and  O_16 
ROOT
HETATM    1  C   UNL     1     -44.583 -47.002   9.603  1.00  0.00     0.052 A 
HETATM    2  N   UNL     1     -44.198 -48.112  10.272  1.00  0.00    -0.353 N 
ATOM      3  HN  UNL     1     -44.779 -48.949  10.312  1.00  0.00     0.166 HD
HETATM    4  C   UNL     1     -43.003 -48.043  10.882  1.00  0.00     0.182 A 
HETATM    5  N   UNL     1     -42.185 -46.976  10.919  1.00  0.00    -0.341 N 
ATOM      6  HN  UNL     1     -41.310 -46.987  11.442  1.00  0.00     0.167 HD
HETATM    7  C   UNL     1     -42.587 -45.893  10.227  1.00  0.00     0.122 A 
HETATM    8  C   UNL     1     -43.781 -45.881   9.519  1.00  0.00     0.177 A 
HETATM    9  F   UNL     1     -44.187 -44.786   8.862  1.00  0.00    -0.201 F 
ENDROOT
BRANCH   7  10
HETATM   10  N   UNL     1     -41.834 -44.712  10.268  1.00  0.00    -0.267 NA
HETATM   11  H   UNL     1     -41.132 -44.700   9.530  1.00  0.00     0.129 HD
BRANCH  10  12
HETATM   12  C   UNL     1     -41.361 -44.247  11.574  1.00  0.00     0.116 C 
HETATM   13  C   UNL     1     -42.527 -43.893  12.506  1.00  0.00     0.190 C 
HETATM   14  O   UNL     1     -42.206 -42.687  13.211  1.00  0.00    -0.387 OA
HETATM   15  C   UNL     1     -40.943 -42.202  12.736  1.00  0.00     0.201 C 
HETATM   16  C   UNL     1     -40.659 -42.896  11.416  1.00  0.00     0.162 C 
BRANCH  16  17
HETATM   17  O   UNL     1     -41.218 -42.127  10.336  1.00  0.00    -0.392 OA
HETATM   18  H   UNL     1     -40.539 -42.103   9.633  1.00  0.00     0.210 HD
ENDBRANCH  16  17
ENDBRANCH  10  12
ENDBRANCH   7  10
BRANCH   1  19
HETATM   19  C   UNL     1     -45.983 -46.966   9.050  1.00  0.00     0.056 C 
HETATM   20  C   UNL     1     -46.586 -48.364   9.007  1.00  0.00     0.011 C 
ENDBRANCH   1  19
TORSDOF 4
ENDMDL
MODEL 5
REMARK VINA RESULT:      -5.1      5.288      6.725
REMARK  4 active torsions:
REMARK  status: ('A' for Active; 'I' for Inactive)
REMARK    1  A    between atoms: C_2  and  C_3 
REMARK    2  A    between atoms: C_9  and  N_10 
REMARK    3  A    between atoms: N_10  and  C_11 
REMARK    4  A    between atoms: C_15  and  O_16 
ROOT
HETATM    1  C   UNL     1     -39.936 -49.350  13.294  1.00  0.00     0.052 A 
HETATM    2  N   UNL     1     -40.034 -50.693  13.168  1.00  0.00    -0.353 N 
ATOM      3  HN  UNL     1     -39.722 -51.330  13.900  1.00  0.00     0.166 HD
HETATM    4  C   UNL     1     -40.569 -51.136  12.018  1.00  0.00     0.182 A 
HETATM    5  N   UNL     1     -40.973 -50.380  10.981  1.00  0.00    -0.341 N 
ATOM      6  HN  UNL     1     -41.329 -50.794  10.120  1.00  0.00     0.167 HD
HETATM    7  C   UNL     1     -40.882 -49.046  11.145  1.00  0.00     0.122 A 
HETATM    8  C   UNL     1     -40.392 -48.487  12.317  1.00  0.00     0.177 A 
HETATM    9  F   UNL     1     -40.274 -47.159  12.456  1.00  0.00    -0.201 F 
ENDROOT
BRANCH   7  10
HETATM   10  N   UNL     1     -41.212 -48.184  10.091  1.00  0.00    -0.267 NA
HETATM   11  H   UNL     1     -40.460 -47.520   9.913  1.00  0.00     0.129 HD
BRANCH  10  12
HETATM   12  C   UNL     1     -42.559 -47.609  10.072  1.00  0.00     0.116 C 
HETATM   13  C   UNL     1     -43.229 -47.778   8.703  1.00  0.00     0.190 C 
HETATM   14  O   UNL     1     -43.920 -46.566   8.374  1.00  0.00    -0.387 OA
HETATM   15  C   UNL     1     -43.674 -45.604   9.408  1.00  0.00     0.201 C 
HETATM   16  C   UNL     1     -42.471 -46.086  10.197  1.00  0.00     0.162 C 
BRANCH  16  17
HETATM   17  O   UNL     1     -41.265 -45.571   9.604  1.00  0.00    -0.392 OA
HETATM   18  H   UNL     1     -40.580 -45.600  10.301  1.00  0.00     0.210 HD
ENDBRANCH  16  17
ENDBRANCH  10  12
ENDBRANCH   7  10
BRANCH   1  19
HETATM   19  C   UNL     1     -39.190 -48.810  14.484  1.00  0.00     0.056 C 
HETATM   20  C   UNL     1     -37.743 -48.500  14.124  1.00  0.00     0.011 C 
ENDBRANCH   1  19
TORSDOF 4
ENDMDL
MODEL 6
REMARK VINA RESULT:      -5.0      5.772      7.110
REMARK  4 active torsions:
REMARK  status: ('A' for Active; 'I' for Inactive)
REMARK    1  A    between atoms: C_2  and  C_3 
REMARK    2  A    between atoms: C_9  and  N_10 
REMARK    3  A    between atoms: N_10  and  C_11 
REMARK    4  A    between atoms: C_15  and  O_16 
ROOT
HETATM    1  C   UNL     1     -41.454 -44.746  11.904  1.00  0.00     0.052 A 
HETATM    2  N   UNL     1     -42.547 -44.886  11.121  1.00  0.00    -0.353 N 
ATOM      3  HN  UNL     1     -43.325 -44.225  11.151  1.00  0.00     0.166 HD
HETATM    4  C   UNL     1     -42.548 -45.948  10.299  1.00  0.00     0.182 A 
HETATM    5  N   UNL     1     -41.593 -46.892  10.213  1.00  0.00    -0.341 N 
ATOM      6  HN  UNL     1     -41.686 -47.697   9.593  1.00  0.00     0.167 HD
HETATM    7  C   UNL     1     -40.508 -46.714  10.991  1.00  0.00     0.122 A 
HETATM    8  C   UNL     1     -40.388 -45.620  11.836  1.00  0.00     0.177 A 
HETATM    9  F   UNL     1     -39.319 -45.471  12.630  1.00  0.00    -0.201 F 
ENDROOT
BRANCH   7  10
HETATM   10  N   UNL     1     -39.497 -47.684  11.020  1.00  0.00    -0.267 NA
HETATM   11  H   UNL     1     -39.280 -48.014  10.081  1.00  0.00     0.129 HD
BRANCH  10  12
HETATM   12  C   UNL     1     -39.585 -48.735  12.037  1.00  0.00     0.116 C 
HETATM   13  C   UNL     1     -38.260 -49.493  12.184  1.00  0.00     0.190 C 
HETATM   14  O   UNL     1     -38.539 -50.892  12.322  1.00  0.00    -0.387 OA
HETATM   15  C   UNL     1     -39.954 -51.089  12.195  1.00  0.00     0.201 C 
HETATM   16  C   UNL     1     -40.530 -49.838  11.557  1.00  0.00     0.162 C 
BRANCH  16  17
HETATM   17  O   UNL     1     -40.510 -49.973  10.125  1.00  0.00    -0.392 OA
HETATM   18  H   UNL     1     -39.593 -49.788   9.843  1.00  0.00     0.210 HD
ENDBRANCH  16  17
ENDBRANCH  10  12
ENDBRANCH   7  10
BRANCH   1  19
HETATM   19  C   UNL     1     -41.481 -43.674  12.960  1.00  0.00     0.056 C 
HETATM   20  C   UNL     1     -42.825 -43.650  13.676  1.00  0.00     0.011 C 
ENDBRANCH   1  19
TORSDOF 4
ENDMDL
MODEL 7
REMARK VINA RESULT:      -5.0      2.511      3.428
REMARK  4 active torsions:
REMARK  status: ('A' for Active; 'I' for Inactive)
REMARK    1  A    between atoms: C_2  and  C_3 
REMARK    2  A    between atoms: C_9  and  N_10 
REMARK    3  A    between atoms: N_10  and  C_11 
REMARK    4  A    between atoms: C_15  and  O_16 
ROOT
HETATM    1  C   UNL     1     -42.859 -53.825  13.897  1.00  0.00     0.052 A 
HETATM    2  N   UNL     1     -42.130 -54.546  14.779  1.00  0.00    -0.353 N 
ATOM      3  HN  UNL     1     -42.566 -55.122  15.499  1.00  0.00     0.166 HD
HETATM    4  C   UNL     1     -40.796 -54.457  14.648  1.00  0.00     0.182 A 
HETATM    5  N   UNL     1     -40.129 -53.700  13.759  1.00  0.00    -0.341 N 
ATOM      6  HN  UNL     1     -39.111 -53.651  13.751  1.00  0.00     0.167 HD
HETATM    7  C   UNL     1     -40.881 -53.009  12.882  1.00  0.00     0.122 A 
HETATM    8  C   UNL     1     -42.268 -53.074  12.900  1.00  0.00     0.177 A 
HETATM    9  F   UNL     1     -43.008 -52.356  12.043  1.00  0.00    -0.201 F 
ENDROOT
BRANCH   7  10
HETATM   10  N   UNL     1     -40.275 -52.138  11.968  1.00  0.00    -0.267 NA
HETATM   11  H   UNL     1     -39.753 -52.654  11.262  1.00  0.00     0.129 HD
BRANCH  10  12
HETATM   12  C   UNL     1     -39.590 -50.956  12.498  1.00  0.00     0.116 C 
HETATM   13  C   UNL     1     -40.505 -50.135  13.415  1.00  0.00     0.190 C 
HETATM   14  O   UNL     1     -40.308 -48.742  13.139  1.00  0.00    -0.387 OA
HETATM   15  C   UNL     1     -39.382 -48.619  12.051  1.00  0.00     0.201 C 
HETATM   16  C   UNL     1     -39.312 -49.969  11.361  1.00  0.00     0.162 C 
BRANCH  16  17
HETATM   17  O   UNL     1     -40.317 -50.040  10.334  1.00  0.00    -0.392 OA
HETATM   18  H   UNL     1     -41.149 -49.728  10.740  1.00  0.00     0.210 HD
ENDBRANCH  16  17
ENDBRANCH  10  12
ENDBRANCH   7  10
BRANCH   1  19
HETATM   19  C   UNL     1     -44.347 -53.754  14.109  1.00  0.00     0.056 C 
HETATM   20  C   UNL     1     -45.006 -55.089  13.789  1.00  0.00     0.011 C 
ENDBRANCH   1  19
TORSDOF 4
ENDMDL
MODEL 8
REMARK VINA RESULT:      -4.9      3.385      6.119
REMARK  4 active torsions:
REMARK  status: ('A' for Active; 'I' for Inactive)
REMARK    1  A    between atoms: C_2  and  C_3 
REMARK    2  A    between atoms: C_9  and  N_10 
REMARK    3  A    between atoms: N_10  and  C_11 
REMARK    4  A    between atoms: C_15  and  O_16 
ROOT
HETATM    1  C   UNL     1     -38.793 -49.555  12.526  1.00  0.00     0.052 A 
HETATM    2  N   UNL     1     -39.461 -48.824  11.606  1.00  0.00    -0.353 N 
ATOM      3  HN  UNL     1     -39.227 -47.850  11.413  1.00  0.00     0.166 HD
HETATM    4  C   UNL     1     -40.454 -49.459  10.961  1.00  0.00     0.182 A 
HETATM    5  N   UNL     1     -40.863 -50.723  11.171  1.00  0.00    -0.341 N 
ATOM      6  HN  UNL     1     -41.657 -51.123  10.671  1.00  0.00     0.167 HD
HETATM    7  C   UNL     1     -40.165 -51.432  12.079  1.00  0.00     0.122 A 
HETATM    8  C   UNL     1     -39.088 -50.883  12.761  1.00  0.00     0.177 A 
HETATM    9  F   UNL     1     -38.421 -51.588  13.687  1.00  0.00    -0.201 F 
ENDROOT
BRANCH   7  10
HETATM   10  N   UNL     1     -40.564 -52.732  12.414  1.00  0.00    -0.267 NA
HETATM   11  H   UNL     1     -40.831 -53.258  11.583  1.00  0.00     0.129 HD
BRANCH  10  12
HETATM   12  C   UNL     1     -41.458 -52.900  13.562  1.00  0.00     0.116 C 
HETATM   13  C   UNL     1     -41.536 -54.365  14.011  1.00  0.00     0.190 C 
HETATM   14  O   UNL     1     -42.898 -54.680  14.328  1.00  0.00    -0.387 OA
HETATM   15  C   UNL     1     -43.711 -53.534  14.039  1.00  0.00     0.201 C 
HETATM   16  C   UNL     1     -42.901 -52.620  13.137  1.00  0.00     0.162 C 
BRANCH  16  17
HETATM   17  O   UNL     1     -43.131 -52.973  11.761  1.00  0.00    -0.392 OA
HETATM   18  H   UNL     1     -44.079 -53.201  11.689  1.00  0.00     0.210 HD
ENDBRANCH  16  17
ENDBRANCH  10  12
ENDBRANCH   7  10
BRANCH   1  19
HETATM   19  C   UNL     1     -37.790 -48.843  13.393  1.00  0.00     0.056 C 
HETATM   20  C   UNL     1     -38.395 -47.586  14.004  1.00  0.00     0.011 C 
ENDBRANCH   1  19
TORSDOF 4
ENDMDL
MODEL 9
REMARK VINA RESULT:      -4.9      3.645      4.566
REMARK  4 active torsions:
REMARK  status: ('A' for Active; 'I' for Inactive)
REMARK    1  A    between atoms: C_2  and  C_3 
REMARK    2  A    between atoms: C_9  and  N_10 
REMARK    3  A    between atoms: N_10  and  C_11 
REMARK    4  A    between atoms: C_15  and  O_16 
ROOT
HETATM    1  C   UNL     1     -43.242 -53.660  12.924  1.00  0.00     0.052 A 
HETATM    2  N   UNL     1     -42.961 -52.668  12.050  1.00  0.00    -0.353 N 
ATOM      3  HN  UNL     1     -43.686 -52.214  11.493  1.00  0.00     0.166 HD
HETATM    4  C   UNL     1     -41.668 -52.316  11.959  1.00  0.00     0.182 A 
HETATM    5  N   UNL     1     -40.639 -52.876  12.619  1.00  0.00    -0.341 N 
ATOM      6  HN  UNL     1     -39.675 -52.582  12.464  1.00  0.00     0.167 HD
HETATM    7  C   UNL     1     -40.953 -53.848  13.497  1.00  0.00     0.122 A 
HETATM    8  C   UNL     1     -42.266 -54.248  13.703  1.00  0.00     0.177 A 
HETATM    9  F   UNL     1     -42.564 -55.239  14.555  1.00  0.00    -0.201 F 
ENDROOT
BRANCH   7  10
HETATM   10  N   UNL     1     -39.940 -54.537  14.176  1.00  0.00    -0.267 NA
HETATM   11  H   UNL     1     -39.892 -55.509  13.872  1.00  0.00     0.129 HD
BRANCH  10  12
HETATM   12  C   UNL     1     -39.825 -54.338  15.622  1.00  0.00     0.116 C 
HETATM   13  C   UNL     1     -39.019 -53.077  15.959  1.00  0.00     0.190 C 
HETATM   14  O   UNL     1     -38.147 -53.366  17.060  1.00  0.00    -0.387 OA
HETATM   15  C   UNL     1     -38.285 -54.751  17.401  1.00  0.00     0.201 C 
HETATM   16  C   UNL     1     -38.955 -55.443  16.227  1.00  0.00     0.162 C 
BRANCH  16  17
HETATM   17  O   UNL     1     -37.953 -55.900  15.301  1.00  0.00    -0.392 OA
HETATM   18  H   UNL     1     -37.091 -55.616  15.663  1.00  0.00     0.210 HD
ENDBRANCH  16  17
ENDBRANCH  10  12
ENDBRANCH   7  10
BRANCH   1  19
HETATM   19  C   UNL     1     -44.645 -54.207  12.937  1.00  0.00     0.056 C 
HETATM   20  C   UNL     1     -45.569 -53.314  13.754  1.00  0.00     0.011 C 
ENDBRANCH   1  19
TORSDOF 4
ENDMDL
