MODEL 1
REMARK VINA RESULT:      -6.5      0.000      0.000
REMARK  4 active torsions:
REMARK  status: ('A' for Active; 'I' for Inactive)
REMARK    1  A    between atoms: C_4  and  C_10 
REMARK       I    between atoms: C_10  and  N_12 
REMARK    2  A    between atoms: N_12  and  C_13 
REMARK    3  A    between atoms: C_13  and  C_14 
REMARK    4  A    between atoms: C_14  and  C_15 
ROOT
HETATM    1  C   UNL     1     -41.917 -51.370  12.156  1.00  0.00     0.221 C 
HETATM    2  O   UNL     1     -40.886 -52.011  11.960  1.00  0.00    -0.273 OA
HETATM    3  N   UNL     1     -42.039 -50.050  11.787  1.00  0.00    -0.360 N 
HETATM    4  H   UNL     1     -42.966 -49.648  11.686  1.00  0.00     0.162 HD
ENDROOT
BRANCH   1   5
HETATM    5  C   UNL     1     -43.165 -51.967  12.816  1.00  0.00     0.079 C 
HETATM    6  C   UNL     1     -43.838 -50.940  13.741  1.00  0.00     0.018 C 
HETATM    7  C   UNL     1     -45.017 -51.506  14.549  1.00  0.00    -0.017 C 
HETATM    8  C   UNL     1     -46.298 -51.600  13.716  1.00  0.00     0.010 C 
HETATM    9  C   UNL     1     -44.649 -52.825  15.245  1.00  0.00     0.013 C 
HETATM   10  C   UNL     1     -43.954 -53.888  14.364  1.00  0.00    -0.047 C 
HETATM   11  C   UNL     1     -42.782 -53.237  13.600  1.00  0.00     0.022 C 
HETATM   12  C   UNL     1     -44.931 -54.569  13.389  1.00  0.00     0.015 C 
HETATM   13  C   UNL     1     -43.396 -54.993  15.286  1.00  0.00     0.015 C 
ENDBRANCH   1   5
BRANCH   3  14
HETATM   14  C   UNL     1     -40.976 -49.350  11.085  1.00  0.00     0.130 C 
BRANCH  14  15
HETATM   15  C   UNL     1     -41.173 -47.830  11.048  1.00  0.00     0.096 C 
BRANCH  15  16
HETATM   16  C   UNL     1     -42.173 -47.410  10.011  1.00  0.00     0.084 A 
HETATM   17  N   UNL     1     -42.642 -48.169   9.035  1.00  0.00    -0.354 N 
HETATM   18  C   UNL     1     -43.531 -47.389   8.344  1.00  0.00     0.106 A 
ATOM     19  HN  UNL     1     -42.393 -49.138   8.837  1.00  0.00     0.166 HD
HETATM   20  C   UNL     1     -43.598 -46.132   8.891  1.00  0.00     0.108 A 
HETATM   21  N   UNL     1     -42.731 -46.153   9.948  1.00  0.00    -0.350 N 
HETATM   22  C   UNL     1     -42.466 -45.040  10.829  1.00  0.00     0.156 C 
ENDBRANCH  15  16
ENDBRANCH  14  15
ENDBRANCH   3  14
TORSDOF 4
ENDMDL
MODEL 2
REMARK VINA RESULT:      -6.5      0.760      2.177
REMARK  4 active torsions:
REMARK  status: ('A' for Active; 'I' for Inactive)
REMARK    1  A    between atoms: C_4  and  C_10 
REMARK       I    between atoms: C_10  and  N_12 
REMARK    2  A    between atoms: N_12  and  C_13 
REMARK    3  A    between atoms: C_13  and  C_14 
REMARK    4  A    between atoms: C_14  and  C_15 
ROOT
HETATM    1  C   UNL     1     -41.575 -50.920  12.897  1.00  0.00     0.221 C 
HETATM    2  O   UNL     1     -40.454 -50.794  13.387  1.00  0.00    -0.273 OA
HETATM    3  N   UNL     1     -41.959 -50.238  11.765  1.00  0.00    -0.360 N 
HETATM    4  H   UNL     1     -42.750 -50.578  11.227  1.00  0.00     0.162 HD
ENDROOT
BRANCH   1   5
HETATM    5  C   UNL     1     -42.649 -51.845  13.481  1.00  0.00     0.079 C 
HETATM    6  C   UNL     1     -42.577 -53.240  12.840  1.00  0.00     0.018 C 
HETATM    7  C   UNL     1     -43.711 -54.184  13.270  1.00  0.00    -0.017 C 
HETATM    8  C   UNL     1     -43.460 -54.800  14.649  1.00  0.00     0.010 C 
HETATM    9  C   UNL     1     -45.087 -53.514  13.147  1.00  0.00     0.013 C 
HETATM   10  C   UNL     1     -45.211 -52.100  13.760  1.00  0.00    -0.047 C 
HETATM   11  C   UNL     1     -44.042 -51.221  13.269  1.00  0.00     0.022 C 
HETATM   12  C   UNL     1     -45.263 -52.132  15.298  1.00  0.00     0.015 C 
HETATM   13  C   UNL     1     -46.540 -51.478  13.279  1.00  0.00     0.015 C 
ENDBRANCH   1   5
BRANCH   3  14
HETATM   14  C   UNL     1     -41.039 -49.374  11.043  1.00  0.00     0.130 C 
BRANCH  14  15
HETATM   15  C   UNL     1     -41.399 -47.888  11.144  1.00  0.00     0.096 C 
BRANCH  15  16
HETATM   16  C   UNL     1     -42.289 -47.439  10.023  1.00  0.00     0.084 A 
HETATM   17  N   UNL     1     -42.711 -48.191   9.020  1.00  0.00    -0.354 N 
HETATM   18  C   UNL     1     -43.502 -47.382   8.248  1.00  0.00     0.106 A 
ATOM     19  HN  UNL     1     -42.492 -49.174   8.855  1.00  0.00     0.166 HD
HETATM   20  C   UNL     1     -43.555 -46.115   8.773  1.00  0.00     0.108 A 
HETATM   21  N   UNL     1     -42.780 -46.159   9.899  1.00  0.00    -0.350 N 
HETATM   22  C   UNL     1     -42.538 -45.046  10.785  1.00  0.00     0.156 C 
ENDBRANCH  15  16
ENDBRANCH  14  15
ENDBRANCH   3  14
TORSDOF 4
ENDMDL
MODEL 3
REMARK VINA RESULT:      -6.3      1.369      1.675
REMARK  4 active torsions:
REMARK  status: ('A' for Active; 'I' for Inactive)
REMARK    1  A    between atoms: C_4  and  C_10 
REMARK       I    between atoms: C_10  and  N_12 
REMARK    2  A    between atoms: N_12  and  C_13 
REMARK    3  A    between atoms: C_13  and  C_14 
REMARK    4  A    between atoms: C_14  and  C_15 
ROOT
HETATM    1  C   UNL     1     -42.286 -51.893  12.975  1.00  0.00     0.221 C 
HETATM    2  O   UNL     1     -41.377 -52.379  13.646  1.00  0.00    -0.273 OA
HETATM    3  N   UNL     1     -42.052 -50.954  11.997  1.00  0.00    -0.360 N 
HETATM    4  H   UNL     1     -42.754 -50.802  11.279  1.00  0.00     0.162 HD
ENDROOT
BRANCH   1   5
HETATM    5  C   UNL     1     -43.759 -52.283  13.147  1.00  0.00     0.079 C 
HETATM    6  C   UNL     1     -44.667 -51.047  13.051  1.00  0.00     0.018 C 
HETATM    7  C   UNL     1     -46.147 -51.334  13.353  1.00  0.00    -0.017 C 
HETATM    8  C   UNL     1     -46.869 -51.961  12.158  1.00  0.00     0.010 C 
HETATM    9  C   UNL     1     -46.318 -52.132  14.653  1.00  0.00     0.013 C 
HETATM   10  C   UNL     1     -45.416 -53.378  14.810  1.00  0.00    -0.047 C 
HETATM   11  C   UNL     1     -43.953 -52.997  14.499  1.00  0.00     0.022 C 
HETATM   12  C   UNL     1     -45.877 -54.548  13.923  1.00  0.00     0.015 C 
HETATM   13  C   UNL     1     -45.506 -53.860  16.274  1.00  0.00     0.015 C 
ENDBRANCH   1   5
BRANCH   3  14
HETATM   14  C   UNL     1     -40.706 -50.525  11.655  1.00  0.00     0.130 C 
BRANCH  14  15
HETATM   15  C   UNL     1     -40.556 -49.001  11.588  1.00  0.00     0.096 C 
BRANCH  15  16
HETATM   16  C   UNL     1     -41.707 -48.345  10.884  1.00  0.00     0.084 A 
HETATM   17  N   UNL     1     -41.905 -48.322   9.577  1.00  0.00    -0.354 N 
HETATM   18  C   UNL     1     -43.073 -47.633   9.384  1.00  0.00     0.106 A 
ATOM     19  HN  UNL     1     -41.309 -48.733   8.858  1.00  0.00     0.166 HD
HETATM   20  C   UNL     1     -43.592 -47.214  10.583  1.00  0.00     0.108 A 
HETATM   21  N   UNL     1     -42.718 -47.670  11.531  1.00  0.00    -0.350 N 
HETATM   22  C   UNL     1     -42.854 -47.465  12.954  1.00  0.00     0.156 C 
ENDBRANCH  15  16
ENDBRANCH  14  15
ENDBRANCH   3  14
TORSDOF 4
ENDMDL
MODEL 4
REMARK VINA RESULT:      -6.2      2.323      4.251
REMARK  4 active torsions:
REMARK  status: ('A' for Active; 'I' for Inactive)
REMARK    1  A    between atoms: C_4  and  C_10 
REMARK       I    between atoms: C_10  and  N_12 
REMARK    2  A    between atoms: N_12  and  C_13 
REMARK    3  A    between atoms: C_13  and  C_14 
REMARK    4  A    between atoms: C_14  and  C_15 
ROOT
HETATM    1  C   UNL     1     -42.123 -51.540  12.301  1.00  0.00     0.221 C 
HETATM    2  O   UNL     1     -41.258 -52.109  11.637  1.00  0.00    -0.273 OA
HETATM    3  N   UNL     1     -42.309 -50.178  12.247  1.00  0.00    -0.360 N 
HETATM    4  H   UNL     1     -43.193 -49.786  12.558  1.00  0.00     0.162 HD
ENDROOT
BRANCH   1   5
HETATM    5  C   UNL     1     -43.081 -52.278  13.243  1.00  0.00     0.079 C 
HETATM    6  C   UNL     1     -43.397 -53.685  12.710  1.00  0.00     0.018 C 
HETATM    7  C   UNL     1     -44.462 -54.437  13.525  1.00  0.00    -0.017 C 
HETATM    8  C   UNL     1     -43.885 -55.048  14.805  1.00  0.00     0.010 C 
HETATM    9  C   UNL     1     -45.706 -53.572  13.772  1.00  0.00     0.013 C 
HETATM   10  C   UNL     1     -45.444 -52.140  14.294  1.00  0.00    -0.047 C 
HETATM   11  C   UNL     1     -44.375 -51.459  13.415  1.00  0.00     0.022 C 
HETATM   12  C   UNL     1     -45.027 -52.125  15.775  1.00  0.00     0.015 C 
HETATM   13  C   UNL     1     -46.760 -51.339  14.190  1.00  0.00     0.015 C 
ENDBRANCH   1   5
BRANCH   3  14
HETATM   14  C   UNL     1     -41.534 -49.335  11.351  1.00  0.00     0.130 C 
BRANCH  14  15
HETATM   15  C   UNL     1     -40.346 -48.653  12.039  1.00  0.00     0.096 C 
BRANCH  15  16
HETATM   16  C   UNL     1     -39.104 -49.494  11.999  1.00  0.00     0.084 A 
HETATM   17  N   UNL     1     -38.316 -49.663  10.950  1.00  0.00    -0.354 N 
HETATM   18  C   UNL     1     -37.307 -50.489  11.366  1.00  0.00     0.106 A 
ATOM     19  HN  UNL     1     -38.436 -49.260  10.021  1.00  0.00     0.166 HD
HETATM   20  C   UNL     1     -37.482 -50.845  12.680  1.00  0.00     0.108 A 
HETATM   21  N   UNL     1     -38.627 -50.209  13.074  1.00  0.00    -0.350 N 
HETATM   22  C   UNL     1     -39.212 -50.291  14.392  1.00  0.00     0.156 C 
ENDBRANCH  15  16
ENDBRANCH  14  15
ENDBRANCH   3  14
TORSDOF 4
ENDMDL
MODEL 5
REMARK VINA RESULT:      -6.1      1.626      2.954
REMARK  4 active torsions:
REMARK  status: ('A' for Active; 'I' for Inactive)
REMARK    1  A    between atoms: C_4  and  C_10 
REMARK       I    between atoms: C_10  and  N_12 
REMARK    2  A    between atoms: N_12  and  C_13 
REMARK    3  A    between atoms: C_13  and  C_14 
REMARK    4  A    between atoms: C_14  and  C_15 
ROOT
HETATM    1  C   UNL     1     -42.080 -49.404  12.483  1.00  0.00     0.221 C 
HETATM    2  O   UNL     1     -41.436 -48.582  13.133  1.00  0.00    -0.273 OA
HETATM    3  N   UNL     1     -42.277 -49.270  11.128  1.00  0.00    -0.360 N 
HETATM    4  H   UNL     1     -42.540 -50.086  10.583  1.00  0.00     0.162 HD
ENDROOT
BRANCH   1   5
HETATM    5  C   UNL     1     -42.715 -50.654  13.101  1.00  0.00     0.079 C 
HETATM    6  C   UNL     1     -42.349 -51.910  12.294  1.00  0.00     0.018 C 
HETATM    7  C   UNL     1     -43.062 -53.187  12.767  1.00  0.00    -0.017 C 
HETATM    8  C   UNL     1     -42.403 -53.790  14.011  1.00  0.00     0.010 C 
HETATM    9  C   UNL     1     -44.573 -52.969  12.927  1.00  0.00     0.013 C 
HETATM   10  C   UNL     1     -44.998 -51.710  13.717  1.00  0.00    -0.047 C 
HETATM   11  C   UNL     1     -44.245 -50.480  13.171  1.00  0.00     0.022 C 
HETATM   12  C   UNL     1     -44.768 -51.865  15.231  1.00  0.00     0.015 C 
HETATM   13  C   UNL     1     -46.514 -51.498  13.512  1.00  0.00     0.015 C 
ENDBRANCH   1   5
BRANCH   3  14
HETATM   14  C   UNL     1     -41.683 -48.180  10.371  1.00  0.00     0.130 C 
BRANCH  14  15
HETATM   15  C   UNL     1     -42.616 -46.974  10.214  1.00  0.00     0.096 C 
BRANCH  15  16
HETATM   16  C   UNL     1     -43.951 -47.357   9.647  1.00  0.00     0.084 A 
HETATM   17  N   UNL     1     -45.107 -47.314  10.290  1.00  0.00    -0.354 N 
HETATM   18  C   UNL     1     -46.053 -47.734   9.393  1.00  0.00     0.106 A 
ATOM     19  HN  UNL     1     -45.261 -47.027  11.256  1.00  0.00     0.166 HD
HETATM   20  C   UNL     1     -45.473 -48.053   8.191  1.00  0.00     0.108 A 
HETATM   21  N   UNL     1     -44.138 -47.812   8.361  1.00  0.00    -0.350 N 
HETATM   22  C   UNL     1     -43.123 -48.008   7.354  1.00  0.00     0.156 C 
ENDBRANCH  15  16
ENDBRANCH  14  15
ENDBRANCH   3  14
TORSDOF 4
ENDMDL
MODEL 6
REMARK VINA RESULT:      -6.1      1.393      1.971
REMARK  4 active torsions:
REMARK  status: ('A' for Active; 'I' for Inactive)
REMARK    1  A    between atoms: C_4  and  C_10 
REMARK       I    between atoms: C_10  and  N_12 
REMARK    2  A    between atoms: N_12  and  C_13 
REMARK    3  A    between atoms: C_13  and  C_14 
REMARK    4  A    between atoms: C_14  and  C_15 
ROOT
HETATM    1  C   UNL     1     -42.041 -50.784  12.552  1.00  0.00     0.221 C 
HETATM    2  O   UNL     1     -40.891 -51.065  12.882  1.00  0.00    -0.273 OA
HETATM    3  N   UNL     1     -42.323 -49.742  11.698  1.00  0.00    -0.360 N 
HETATM    4  H   UNL     1     -43.218 -49.723  11.219  1.00  0.00     0.162 HD
ENDROOT
BRANCH   1   5
HETATM    5  C   UNL     1     -43.271 -51.557  13.043  1.00  0.00     0.079 C 
HETATM    6  C   UNL     1     -44.076 -50.723  14.052  1.00  0.00     0.018 C 
HETATM    7  C   UNL     1     -45.246 -51.482  14.697  1.00  0.00    -0.017 C 
HETATM    8  C   UNL     1     -46.467 -51.553  13.776  1.00  0.00     0.010 C 
HETATM    9  C   UNL     1     -44.810 -52.854  15.231  1.00  0.00     0.013 C 
HETATM   10  C   UNL     1     -43.982 -53.729  14.262  1.00  0.00    -0.047 C 
HETATM   11  C   UNL     1     -42.828 -52.893  13.671  1.00  0.00     0.022 C 
HETATM   12  C   UNL     1     -44.845 -54.338  13.142  1.00  0.00     0.015 C 
HETATM   13  C   UNL     1     -43.386 -54.908  15.062  1.00  0.00     0.015 C 
ENDBRANCH   1   5
BRANCH   3  14
HETATM   14  C   UNL     1     -41.270 -48.950  11.084  1.00  0.00     0.130 C 
BRANCH  14  15
HETATM   15  C   UNL     1     -41.795 -47.715  10.344  1.00  0.00     0.096 C 
BRANCH  15  16
HETATM   16  C   UNL     1     -41.078 -46.460  10.747  1.00  0.00     0.084 A 
HETATM   17  N   UNL     1     -40.013 -45.951  10.150  1.00  0.00    -0.354 N 
HETATM   18  C   UNL     1     -39.706 -44.807  10.838  1.00  0.00     0.106 A 
ATOM     19  HN  UNL     1     -39.521 -46.332   9.342  1.00  0.00     0.166 HD
HETATM   20  C   UNL     1     -40.582 -44.617  11.878  1.00  0.00     0.108 A 
HETATM   21  N   UNL     1     -41.449 -45.673  11.814  1.00  0.00    -0.350 N 
HETATM   22  C   UNL     1     -42.551 -45.899  12.719  1.00  0.00     0.156 C 
ENDBRANCH  15  16
ENDBRANCH  14  15
ENDBRANCH   3  14
TORSDOF 4
ENDMDL
MODEL 7
REMARK VINA RESULT:      -6.0      2.278      3.855
REMARK  4 active torsions:
REMARK  status: ('A' for Active; 'I' for Inactive)
REMARK    1  A    between atoms: C_4  and  C_10 
REMARK       I    between atoms: C_10  and  N_12 
REMARK    2  A    between atoms: N_12  and  C_13 
REMARK    3  A    between atoms: C_13  and  C_14 
REMARK    4  A    between atoms: C_14  and  C_15 
ROOT
HETATM    1  C   UNL     1     -41.888 -51.477  12.100  1.00  0.00     0.221 C 
HETATM    2  O   UNL     1     -40.906 -52.159  11.815  1.00  0.00    -0.273 OA
HETATM    3  N   UNL     1     -41.971 -50.142  11.775  1.00  0.00    -0.360 N 
HETATM    4  H   UNL     1     -42.882 -49.694  11.750  1.00  0.00     0.162 HD
ENDROOT
BRANCH   1   5
HETATM    5  C   UNL     1     -43.116 -52.033  12.832  1.00  0.00     0.079 C 
HETATM    6  C   UNL     1     -43.665 -51.007  13.836  1.00  0.00     0.018 C 
HETATM    7  C   UNL     1     -44.811 -51.541  14.711  1.00  0.00    -0.017 C 
HETATM    8  C   UNL     1     -46.151 -51.540  13.972  1.00  0.00     0.010 C 
HETATM    9  C   UNL     1     -44.464 -52.901  15.336  1.00  0.00     0.013 C 
HETATM   10  C   UNL     1     -43.891 -53.965  14.372  1.00  0.00    -0.047 C 
HETATM   11  C   UNL     1     -42.745 -53.347  13.544  1.00  0.00     0.022 C 
HETATM   12  C   UNL     1     -44.971 -54.561  13.451  1.00  0.00     0.015 C 
HETATM   13  C   UNL     1     -43.327 -55.129  15.215  1.00  0.00     0.015 C 
ENDBRANCH   1   5
BRANCH   3  14
HETATM   14  C   UNL     1     -40.926 -49.473  11.017  1.00  0.00     0.130 C 
BRANCH  14  15
HETATM   15  C   UNL     1     -39.934 -48.708  11.900  1.00  0.00     0.096 C 
BRANCH  15  16
HETATM   16  C   UNL     1     -38.858 -49.596  12.451  1.00  0.00     0.084 A 
HETATM   17  N   UNL     1     -38.213 -50.537  11.783  1.00  0.00    -0.354 N 
HETATM   18  C   UNL     1     -37.319 -51.081  12.666  1.00  0.00     0.106 A 
ATOM     19  HN  UNL     1     -38.353 -50.804  10.808  1.00  0.00     0.166 HD
HETATM   20  C   UNL     1     -37.424 -50.479  13.895  1.00  0.00     0.108 A 
HETATM   21  N   UNL     1     -38.405 -49.538  13.750  1.00  0.00    -0.350 N 
HETATM   22  C   UNL     1     -38.867 -48.652  14.792  1.00  0.00     0.156 C 
ENDBRANCH  15  16
ENDBRANCH  14  15
ENDBRANCH   3  14
TORSDOF 4
ENDMDL
MODEL 8
REMARK VINA RESULT:      -5.8      1.959      3.143
REMARK  4 active torsions:
REMARK  status: ('A' for Active; 'I' for Inactive)
REMARK    1  A    between atoms: C_4  and  C_10 
REMARK       I    between atoms: C_10  and  N_12 
REMARK    2  A    between atoms: N_12  and  C_13 
REMARK    3  A    between atoms: C_13  and  C_14 
REMARK    4  A    between atoms: C_14  and  C_15 
ROOT
HETATM    1  C   UNL     1     -42.021 -50.273  12.288  1.00  0.00     0.221 C 
HETATM    2  O   UNL     1     -42.538 -49.253  11.834  1.00  0.00    -0.273 OA
HETATM    3  N   UNL     1     -40.684 -50.551  12.120  1.00  0.00    -0.360 N 
HETATM    4  H   UNL     1     -40.236 -51.218  12.741  1.00  0.00     0.162 HD
ENDROOT
BRANCH   1   5
HETATM    5  C   UNL     1     -42.797 -51.326  13.087  1.00  0.00     0.079 C 
HETATM    6  C   UNL     1     -42.761 -52.688  12.375  1.00  0.00     0.018 C 
HETATM    7  C   UNL     1     -43.635 -53.764  13.041  1.00  0.00    -0.017 C 
HETATM    8  C   UNL     1     -42.957 -54.382  14.266  1.00  0.00     0.010 C 
HETATM    9  C   UNL     1     -45.053 -53.248  13.328  1.00  0.00     0.013 C 
HETATM   10  C   UNL     1     -45.147 -51.874  14.028  1.00  0.00    -0.047 C 
HETATM   11  C   UNL     1     -44.251 -50.857  13.290  1.00  0.00     0.022 C 
HETATM   12  C   UNL     1     -44.775 -51.950  15.520  1.00  0.00     0.015 C 
HETATM   13  C   UNL     1     -46.613 -51.392  13.955  1.00  0.00     0.015 C 
ENDBRANCH   1   5
BRANCH   3  14
HETATM   14  C   UNL     1     -39.787 -49.623  11.449  1.00  0.00     0.130 C 
BRANCH  14  15
HETATM   15  C   UNL     1     -39.384 -48.431  12.324  1.00  0.00     0.096 C 
BRANCH  15  16
HETATM   16  C   UNL     1     -39.870 -47.125  11.768  1.00  0.00     0.084 A 
HETATM   17  N   UNL     1     -40.513 -46.962  10.624  1.00  0.00    -0.354 N 
HETATM   18  C   UNL     1     -40.771 -45.621  10.524  1.00  0.00     0.106 A 
ATOM     19  HN  UNL     1     -40.765 -47.687   9.952  1.00  0.00     0.166 HD
HETATM   20  C   UNL     1     -40.269 -44.949  11.610  1.00  0.00     0.108 A 
HETATM   21  N   UNL     1     -39.697 -45.912  12.395  1.00  0.00    -0.350 N 
HETATM   22  C   UNL     1     -39.034 -45.672  13.655  1.00  0.00     0.156 C 
ENDBRANCH  15  16
ENDBRANCH  14  15
ENDBRANCH   3  14
TORSDOF 4
ENDMDL
MODEL 9
REMARK VINA RESULT:      -5.8      1.636      2.975
REMARK  4 active torsions:
REMARK  status: ('A' for Active; 'I' for Inactive)
REMARK    1  A    between atoms: C_4  and  C_10 
REMARK       I    between atoms: C_10  and  N_12 
REMARK    2  A    between atoms: N_12  and  C_13 
REMARK    3  A    between atoms: C_13  and  C_14 
REMARK    4  A    between atoms: C_14  and  C_15 
ROOT
HETATM    1  C   UNL     1     -41.781 -51.817  12.484  1.00  0.00     0.221 C 
HETATM    2  O   UNL     1     -40.769 -52.505  12.358  1.00  0.00    -0.273 OA
HETATM    3  N   UNL     1     -41.889 -50.566  11.921  1.00  0.00    -0.360 N 
HETATM    4  H   UNL     1     -42.811 -50.162  11.786  1.00  0.00     0.162 HD
ENDROOT
BRANCH   1   5
HETATM    5  C   UNL     1     -43.018 -52.275  13.264  1.00  0.00     0.079 C 
HETATM    6  C   UNL     1     -43.125 -53.808  13.270  1.00  0.00     0.018 C 
HETATM    7  C   UNL     1     -44.415 -54.343  13.912  1.00  0.00    -0.017 C 
HETATM    8  C   UNL     1     -44.345 -54.338  15.441  1.00  0.00     0.010 C 
HETATM    9  C   UNL     1     -45.661 -53.634  13.360  1.00  0.00     0.013 C 
HETATM   10  C   UNL     1     -45.601 -52.090  13.316  1.00  0.00    -0.047 C 
HETATM   11  C   UNL     1     -44.283 -51.644  12.649  1.00  0.00     0.022 C 
HETATM   12  C   UNL     1     -45.749 -51.459  14.712  1.00  0.00     0.015 C 
HETATM   13  C   UNL     1     -46.787 -51.583  12.466  1.00  0.00     0.015 C 
ENDBRANCH   1   5
BRANCH   3  14
HETATM   14  C   UNL     1     -40.835 -50.008  11.088  1.00  0.00     0.130 C 
BRANCH  14  15
HETATM   15  C   UNL     1     -39.933 -49.020  11.836  1.00  0.00     0.096 C 
BRANCH  15  16
HETATM   16  C   UNL     1     -40.275 -47.591  11.530  1.00  0.00     0.084 A 
HETATM   17  N   UNL     1     -40.864 -47.155  10.429  1.00  0.00    -0.354 N 
HETATM   18  C   UNL     1     -40.991 -45.800  10.581  1.00  0.00     0.106 A 
ATOM     19  HN  UNL     1     -41.163 -47.713   9.630  1.00  0.00     0.166 HD
HETATM   20  C   UNL     1     -40.461 -45.395  11.781  1.00  0.00     0.108 A 
HETATM   21  N   UNL     1     -40.007 -46.540  12.377  1.00  0.00    -0.350 N 
HETATM   22  C   UNL     1     -39.364 -46.606  13.667  1.00  0.00     0.156 C 
ENDBRANCH  15  16
ENDBRANCH  14  15
ENDBRANCH   3  14
TORSDOF 4
ENDMDL
