MODEL 1
REMARK VINA RESULT:      -6.3      0.000      0.000
REMARK  6 active torsions:
REMARK  status: ('A' for Active; 'I' for Inactive)
REMARK    1  A    between atoms: C_2  and  C_4 
REMARK    2  A    between atoms: C_4  and  C_7 
REMARK    3  A    between atoms: C_7  and  O_8 
REMARK    4  A    between atoms: O_8  and  C_9 
REMARK    5  A    between atoms: C_12  and  N_13 
REMARK    6  A    between atoms: N_13  and  C_14 
ROOT
HETATM    1  C   UNL     1     -42.022 -48.083  10.679  1.00  0.00     0.142 A 
HETATM    2  C   UNL     1     -41.232 -47.045  11.126  1.00  0.00     0.058 A 
HETATM    3  C   UNL     1     -40.254 -47.323  12.078  1.00  0.00     0.035 A 
HETATM    4  C   UNL     1     -40.077 -48.620  12.573  1.00  0.00     0.044 A 
HETATM    5  C   UNL     1     -40.938 -49.585  12.044  1.00  0.00     0.119 A 
HETATM    6  N   UNL     1     -41.913 -49.353  11.118  1.00  0.00    -0.345 N 
ATOM      7  HN  UNL     1     -42.523 -50.096  10.777  1.00  0.00     0.167 HD
ENDROOT
BRANCH   1   8
HETATM    8  O   UNL     1     -42.910 -47.760   9.679  1.00  0.00    -0.330 OA
BRANCH   8   9
HETATM    9  C   UNL     1     -44.262 -47.593  10.125  1.00  0.00     0.262 C 
BRANCH   9  10
HETATM   10  C   UNL     1     -45.144 -47.469   8.889  1.00  0.00     0.322 C 
HETATM   11  F   UNL     1     -44.471 -47.905   7.786  1.00  0.00    -0.198 F 
HETATM   12  F   UNL     1     -45.432 -46.156   8.651  1.00  0.00    -0.198 F 
BRANCH  10  13
HETATM   13  C   UNL     1     -46.442 -48.243   9.027  1.00  0.00     0.427 C 
HETATM   14  F   UNL     1     -47.506 -47.402   9.082  1.00  0.00    -0.208 F 
HETATM   15  F   UNL     1     -46.644 -49.043   7.945  1.00  0.00    -0.208 F 
ENDBRANCH  10  13
ENDBRANCH   9  10
ENDBRANCH   8   9
ENDBRANCH   1   8
BRANCH   4  16
HETATM   16  N   UNL     1     -39.005 -48.856  13.421  1.00  0.00    -0.382 N 
HETATM   17  H   UNL     1     -39.285 -49.048  14.381  1.00  0.00     0.160 HD
BRANCH  16  18
HETATM   18  C   UNL     1     -37.752 -49.485  13.024  1.00  0.00     0.107 C 
HETATM   19  C   UNL     1     -37.545 -49.475  11.518  1.00  0.00     0.053 C 
HETATM   20  C   UNL     1     -37.110 -50.885  11.159  1.00  0.00     0.169 C 
HETATM   21  O   UNL     1     -36.957 -51.619  12.377  1.00  0.00    -0.389 OA
HETATM   22  C   UNL     1     -37.777 -50.977  13.354  1.00  0.00     0.192 C 
ENDBRANCH  16  18
ENDBRANCH   4  16
TORSDOF 6
ENDMDL
MODEL 2
REMARK VINA RESULT:      -6.1      1.930      2.480
REMARK  6 active torsions:
REMARK  status: ('A' for Active; 'I' for Inactive)
REMARK    1  A    between atoms: C_2  and  C_4 
REMARK    2  A    between atoms: C_4  and  C_7 
REMARK    3  A    between atoms: C_7  and  O_8 
REMARK    4  A    between atoms: O_8  and  C_9 
REMARK    5  A    between atoms: C_12  and  N_13 
REMARK    6  A    between atoms: N_13  and  C_14 
ROOT
HETATM    1  C   UNL     1     -42.694 -47.949  10.511  1.00  0.00     0.142 A 
HETATM    2  C   UNL     1     -43.146 -48.188  11.791  1.00  0.00     0.058 A 
HETATM    3  C   UNL     1     -42.404 -49.040  12.604  1.00  0.00     0.035 A 
HETATM    4  C   UNL     1     -41.231 -49.643  12.138  1.00  0.00     0.044 A 
HETATM    5  C   UNL     1     -40.876 -49.324  10.824  1.00  0.00     0.119 A 
HETATM    6  N   UNL     1     -41.579 -48.501   9.993  1.00  0.00    -0.345 N 
ATOM      7  HN  UNL     1     -41.278 -48.315   9.036  1.00  0.00     0.167 HD
ENDROOT
BRANCH   1   8
HETATM    8  O   UNL     1     -43.425 -47.034   9.788  1.00  0.00    -0.330 OA
BRANCH   8   9
HETATM    9  C   UNL     1     -44.010 -47.563   8.591  1.00  0.00     0.262 C 
BRANCH   9  10
HETATM   10  C   UNL     1     -45.517 -47.636   8.808  1.00  0.00     0.322 C 
HETATM   11  F   UNL     1     -46.060 -46.387   8.765  1.00  0.00    -0.198 F 
HETATM   12  F   UNL     1     -45.785 -48.112  10.060  1.00  0.00    -0.198 F 
BRANCH  10  13
HETATM   13  C   UNL     1     -46.204 -48.522   7.785  1.00  0.00     0.427 C 
HETATM   14  F   UNL     1     -45.311 -49.004   6.882  1.00  0.00    -0.208 F 
HETATM   15  F   UNL     1     -46.763 -49.607   8.384  1.00  0.00    -0.208 F 
ENDBRANCH  10  13
ENDBRANCH   9  10
ENDBRANCH   8   9
ENDBRANCH   1   8
BRANCH   4  16
HETATM   16  N   UNL     1     -40.470 -50.377  13.035  1.00  0.00    -0.382 N 
HETATM   17  H   UNL     1     -40.785 -50.287  14.000  1.00  0.00     0.160 HD
BRANCH  16  18
HETATM   18  C   UNL     1     -39.819 -51.645  12.733  1.00  0.00     0.107 C 
HETATM   19  C   UNL     1     -40.810 -52.785  12.565  1.00  0.00     0.053 C 
HETATM   20  C   UNL     1     -40.248 -53.934  13.385  1.00  0.00     0.169 C 
HETATM   21  O   UNL     1     -38.971 -53.531  13.885  1.00  0.00    -0.389 OA
HETATM   22  C   UNL     1     -38.969 -52.103  13.918  1.00  0.00     0.192 C 
ENDBRANCH  16  18
ENDBRANCH   4  16
TORSDOF 6
ENDMDL
MODEL 3
REMARK VINA RESULT:      -6.0      3.682      4.567
REMARK  6 active torsions:
REMARK  status: ('A' for Active; 'I' for Inactive)
REMARK    1  A    between atoms: C_2  and  C_4 
REMARK    2  A    between atoms: C_4  and  C_7 
REMARK    3  A    between atoms: C_7  and  O_8 
REMARK    4  A    between atoms: O_8  and  C_9 
REMARK    5  A    between atoms: C_12  and  N_13 
REMARK    6  A    between atoms: N_13  and  C_14 
ROOT
HETATM    1  C   UNL     1     -42.096 -49.051  11.440  1.00  0.00     0.142 A 
HETATM    2  C   UNL     1     -43.111 -49.016  12.372  1.00  0.00     0.058 A 
HETATM    3  C   UNL     1     -43.290 -50.127  13.193  1.00  0.00     0.035 A 
HETATM    4  C   UNL     1     -42.465 -51.251  13.077  1.00  0.00     0.044 A 
HETATM    5  C   UNL     1     -41.473 -51.166  12.096  1.00  0.00     0.119 A 
HETATM    6  N   UNL     1     -41.270 -50.101  11.267  1.00  0.00    -0.345 N 
ATOM      7  HN  UNL     1     -40.537 -50.101  10.558  1.00  0.00     0.167 HD
ENDROOT
BRANCH   1   8
HETATM    8  O   UNL     1     -41.918 -47.892  10.719  1.00  0.00    -0.330 OA
BRANCH   8   9
HETATM    9  C   UNL     1     -43.114 -47.121  10.541  1.00  0.00     0.262 C 
BRANCH   9  10
HETATM   10  C   UNL     1     -43.494 -47.192   9.067  1.00  0.00     0.322 C 
HETATM   11  F   UNL     1     -42.753 -48.147   8.436  1.00  0.00    -0.198 F 
HETATM   12  F   UNL     1     -43.182 -46.015   8.449  1.00  0.00    -0.198 F 
BRANCH  10  13
HETATM   13  C   UNL     1     -44.970 -47.481   8.865  1.00  0.00     0.427 C 
HETATM   14  F   UNL     1     -45.156 -48.387   7.871  1.00  0.00    -0.208 F 
HETATM   15  F   UNL     1     -45.510 -48.030   9.986  1.00  0.00    -0.208 F 
ENDBRANCH  10  13
ENDBRANCH   9  10
ENDBRANCH   8   9
ENDBRANCH   1   8
BRANCH   4  16
HETATM   16  N   UNL     1     -42.611 -52.269  14.007  1.00  0.00    -0.382 N 
HETATM   17  H   UNL     1     -42.935 -51.942  14.916  1.00  0.00     0.160 HD
BRANCH  16  18
HETATM   18  C   UNL     1     -42.995 -53.638  13.689  1.00  0.00     0.107 C 
HETATM   19  C   UNL     1     -44.290 -53.712  12.896  1.00  0.00     0.053 C 
HETATM   20  C   UNL     1     -45.121 -54.787  13.575  1.00  0.00     0.169 C 
HETATM   21  O   UNL     1     -44.320 -55.375  14.603  1.00  0.00    -0.389 OA
HETATM   22  C   UNL     1     -43.334 -54.406  14.966  1.00  0.00     0.192 C 
ENDBRANCH  16  18
ENDBRANCH   4  16
TORSDOF 6
ENDMDL
MODEL 4
REMARK VINA RESULT:      -6.0      4.975      5.816
REMARK  6 active torsions:
REMARK  status: ('A' for Active; 'I' for Inactive)
REMARK    1  A    between atoms: C_2  and  C_4 
REMARK    2  A    between atoms: C_4  and  C_7 
REMARK    3  A    between atoms: C_7  and  O_8 
REMARK    4  A    between atoms: O_8  and  C_9 
REMARK    5  A    between atoms: C_12  and  N_13 
REMARK    6  A    between atoms: N_13  and  C_14 
ROOT
HETATM    1  C   UNL     1     -43.435 -53.633  12.618  1.00  0.00     0.142 A 
HETATM    2  C   UNL     1     -42.719 -54.207  13.647  1.00  0.00     0.058 A 
HETATM    3  C   UNL     1     -41.409 -53.783  13.856  1.00  0.00     0.035 A 
HETATM    4  C   UNL     1     -40.829 -52.803  13.043  1.00  0.00     0.044 A 
HETATM    5  C   UNL     1     -41.654 -52.298  12.033  1.00  0.00     0.119 A 
HETATM    6  N   UNL     1     -42.938 -52.692  11.791  1.00  0.00    -0.345 N 
ATOM      7  HN  UNL     1     -43.489 -52.297  11.029  1.00  0.00     0.167 HD
ENDROOT
BRANCH   1   8
HETATM    8  O   UNL     1     -44.747 -54.033  12.518  1.00  0.00    -0.330 OA
BRANCH   8   9
HETATM    9  C   UNL     1     -45.440 -54.095  13.771  1.00  0.00     0.262 C 
BRANCH   9  10
HETATM   10  C   UNL     1     -46.419 -52.928  13.815  1.00  0.00     0.322 C 
HETATM   11  F   UNL     1     -47.567 -53.301  14.448  1.00  0.00    -0.198 F 
HETATM   12  F   UNL     1     -46.791 -52.584  12.547  1.00  0.00    -0.198 F 
BRANCH  10  13
HETATM   13  C   UNL     1     -45.834 -51.710  14.507  1.00  0.00     0.427 C 
HETATM   14  F   UNL     1     -45.251 -50.875  13.610  1.00  0.00    -0.208 F 
HETATM   15  F   UNL     1     -46.811 -50.988  15.119  1.00  0.00    -0.208 F 
ENDBRANCH  10  13
ENDBRANCH   9  10
ENDBRANCH   8   9
ENDBRANCH   1   8
BRANCH   4  16
HETATM   16  N   UNL     1     -39.569 -52.333  13.381  1.00  0.00    -0.382 N 
HETATM   17  H   UNL     1     -38.832 -53.024  13.248  1.00  0.00     0.160 HD
BRANCH  16  18
HETATM   18  C   UNL     1     -39.130 -50.951  13.237  1.00  0.00     0.107 C 
HETATM   19  C   UNL     1     -37.634 -50.788  13.456  1.00  0.00     0.053 C 
HETATM   20  C   UNL     1     -37.488 -49.598  14.389  1.00  0.00     0.169 C 
HETATM   21  O   UNL     1     -38.789 -49.040  14.593  1.00  0.00    -0.389 OA
HETATM   22  C   UNL     1     -39.732 -50.084  14.341  1.00  0.00     0.192 C 
ENDBRANCH  16  18
ENDBRANCH   4  16
TORSDOF 6
ENDMDL
MODEL 5
REMARK VINA RESULT:      -5.9      1.669      2.121
REMARK  6 active torsions:
REMARK  status: ('A' for Active; 'I' for Inactive)
REMARK    1  A    between atoms: C_2  and  C_4 
REMARK    2  A    between atoms: C_4  and  C_7 
REMARK    3  A    between atoms: C_7  and  O_8 
REMARK    4  A    between atoms: O_8  and  C_9 
REMARK    5  A    between atoms: C_12  and  N_13 
REMARK    6  A    between atoms: N_13  and  C_14 
ROOT
HETATM    1  C   UNL     1     -41.967 -47.154  10.369  1.00  0.00     0.142 A 
HETATM    2  C   UNL     1     -41.972 -48.472  10.774  1.00  0.00     0.058 A 
HETATM    3  C   UNL     1     -40.837 -48.970  11.411  1.00  0.00     0.035 A 
HETATM    4  C   UNL     1     -39.720 -48.158  11.633  1.00  0.00     0.044 A 
HETATM    5  C   UNL     1     -39.835 -46.842  11.176  1.00  0.00     0.119 A 
HETATM    6  N   UNL     1     -40.924 -46.319  10.542  1.00  0.00    -0.345 N 
ATOM      7  HN  UNL     1     -40.947 -45.352  10.218  1.00  0.00     0.167 HD
ENDROOT
BRANCH   1   8
HETATM    8  O   UNL     1     -43.147 -46.701   9.823  1.00  0.00    -0.330 OA
BRANCH   8   9
HETATM    9  C   UNL     1     -44.283 -47.527  10.111  1.00  0.00     0.262 C 
BRANCH   9  10
HETATM   10  C   UNL     1     -45.201 -47.489   8.895  1.00  0.00     0.322 C 
HETATM   11  F   UNL     1     -44.545 -47.957   7.796  1.00  0.00    -0.198 F 
HETATM   12  F   UNL     1     -45.534 -46.197   8.604  1.00  0.00    -0.198 F 
BRANCH  10  13
HETATM   13  C   UNL     1     -46.471 -48.292   9.107  1.00  0.00     0.427 C 
HETATM   14  F   UNL     1     -47.560 -47.483   9.130  1.00  0.00    -0.208 F 
HETATM   15  F   UNL     1     -46.666 -49.164   8.081  1.00  0.00    -0.208 F 
ENDBRANCH  10  13
ENDBRANCH   9  10
ENDBRANCH   8   9
ENDBRANCH   1   8
BRANCH   4  16
HETATM   16  N   UNL     1     -38.675 -48.674  12.384  1.00  0.00    -0.382 N 
HETATM   17  H   UNL     1     -37.775 -48.631  11.907  1.00  0.00     0.160 HD
BRANCH  16  18
HETATM   18  C   UNL     1     -38.587 -48.619  13.837  1.00  0.00     0.107 C 
HETATM   19  C   UNL     1     -37.832 -47.394  14.330  1.00  0.00     0.053 C 
HETATM   20  C   UNL     1     -36.858 -47.911  15.374  1.00  0.00     0.169 C 
HETATM   21  O   UNL     1     -37.116 -49.305  15.561  1.00  0.00    -0.389 OA
HETATM   22  C   UNL     1     -37.739 -49.775  14.364  1.00  0.00     0.192 C 
ENDBRANCH  16  18
ENDBRANCH   4  16
TORSDOF 6
ENDMDL
MODEL 6
REMARK VINA RESULT:      -5.9      6.667      8.774
REMARK  6 active torsions:
REMARK  status: ('A' for Active; 'I' for Inactive)
REMARK    1  A    between atoms: C_2  and  C_4 
REMARK    2  A    between atoms: C_4  and  C_7 
REMARK    3  A    between atoms: C_7  and  O_8 
REMARK    4  A    between atoms: O_8  and  C_9 
REMARK    5  A    between atoms: C_12  and  N_13 
REMARK    6  A    between atoms: N_13  and  C_14 
ROOT
HETATM    1  C   UNL     1     -41.667 -53.211  12.674  1.00  0.00     0.142 A 
HETATM    2  C   UNL     1     -41.743 -54.035  13.777  1.00  0.00     0.058 A 
HETATM    3  C   UNL     1     -42.998 -54.494  14.171  1.00  0.00     0.035 A 
HETATM    4  C   UNL     1     -44.153 -54.129  13.472  1.00  0.00     0.044 A 
HETATM    5  C   UNL     1     -43.947 -53.290  12.373  1.00  0.00     0.119 A 
HETATM    6  N   UNL     1     -42.738 -52.813  11.959  1.00  0.00    -0.345 N 
ATOM      7  HN  UNL     1     -42.649 -52.190  11.155  1.00  0.00     0.167 HD
ENDROOT
BRANCH   1   8
HETATM    8  O   UNL     1     -40.394 -52.861  12.286  1.00  0.00    -0.330 OA
BRANCH   8   9
HETATM    9  C   UNL     1     -40.018 -51.524  12.640  1.00  0.00     0.262 C 
BRANCH   9  10
HETATM   10  C   UNL     1     -38.888 -51.616  13.657  1.00  0.00     0.322 C 
HETATM   11  F   UNL     1     -38.512 -52.916  13.827  1.00  0.00    -0.198 F 
HETATM   12  F   UNL     1     -39.326 -51.196  14.881  1.00  0.00    -0.198 F 
BRANCH  10  13
HETATM   13  C   UNL     1     -37.680 -50.790  13.254  1.00  0.00     0.427 C 
HETATM   14  F   UNL     1     -36.918 -50.483  14.334  1.00  0.00    -0.208 F 
HETATM   15  F   UNL     1     -36.878 -51.491  12.408  1.00  0.00    -0.208 F 
ENDBRANCH  10  13
ENDBRANCH   9  10
ENDBRANCH   8   9
ENDBRANCH   1   8
BRANCH   4  16
HETATM   16  N   UNL     1     -45.353 -54.721  13.836  1.00  0.00    -0.382 N 
HETATM   17  H   UNL     1     -45.288 -55.732  13.945  1.00  0.00     0.160 HD
BRANCH  16  18
HETATM   18  C   UNL     1     -46.374 -54.092  14.664  1.00  0.00     0.107 C 
HETATM   19  C   UNL     1     -46.698 -52.675  14.218  1.00  0.00     0.053 C 
HETATM   20  C   UNL     1     -46.696 -51.840  15.486  1.00  0.00     0.169 C 
HETATM   21  O   UNL     1     -46.510 -52.726  16.593  1.00  0.00    -0.389 OA
HETATM   22  C   UNL     1     -45.855 -53.890  16.087  1.00  0.00     0.192 C 
ENDBRANCH  16  18
ENDBRANCH   4  16
TORSDOF 6
ENDMDL
MODEL 7
REMARK VINA RESULT:      -5.7      4.133      5.701
REMARK  6 active torsions:
REMARK  status: ('A' for Active; 'I' for Inactive)
REMARK    1  A    between atoms: C_2  and  C_4 
REMARK    2  A    between atoms: C_4  and  C_7 
REMARK    3  A    between atoms: C_7  and  O_8 
REMARK    4  A    between atoms: O_8  and  C_9 
REMARK    5  A    between atoms: C_12  and  N_13 
REMARK    6  A    between atoms: N_13  and  C_14 
ROOT
HETATM    1  C   UNL     1     -41.803 -46.472  10.581  1.00  0.00     0.142 A 
HETATM    2  C   UNL     1     -42.555 -45.566  11.299  1.00  0.00     0.058 A 
HETATM    3  C   UNL     1     -42.012 -44.307  11.545  1.00  0.00     0.035 A 
HETATM    4  C   UNL     1     -40.737 -43.968  11.081  1.00  0.00     0.044 A 
HETATM    5  C   UNL     1     -40.074 -44.970  10.366  1.00  0.00     0.119 A 
HETATM    6  N   UNL     1     -40.567 -46.216  10.111  1.00  0.00    -0.345 N 
ATOM      7  HN  UNL     1     -40.030 -46.914   9.595  1.00  0.00     0.167 HD
ENDROOT
BRANCH   1   8
HETATM    8  O   UNL     1     -42.429 -47.665  10.300  1.00  0.00    -0.330 OA
BRANCH   8   9
HETATM    9  C   UNL     1     -43.858 -47.579  10.239  1.00  0.00     0.262 C 
BRANCH   9  10
HETATM   10  C   UNL     1     -44.250 -47.424   8.775  1.00  0.00     0.322 C 
HETATM   11  F   UNL     1     -43.385 -48.116   7.981  1.00  0.00    -0.198 F 
HETATM   12  F   UNL     1     -44.132 -46.117   8.397  1.00  0.00    -0.198 F 
BRANCH  10  13
HETATM   13  C   UNL     1     -45.668 -47.891   8.505  1.00  0.00     0.427 C 
HETATM   14  F   UNL     1     -45.694 -48.823   7.518  1.00  0.00    -0.208 F 
HETATM   15  F   UNL     1     -46.197 -48.489   9.606  1.00  0.00    -0.208 F 
ENDBRANCH  10  13
ENDBRANCH   9  10
ENDBRANCH   8   9
ENDBRANCH   1   8
BRANCH   4  16
HETATM   16  N   UNL     1     -40.307 -42.660  11.247  1.00  0.00    -0.382 N 
HETATM   17  H   UNL     1     -40.165 -42.167  10.367  1.00  0.00     0.160 HD
BRANCH  16  18
HETATM   18  C   UNL     1     -40.670 -41.799  12.365  1.00  0.00     0.107 C 
HETATM   19  C   UNL     1     -40.466 -40.324  12.057  1.00  0.00     0.053 C 
HETATM   20  C   UNL     1     -39.740 -39.755  13.263  1.00  0.00     0.169 C 
HETATM   21  O   UNL     1     -39.642 -40.791  14.245  1.00  0.00    -0.389 OA
HETATM   22  C   UNL     1     -39.729 -42.034  13.546  1.00  0.00     0.192 C 
ENDBRANCH  16  18
ENDBRANCH   4  16
TORSDOF 6
ENDMDL
MODEL 8
REMARK VINA RESULT:      -5.7      4.374      6.275
REMARK  6 active torsions:
REMARK  status: ('A' for Active; 'I' for Inactive)
REMARK    1  A    between atoms: C_2  and  C_4 
REMARK    2  A    between atoms: C_4  and  C_7 
REMARK    3  A    between atoms: C_7  and  O_8 
REMARK    4  A    between atoms: O_8  and  C_9 
REMARK    5  A    between atoms: C_12  and  N_13 
REMARK    6  A    between atoms: N_13  and  C_14 
ROOT
HETATM    1  C   UNL     1     -42.621 -51.531  12.719  1.00  0.00     0.142 A 
HETATM    2  C   UNL     1     -43.385 -50.499  13.220  1.00  0.00     0.058 A 
HETATM    3  C   UNL     1     -43.084 -49.200  12.817  1.00  0.00     0.035 A 
HETATM    4  C   UNL     1     -42.032 -48.945  11.930  1.00  0.00     0.044 A 
HETATM    5  C   UNL     1     -41.331 -50.073  11.492  1.00  0.00     0.119 A 
HETATM    6  N   UNL     1     -41.589 -51.359  11.869  1.00  0.00    -0.345 N 
ATOM      7  HN  UNL     1     -41.034 -52.143  11.527  1.00  0.00     0.167 HD
ENDROOT
BRANCH   1   8
HETATM    8  O   UNL     1     -43.022 -52.794  13.088  1.00  0.00    -0.330 OA
BRANCH   8   9
HETATM    9  C   UNL     1     -44.197 -53.260  12.411  1.00  0.00     0.262 C 
BRANCH   9  10
HETATM   10  C   UNL     1     -45.287 -53.455  13.458  1.00  0.00     0.322 C 
HETATM   11  F   UNL     1     -44.774 -53.280  14.708  1.00  0.00    -0.198 F 
HETATM   12  F   UNL     1     -45.742 -54.742  13.421  1.00  0.00    -0.198 F 
BRANCH  10  13
HETATM   13  C   UNL     1     -46.457 -52.510  13.255  1.00  0.00     0.427 C 
HETATM   14  F   UNL     1     -46.512 -51.585  14.247  1.00  0.00    -0.208 F 
HETATM   15  F   UNL     1     -46.318 -51.814  12.094  1.00  0.00    -0.208 F 
ENDBRANCH  10  13
ENDBRANCH   9  10
ENDBRANCH   8   9
ENDBRANCH   1   8
BRANCH   4  16
HETATM   16  N   UNL     1     -41.865 -47.648  11.468  1.00  0.00    -0.382 N 
HETATM   17  H   UNL     1     -40.955 -47.487  11.038  1.00  0.00     0.160 HD
BRANCH  16  18
HETATM   18  C   UNL     1     -42.933 -46.805  10.946  1.00  0.00     0.107 C 
HETATM   19  C   UNL     1     -43.620 -47.416   9.735  1.00  0.00     0.053 C 
HETATM   20  C   UNL     1     -43.711 -46.295   8.713  1.00  0.00     0.169 C 
HETATM   21  O   UNL     1     -43.229 -45.100   9.331  1.00  0.00    -0.389 OA
HETATM   22  C   UNL     1     -42.360 -45.502  10.392  1.00  0.00     0.192 C 
ENDBRANCH  16  18
ENDBRANCH   4  16
TORSDOF 6
ENDMDL
MODEL 9
REMARK VINA RESULT:      -5.7      4.011      7.237
REMARK  6 active torsions:
REMARK  status: ('A' for Active; 'I' for Inactive)
REMARK    1  A    between atoms: C_2  and  C_4 
REMARK    2  A    between atoms: C_4  and  C_7 
REMARK    3  A    between atoms: C_7  and  O_8 
REMARK    4  A    between atoms: O_8  and  C_9 
REMARK    5  A    between atoms: C_12  and  N_13 
REMARK    6  A    between atoms: N_13  and  C_14 
ROOT
HETATM    1  C   UNL     1     -40.703 -47.586  12.160  1.00  0.00     0.142 A 
HETATM    2  C   UNL     1     -40.349 -46.669  11.194  1.00  0.00     0.058 A 
HETATM    3  C   UNL     1     -41.360 -46.093  10.429  1.00  0.00     0.035 A 
HETATM    4  C   UNL     1     -42.701 -46.436  10.629  1.00  0.00     0.044 A 
HETATM    5  C   UNL     1     -42.934 -47.378  11.636  1.00  0.00     0.119 A 
HETATM    6  N   UNL     1     -41.972 -47.970  12.401  1.00  0.00    -0.345 N 
ATOM      7  HN  UNL     1     -42.200 -48.663  13.114  1.00  0.00     0.167 HD
ENDROOT
BRANCH   1   8
HETATM    8  O   UNL     1     -39.668 -48.054  12.937  1.00  0.00    -0.330 OA
BRANCH   8   9
HETATM    9  C   UNL     1     -39.801 -49.427  13.328  1.00  0.00     0.262 C 
BRANCH   9  10
HETATM   10  C   UNL     1     -39.107 -50.277  12.271  1.00  0.00     0.322 C 
HETATM   11  F   UNL     1     -39.724 -50.124  11.065  1.00  0.00    -0.198 F 
HETATM   12  F   UNL     1     -39.231 -51.601  12.583  1.00  0.00    -0.198 F 
BRANCH  10  13
HETATM   13  C   UNL     1     -37.635 -49.937  12.132  1.00  0.00     0.427 C 
HETATM   14  F   UNL     1     -36.861 -51.030  12.349  1.00  0.00    -0.208 F 
HETATM   15  F   UNL     1     -37.355 -49.516  10.869  1.00  0.00    -0.208 F 
ENDBRANCH  10  13
ENDBRANCH   9  10
ENDBRANCH   8   9
ENDBRANCH   1   8
BRANCH   4  16
HETATM   16  N   UNL     1     -43.669 -45.735   9.925  1.00  0.00    -0.382 N 
HETATM   17  H   UNL     1     -43.501 -44.730   9.900  1.00  0.00     0.160 HD
BRANCH  16  18
HETATM   18  C   UNL     1     -44.399 -46.251   8.774  1.00  0.00     0.107 C 
HETATM   19  C   UNL     1     -45.748 -46.839   9.154  1.00  0.00     0.053 C 
HETATM   20  C   UNL     1     -45.826 -48.173   8.433  1.00  0.00     0.169 C 
HETATM   21  O   UNL     1     -44.668 -48.291   7.603  1.00  0.00    -0.389 OA
HETATM   22  C   UNL     1     -43.664 -47.447   8.170  1.00  0.00     0.192 C 
ENDBRANCH  16  18
ENDBRANCH   4  16
TORSDOF 6
ENDMDL
