MODEL 1
REMARK VINA RESULT:      -6.5      0.000      0.000
REMARK  4 active torsions:
REMARK  status: ('A' for Active; 'I' for Inactive)
REMARK       I    between atoms: C_2  and  N_3 
REMARK    1  A    between atoms: C_2  and  C_13 
REMARK    2  A    between atoms: N_3  and  C_4 
REMARK    3  A    between atoms: C_4  and  C_5 
REMARK    4  A    between atoms: C_5  and  C_6 
REMARK       I    between atoms: N_17  and  C_19 
REMARK       I    between atoms: C_19  and  N_21 
ROOT
HETATM    1  C   UNL     1     -44.758 -52.702  13.013  1.00  0.00     0.096 C 
HETATM    2  C   UNL     1     -45.615 -53.109  14.219  1.00  0.00     0.017 C 
HETATM    3  C   UNL     1     -44.741 -53.549  15.389  1.00  0.00     0.021 C 
HETATM    4  C   UNL     1     -43.794 -54.665  14.961  1.00  0.00     0.127 C 
HETATM    5  N   UNL     1     -42.961 -54.251  13.834  1.00  0.00    -0.333 N 
HETATM    6  C   UNL     1     -43.753 -53.815  12.668  1.00  0.00     0.141 C 
HETATM    7  C   UNL     1     -41.584 -54.240  13.683  1.00  0.00     0.320 C 
HETATM    8  O   UNL     1     -41.087 -53.958  12.583  1.00  0.00    -0.247 OA
HETATM    9  N   UNL     1     -40.735 -54.552  14.716  1.00  0.00    -0.334 N 
HETATM   10  C   UNL     1     -40.972 -54.999  16.076  1.00  0.00     0.127 C 
HETATM   11  C   UNL     1     -39.608 -55.337  16.670  1.00  0.00     0.022 C 
HETATM   12  C   UNL     1     -38.685 -55.408  15.467  1.00  0.00     0.022 C 
HETATM   13  C   UNL     1     -39.300 -54.408  14.507  1.00  0.00     0.127 C 
ENDROOT
BRANCH   1  14
HETATM   14  C   UNL     1     -44.049 -51.369  13.244  1.00  0.00     0.223 C 
HETATM   15  O   UNL     1     -44.443 -50.509  14.022  1.00  0.00    -0.273 OA
HETATM   16  N   UNL     1     -42.896 -51.196  12.504  1.00  0.00    -0.360 N 
HETATM   17  H   UNL     1     -42.466 -52.000  12.067  1.00  0.00     0.162 HD
BRANCH  16  18
HETATM   18  C   UNL     1     -42.130 -49.972  12.665  1.00  0.00     0.128 C 
BRANCH  18  19
HETATM   19  C   UNL     1     -41.182 -49.718  11.503  1.00  0.00     0.076 C 
BRANCH  19  20
HETATM   20  C   UNL     1     -39.775 -50.112  11.860  1.00  0.00     0.010 A 
HETATM   21  C   UNL     1     -39.512 -50.827  13.026  1.00  0.00     0.025 A 
HETATM   22  C   UNL     1     -38.199 -51.188  13.313  1.00  0.00     0.003 A 
HETATM   23  C   UNL     1     -37.188 -50.837  12.428  1.00  0.00     0.017 A 
HETATM   24  C   UNL     1     -37.536 -50.138  11.284  1.00  0.00     0.088 A 
HETATM   25  N   UNL     1     -38.800 -49.768  10.985  1.00  0.00    -0.369 N 
ATOM     26  HN  UNL     1     -39.012 -49.249  10.132  1.00  0.00     0.165 HD
ENDBRANCH  19  20
ENDBRANCH  18  19
ENDBRANCH  16  18
ENDBRANCH   1  14
TORSDOF 4
ENDMDL
MODEL 2
REMARK VINA RESULT:      -6.4      1.954      4.832
REMARK  4 active torsions:
REMARK  status: ('A' for Active; 'I' for Inactive)
REMARK       I    between atoms: C_2  and  N_3 
REMARK    1  A    between atoms: C_2  and  C_13 
REMARK    2  A    between atoms: N_3  and  C_4 
REMARK    3  A    between atoms: C_4  and  C_5 
REMARK    4  A    between atoms: C_5  and  C_6 
REMARK       I    between atoms: N_17  and  C_19 
REMARK       I    between atoms: C_19  and  N_21 
ROOT
HETATM    1  C   UNL     1     -39.770 -53.185  14.974  1.00  0.00     0.096 C 
HETATM    2  C   UNL     1     -39.638 -54.208  13.838  1.00  0.00     0.017 C 
HETATM    3  C   UNL     1     -40.829 -54.128  12.888  1.00  0.00     0.021 C 
HETATM    4  C   UNL     1     -42.137 -54.293  13.653  1.00  0.00     0.127 C 
HETATM    5  N   UNL     1     -42.264 -53.291  14.708  1.00  0.00    -0.333 N 
HETATM    6  C   UNL     1     -41.139 -53.321  15.663  1.00  0.00     0.141 C 
HETATM    7  C   UNL     1     -43.267 -52.370  14.966  1.00  0.00     0.320 C 
HETATM    8  O   UNL     1     -43.226 -51.688  16.000  1.00  0.00    -0.247 OA
HETATM    9  N   UNL     1     -44.330 -52.193  14.115  1.00  0.00    -0.334 N 
HETATM   10  C   UNL     1     -44.725 -52.865  12.891  1.00  0.00     0.127 C 
HETATM   11  C   UNL     1     -46.097 -52.315  12.513  1.00  0.00     0.022 C 
HETATM   12  C   UNL     1     -46.574 -51.607  13.769  1.00  0.00     0.022 C 
HETATM   13  C   UNL     1     -45.281 -51.127  14.399  1.00  0.00     0.127 C 
ENDROOT
BRANCH   1  14
HETATM   14  C   UNL     1     -39.538 -51.757  14.482  1.00  0.00     0.223 C 
HETATM   15  O   UNL     1     -40.239 -50.802  14.796  1.00  0.00    -0.273 OA
HETATM   16  N   UNL     1     -38.451 -51.607  13.644  1.00  0.00    -0.360 N 
HETATM   17  H   UNL     1     -37.759 -52.342  13.600  1.00  0.00     0.162 HD
BRANCH  16  18
HETATM   18  C   UNL     1     -38.127 -50.284  13.138  1.00  0.00     0.128 C 
BRANCH  18  19
HETATM   19  C   UNL     1     -38.500 -50.111  11.673  1.00  0.00     0.076 C 
BRANCH  19  20
HETATM   20  C   UNL     1     -39.606 -49.104  11.514  1.00  0.00     0.010 A 
HETATM   21  C   UNL     1     -39.580 -47.904  12.221  1.00  0.00     0.025 A 
HETATM   22  C   UNL     1     -40.614 -46.991  12.034  1.00  0.00     0.003 A 
HETATM   23  C   UNL     1     -41.636 -47.293  11.143  1.00  0.00     0.017 A 
HETATM   24  C   UNL     1     -41.579 -48.502  10.470  1.00  0.00     0.088 A 
HETATM   25  N   UNL     1     -40.593 -49.410  10.638  1.00  0.00    -0.369 N 
ATOM     26  HN  UNL     1     -40.592 -50.292  10.125  1.00  0.00     0.165 HD
ENDBRANCH  19  20
ENDBRANCH  18  19
ENDBRANCH  16  18
ENDBRANCH   1  14
TORSDOF 4
ENDMDL
MODEL 3
REMARK VINA RESULT:      -6.4      2.457      6.132
REMARK  4 active torsions:
REMARK  status: ('A' for Active; 'I' for Inactive)
REMARK       I    between atoms: C_2  and  N_3 
REMARK    1  A    between atoms: C_2  and  C_13 
REMARK    2  A    between atoms: N_3  and  C_4 
REMARK    3  A    between atoms: C_4  and  C_5 
REMARK    4  A    between atoms: C_5  and  C_6 
REMARK       I    between atoms: N_17  and  C_19 
REMARK       I    between atoms: C_19  and  N_21 
ROOT
HETATM    1  C   UNL     1     -42.438 -54.428  14.428  1.00  0.00     0.096 C 
HETATM    2  C   UNL     1     -41.474 -54.873  15.536  1.00  0.00     0.017 C 
HETATM    3  C   UNL     1     -40.310 -53.897  15.673  1.00  0.00     0.021 C 
HETATM    4  C   UNL     1     -39.598 -53.720  14.336  1.00  0.00     0.127 C 
HETATM    5  N   UNL     1     -40.522 -53.264  13.300  1.00  0.00    -0.333 N 
HETATM    6  C   UNL     1     -41.671 -54.171  13.119  1.00  0.00     0.141 C 
HETATM    7  C   UNL     1     -40.466 -52.163  12.460  1.00  0.00     0.320 C 
HETATM    8  O   UNL     1     -41.309 -52.033  11.561  1.00  0.00    -0.247 OA
HETATM    9  N   UNL     1     -39.490 -51.206  12.575  1.00  0.00    -0.334 N 
HETATM   10  C   UNL     1     -38.329 -51.093  13.439  1.00  0.00     0.127 C 
HETATM   11  C   UNL     1     -37.543 -49.876  12.960  1.00  0.00     0.022 C 
HETATM   12  C   UNL     1     -38.127 -49.571  11.592  1.00  0.00     0.022 C 
HETATM   13  C   UNL     1     -39.568 -50.024  11.728  1.00  0.00     0.127 C 
ENDROOT
BRANCH   1  14
HETATM   14  C   UNL     1     -43.253 -53.203  14.841  1.00  0.00     0.223 C 
HETATM   15  O   UNL     1     -43.457 -52.876  16.004  1.00  0.00    -0.273 OA
HETATM   16  N   UNL     1     -43.750 -52.461  13.788  1.00  0.00    -0.360 N 
HETATM   17  H   UNL     1     -43.369 -52.605  12.863  1.00  0.00     0.162 HD
BRANCH  16  18
HETATM   18  C   UNL     1     -44.519 -51.262  14.070  1.00  0.00     0.128 C 
BRANCH  18  19
HETATM   19  C   UNL     1     -46.000 -51.549  14.264  1.00  0.00     0.076 C 
BRANCH  19  20
HETATM   20  C   UNL     1     -46.446 -51.169  15.650  1.00  0.00     0.010 A 
HETATM   21  C   UNL     1     -47.730 -51.477  16.091  1.00  0.00     0.025 A 
HETATM   22  C   UNL     1     -48.099 -51.124  17.386  1.00  0.00     0.003 A 
HETATM   23  C   UNL     1     -47.178 -50.484  18.206  1.00  0.00     0.017 A 
HETATM   24  C   UNL     1     -45.917 -50.227  17.693  1.00  0.00     0.088 A 
HETATM   25  N   UNL     1     -45.535 -50.551  16.439  1.00  0.00    -0.369 N 
ATOM     26  HN  UNL     1     -44.596 -50.339  16.100  1.00  0.00     0.165 HD
ENDBRANCH  19  20
ENDBRANCH  18  19
ENDBRANCH  16  18
ENDBRANCH   1  14
TORSDOF 4
ENDMDL
MODEL 4
REMARK VINA RESULT:      -6.3      2.286      5.192
REMARK  4 active torsions:
REMARK  status: ('A' for Active; 'I' for Inactive)
REMARK       I    between atoms: C_2  and  N_3 
REMARK    1  A    between atoms: C_2  and  C_13 
REMARK    2  A    between atoms: N_3  and  C_4 
REMARK    3  A    between atoms: C_4  and  C_5 
REMARK    4  A    between atoms: C_5  and  C_6 
REMARK       I    between atoms: N_17  and  C_19 
REMARK       I    between atoms: C_19  and  N_21 
ROOT
HETATM    1  C   UNL     1     -39.109 -52.358  14.717  1.00  0.00     0.096 C 
HETATM    2  C   UNL     1     -39.013 -53.839  14.327  1.00  0.00     0.017 C 
HETATM    3  C   UNL     1     -40.247 -54.281  13.546  1.00  0.00     0.021 C 
HETATM    4  C   UNL     1     -41.517 -53.980  14.334  1.00  0.00     0.127 C 
HETATM    5  N   UNL     1     -41.610 -52.561  14.668  1.00  0.00    -0.333 N 
HETATM    6  C   UNL     1     -40.444 -52.075  15.428  1.00  0.00     0.141 C 
HETATM    7  C   UNL     1     -42.614 -51.638  14.421  1.00  0.00     0.320 C 
HETATM    8  O   UNL     1     -42.537 -50.500  14.905  1.00  0.00    -0.247 OA
HETATM    9  N   UNL     1     -43.716 -51.945  13.663  1.00  0.00    -0.334 N 
HETATM   10  C   UNL     1     -44.157 -53.175  13.030  1.00  0.00     0.127 C 
HETATM   11  C   UNL     1     -45.552 -52.907  12.474  1.00  0.00     0.022 C 
HETATM   12  C   UNL     1     -45.982 -51.619  13.153  1.00  0.00     0.022 C 
HETATM   13  C   UNL     1     -44.669 -50.887  13.356  1.00  0.00     0.127 C 
ENDROOT
BRANCH   1  14
HETATM   14  C   UNL     1     -38.920 -51.440  13.510  1.00  0.00     0.223 C 
HETATM   15  O   UNL     1     -38.181 -51.692  12.566  1.00  0.00    -0.273 OA
HETATM   16  N   UNL     1     -39.666 -50.278  13.550  1.00  0.00    -0.360 N 
HETATM   17  H   UNL     1     -40.436 -50.210  14.200  1.00  0.00     0.162 HD
BRANCH  16  18
HETATM   18  C   UNL     1     -39.579 -49.345  12.440  1.00  0.00     0.128 C 
BRANCH  18  19
HETATM   19  C   UNL     1     -40.626 -49.612  11.369  1.00  0.00     0.076 C 
BRANCH  19  20
HETATM   20  C   UNL     1     -41.243 -48.328  10.886  1.00  0.00     0.010 A 
HETATM   21  C   UNL     1     -40.639 -47.103  11.161  1.00  0.00     0.025 A 
HETATM   22  C   UNL     1     -41.232 -45.938  10.683  1.00  0.00     0.003 A 
HETATM   23  C   UNL     1     -42.401 -46.026   9.938  1.00  0.00     0.017 A 
HETATM   24  C   UNL     1     -42.929 -47.284   9.699  1.00  0.00     0.088 A 
HETATM   25  N   UNL     1     -42.380 -48.429  10.156  1.00  0.00    -0.369 N 
ATOM     26  HN  UNL     1     -42.804 -49.336   9.960  1.00  0.00     0.165 HD
ENDBRANCH  19  20
ENDBRANCH  18  19
ENDBRANCH  16  18
ENDBRANCH   1  14
TORSDOF 4
ENDMDL
MODEL 5
REMARK VINA RESULT:      -6.2      2.363      3.733
REMARK  4 active torsions:
REMARK  status: ('A' for Active; 'I' for Inactive)
REMARK       I    between atoms: C_2  and  N_3 
REMARK    1  A    between atoms: C_2  and  C_13 
REMARK    2  A    between atoms: N_3  and  C_4 
REMARK    3  A    between atoms: C_4  and  C_5 
REMARK    4  A    between atoms: C_5  and  C_6 
REMARK       I    between atoms: N_17  and  C_19 
REMARK       I    between atoms: C_19  and  N_21 
ROOT
HETATM    1  C   UNL     1     -44.842 -52.940  12.616  1.00  0.00     0.096 C 
HETATM    2  C   UNL     1     -46.065 -52.017  12.524  1.00  0.00     0.017 C 
HETATM    3  C   UNL     1     -46.544 -51.604  13.912  1.00  0.00     0.021 C 
HETATM    4  C   UNL     1     -46.821 -52.832  14.772  1.00  0.00     0.127 C 
HETATM    5  N   UNL     1     -45.639 -53.683  14.878  1.00  0.00    -0.333 N 
HETATM    6  C   UNL     1     -45.128 -54.118  13.564  1.00  0.00     0.141 C 
HETATM    7  C   UNL     1     -44.966 -54.161  15.991  1.00  0.00     0.320 C 
HETATM    8  O   UNL     1     -44.045 -54.978  15.849  1.00  0.00    -0.247 OA
HETATM    9  N   UNL     1     -45.295 -53.773  17.266  1.00  0.00    -0.334 N 
HETATM   10  C   UNL     1     -46.347 -52.919  17.786  1.00  0.00     0.127 C 
HETATM   11  C   UNL     1     -46.282 -53.021  19.307  1.00  0.00     0.022 C 
HETATM   12  C   UNL     1     -45.407 -54.236  19.561  1.00  0.00     0.022 C 
HETATM   13  C   UNL     1     -44.467 -54.233  18.371  1.00  0.00     0.127 C 
ENDROOT
BRANCH   1  14
HETATM   14  C   UNL     1     -43.587 -52.181  13.043  1.00  0.00     0.223 C 
HETATM   15  O   UNL     1     -42.683 -52.670  13.709  1.00  0.00    -0.273 OA
HETATM   16  N   UNL     1     -43.532 -50.871  12.608  1.00  0.00    -0.360 N 
HETATM   17  H   UNL     1     -44.154 -50.572  11.869  1.00  0.00     0.162 HD
BRANCH  16  18
HETATM   18  C   UNL     1     -42.370 -50.065  12.938  1.00  0.00     0.128 C 
BRANCH  18  19
HETATM   19  C   UNL     1     -41.406 -49.924  11.769  1.00  0.00     0.076 C 
BRANCH  19  20
HETATM   20  C   UNL     1     -40.009 -50.312  12.173  1.00  0.00     0.010 A 
HETATM   21  C   UNL     1     -38.905 -49.716  11.569  1.00  0.00     0.025 A 
HETATM   22  C   UNL     1     -37.629 -50.090  11.982  1.00  0.00     0.003 A 
HETATM   23  C   UNL     1     -37.490 -51.038  12.988  1.00  0.00     0.017 A 
HETATM   24  C   UNL     1     -38.640 -51.572  13.544  1.00  0.00     0.088 A 
HETATM   25  N   UNL     1     -39.889 -51.234  13.158  1.00  0.00    -0.369 N 
ATOM     26  HN  UNL     1     -40.710 -51.656  13.592  1.00  0.00     0.165 HD
ENDBRANCH  19  20
ENDBRANCH  18  19
ENDBRANCH  16  18
ENDBRANCH   1  14
TORSDOF 4
ENDMDL
MODEL 6
REMARK VINA RESULT:      -6.1      2.238      6.323
REMARK  4 active torsions:
REMARK  status: ('A' for Active; 'I' for Inactive)
REMARK       I    between atoms: C_2  and  N_3 
REMARK    1  A    between atoms: C_2  and  C_13 
REMARK    2  A    between atoms: N_3  and  C_4 
REMARK    3  A    between atoms: C_4  and  C_5 
REMARK    4  A    between atoms: C_5  and  C_6 
REMARK       I    between atoms: N_17  and  C_19 
REMARK       I    between atoms: C_19  and  N_21 
ROOT
HETATM    1  C   UNL     1     -40.302 -54.418  14.169  1.00  0.00     0.096 C 
HETATM    2  C   UNL     1     -40.782 -54.389  15.627  1.00  0.00     0.017 C 
HETATM    3  C   UNL     1     -40.771 -52.966  16.179  1.00  0.00     0.021 C 
HETATM    4  C   UNL     1     -39.390 -52.340  16.021  1.00  0.00     0.127 C 
HETATM    5  N   UNL     1     -38.962 -52.344  14.624  1.00  0.00    -0.333 N 
HETATM    6  C   UNL     1     -38.950 -53.696  14.034  1.00  0.00     0.141 C 
HETATM    7  C   UNL     1     -38.542 -51.309  13.804  1.00  0.00     0.320 C 
HETATM    8  O   UNL     1     -38.104 -51.560  12.672  1.00  0.00    -0.247 OA
HETATM    9  N   UNL     1     -38.575 -49.998  14.209  1.00  0.00    -0.334 N 
HETATM   10  C   UNL     1     -38.939 -49.373  15.467  1.00  0.00     0.127 C 
HETATM   11  C   UNL     1     -38.602 -47.891  15.333  1.00  0.00     0.022 C 
HETATM   12  C   UNL     1     -37.710 -47.822  14.106  1.00  0.00     0.022 C 
HETATM   13  C   UNL     1     -38.224 -48.962  13.248  1.00  0.00     0.127 C 
ENDROOT
BRANCH   1  14
HETATM   14  C   UNL     1     -41.341 -53.826  13.217  1.00  0.00     0.223 C 
HETATM   15  O   UNL     1     -41.070 -53.082  12.283  1.00  0.00    -0.273 OA
HETATM   16  N   UNL     1     -42.643 -54.204  13.481  1.00  0.00    -0.360 N 
HETATM   17  H   UNL     1     -42.813 -54.996  14.085  1.00  0.00     0.162 HD
BRANCH  16  18
HETATM   18  C   UNL     1     -43.708 -53.717  12.621  1.00  0.00     0.128 C 
BRANCH  18  19
HETATM   19  C   UNL     1     -45.077 -54.238  13.033  1.00  0.00     0.076 C 
BRANCH  19  20
HETATM   20  C   UNL     1     -45.725 -53.318  14.031  1.00  0.00     0.010 A 
HETATM   21  C   UNL     1     -46.252 -52.093  13.628  1.00  0.00     0.025 A 
HETATM   22  C   UNL     1     -46.859 -51.277  14.579  1.00  0.00     0.003 A 
HETATM   23  C   UNL     1     -46.933 -51.707  15.898  1.00  0.00     0.017 A 
HETATM   24  C   UNL     1     -46.396 -52.945  16.211  1.00  0.00     0.088 A 
HETATM   25  N   UNL     1     -45.795 -53.753  15.312  1.00  0.00    -0.369 N 
ATOM     26  HN  UNL     1     -45.408 -54.656  15.586  1.00  0.00     0.165 HD
ENDBRANCH  19  20
ENDBRANCH  18  19
ENDBRANCH  16  18
ENDBRANCH   1  14
TORSDOF 4
ENDMDL
MODEL 7
REMARK VINA RESULT:      -6.0      2.567      7.092
REMARK  4 active torsions:
REMARK  status: ('A' for Active; 'I' for Inactive)
REMARK       I    between atoms: C_2  and  N_3 
REMARK    1  A    between atoms: C_2  and  C_13 
REMARK    2  A    between atoms: N_3  and  C_4 
REMARK    3  A    between atoms: C_4  and  C_5 
REMARK    4  A    between atoms: C_5  and  C_6 
REMARK       I    between atoms: N_17  and  C_19 
REMARK       I    between atoms: C_19  and  N_21 
ROOT
HETATM    1  C   UNL     1     -37.503 -50.285  14.413  1.00  0.00     0.096 C 
HETATM    2  C   UNL     1     -37.474 -49.221  15.519  1.00  0.00     0.017 C 
HETATM    3  C   UNL     1     -38.673 -48.285  15.410  1.00  0.00     0.021 C 
HETATM    4  C   UNL     1     -38.741 -47.660  14.021  1.00  0.00     0.127 C 
HETATM    5  N   UNL     1     -38.803 -48.684  12.981  1.00  0.00    -0.333 N 
HETATM    6  C   UNL     1     -37.665 -49.622  13.034  1.00  0.00     0.141 C 
HETATM    7  C   UNL     1     -39.718 -48.881  11.960  1.00  0.00     0.320 C 
HETATM    8  O   UNL     1     -39.508 -49.755  11.106  1.00  0.00    -0.247 OA
HETATM    9  N   UNL     1     -40.857 -48.124  11.845  1.00  0.00    -0.334 N 
HETATM   10  C   UNL     1     -41.359 -46.992  12.601  1.00  0.00     0.127 C 
HETATM   11  C   UNL     1     -42.600 -46.490  11.869  1.00  0.00     0.022 C 
HETATM   12  C   UNL     1     -42.523 -47.159  10.508  1.00  0.00     0.022 C 
HETATM   13  C   UNL     1     -41.823 -48.469  10.811  1.00  0.00     0.127 C 
ENDROOT
BRANCH   1  14
HETATM   14  C   UNL     1     -38.594 -51.327  14.656  1.00  0.00     0.223 C 
HETATM   15  O   UNL     1     -39.070 -51.578  15.757  1.00  0.00    -0.273 OA
HETATM   16  N   UNL     1     -39.028 -51.981  13.519  1.00  0.00    -0.360 N 
HETATM   17  H   UNL     1     -38.805 -51.591  12.613  1.00  0.00     0.162 HD
BRANCH  16  18
HETATM   18  C   UNL     1     -40.080 -52.975  13.634  1.00  0.00     0.128 C 
BRANCH  18  19
HETATM   19  C   UNL     1     -41.046 -52.943  12.459  1.00  0.00     0.076 C 
BRANCH  19  20
HETATM   20  C   UNL     1     -42.405 -53.446  12.864  1.00  0.00     0.010 A 
HETATM   21  C   UNL     1     -42.556 -54.257  13.986  1.00  0.00     0.025 A 
HETATM   22  C   UNL     1     -43.832 -54.687  14.338  1.00  0.00     0.003 A 
HETATM   23  C   UNL     1     -44.919 -54.291  13.571  1.00  0.00     0.017 A 
HETATM   24  C   UNL     1     -44.684 -53.473  12.478  1.00  0.00     0.088 A 
HETATM   25  N   UNL     1     -43.457 -53.047  12.109  1.00  0.00    -0.369 N 
ATOM     26  HN  UNL     1     -43.327 -52.448  11.294  1.00  0.00     0.165 HD
ENDBRANCH  19  20
ENDBRANCH  18  19
ENDBRANCH  16  18
ENDBRANCH   1  14
TORSDOF 4
ENDMDL
MODEL 8
REMARK VINA RESULT:      -6.0      2.777      4.752
REMARK  4 active torsions:
REMARK  status: ('A' for Active; 'I' for Inactive)
REMARK       I    between atoms: C_2  and  N_3 
REMARK    1  A    between atoms: C_2  and  C_13 
REMARK    2  A    between atoms: N_3  and  C_4 
REMARK    3  A    between atoms: C_4  and  C_5 
REMARK    4  A    between atoms: C_5  and  C_6 
REMARK       I    between atoms: N_17  and  C_19 
REMARK       I    between atoms: C_19  and  N_21 
ROOT
HETATM    1  C   UNL     1     -45.289 -53.461  13.047  1.00  0.00     0.096 C 
HETATM    2  C   UNL     1     -46.268 -52.328  12.714  1.00  0.00     0.017 C 
HETATM    3  C   UNL     1     -46.571 -51.486  13.950  1.00  0.00     0.021 C 
HETATM    4  C   UNL     1     -47.082 -52.365  15.086  1.00  0.00     0.127 C 
HETATM    5  N   UNL     1     -46.125 -53.418  15.413  1.00  0.00    -0.333 N 
HETATM    6  C   UNL     1     -45.793 -54.270  14.255  1.00  0.00     0.141 C 
HETATM    7  C   UNL     1     -45.527 -53.754  16.617  1.00  0.00     0.320 C 
HETATM    8  O   UNL     1     -44.827 -54.775  16.693  1.00  0.00    -0.247 OA
HETATM    9  N   UNL     1     -45.696 -53.000  17.751  1.00  0.00    -0.334 N 
HETATM   10  C   UNL     1     -46.496 -51.822  18.031  1.00  0.00     0.127 C 
HETATM   11  C   UNL     1     -46.382 -51.561  19.530  1.00  0.00     0.022 C 
HETATM   12  C   UNL     1     -45.800 -52.847  20.088  1.00  0.00     0.022 C 
HETATM   13  C   UNL     1     -44.943 -53.357  18.946  1.00  0.00     0.127 C 
ENDROOT
BRANCH   1  14
HETATM   14  C   UNL     1     -43.873 -52.938  13.284  1.00  0.00     0.223 C 
HETATM   15  O   UNL     1     -43.386 -52.758  14.393  1.00  0.00    -0.273 OA
HETATM   16  N   UNL     1     -43.154 -52.682  12.132  1.00  0.00    -0.360 N 
HETATM   17  H   UNL     1     -43.479 -53.064  11.255  1.00  0.00     0.162 HD
BRANCH  16  18
HETATM   18  C   UNL     1     -41.787 -52.203  12.245  1.00  0.00     0.128 C 
BRANCH  18  19
HETATM   19  C   UNL     1     -40.772 -53.336  12.280  1.00  0.00     0.076 C 
BRANCH  19  20
HETATM   20  C   UNL     1     -40.174 -53.482  13.653  1.00  0.00     0.010 A 
HETATM   21  C   UNL     1     -39.423 -54.607  13.984  1.00  0.00     0.025 A 
HETATM   22  C   UNL     1     -38.872 -54.697  15.259  1.00  0.00     0.003 A 
HETATM   23  C   UNL     1     -39.076 -53.662  16.163  1.00  0.00     0.017 A 
HETATM   24  C   UNL     1     -39.824 -52.572  15.749  1.00  0.00     0.088 A 
HETATM   25  N   UNL     1     -40.377 -52.462  14.522  1.00  0.00    -0.369 N 
ATOM     26  HN  UNL     1     -40.925 -51.643  14.259  1.00  0.00     0.165 HD
ENDBRANCH  19  20
ENDBRANCH  18  19
ENDBRANCH  16  18
ENDBRANCH   1  14
TORSDOF 4
ENDMDL
MODEL 9
REMARK VINA RESULT:      -6.0      2.041      4.750
REMARK  4 active torsions:
REMARK  status: ('A' for Active; 'I' for Inactive)
REMARK       I    between atoms: C_2  and  N_3 
REMARK    1  A    between atoms: C_2  and  C_13 
REMARK    2  A    between atoms: N_3  and  C_4 
REMARK    3  A    between atoms: C_4  and  C_5 
REMARK    4  A    between atoms: C_5  and  C_6 
REMARK       I    between atoms: N_17  and  C_19 
REMARK       I    between atoms: C_19  and  N_21 
ROOT
HETATM    1  C   UNL     1     -41.746 -54.361  13.835  1.00  0.00     0.096 C 
HETATM    2  C   UNL     1     -42.134 -54.400  15.319  1.00  0.00     0.017 C 
HETATM    3  C   UNL     1     -41.840 -53.066  15.998  1.00  0.00     0.021 C 
HETATM    4  C   UNL     1     -40.380 -52.674  15.802  1.00  0.00     0.127 C 
HETATM    5  N   UNL     1     -40.035 -52.608  14.384  1.00  0.00    -0.333 N 
HETATM    6  C   UNL     1     -40.296 -53.873  13.672  1.00  0.00     0.141 C 
HETATM    7  C   UNL     1     -39.481 -51.582  13.635  1.00  0.00     0.320 C 
HETATM    8  O   UNL     1     -39.156 -51.786  12.457  1.00  0.00    -0.247 OA
HETATM    9  N   UNL     1     -39.258 -50.333  14.161  1.00  0.00    -0.334 N 
HETATM   10  C   UNL     1     -39.437 -49.788  15.494  1.00  0.00     0.127 C 
HETATM   11  C   UNL     1     -38.848 -48.381  15.474  1.00  0.00     0.022 C 
HETATM   12  C   UNL     1     -38.026 -48.340  14.198  1.00  0.00     0.022 C 
HETATM   13  C   UNL     1     -38.779 -49.279  13.277  1.00  0.00     0.127 C 
ENDROOT
BRANCH   1  14
HETATM   14  C   UNL     1     -42.712 -53.504  13.018  1.00  0.00     0.223 C 
HETATM   15  O   UNL     1     -42.360 -52.698  12.165  1.00  0.00    -0.273 OA
HETATM   16  N   UNL     1     -44.047 -53.710  13.305  1.00  0.00    -0.360 N 
HETATM   17  H   UNL     1     -44.317 -54.537  13.820  1.00  0.00     0.162 HD
BRANCH  16  18
HETATM   18  C   UNL     1     -45.051 -52.963  12.568  1.00  0.00     0.128 C 
BRANCH  18  19
HETATM   19  C   UNL     1     -45.665 -51.840  13.390  1.00  0.00     0.076 C 
BRANCH  19  20
HETATM   20  C   UNL     1     -44.633 -50.805  13.745  1.00  0.00     0.010 A 
HETATM   21  C   UNL     1     -44.333 -50.530  15.077  1.00  0.00     0.025 A 
HETATM   22  C   UNL     1     -43.359 -49.578  15.364  1.00  0.00     0.003 A 
HETATM   23  C   UNL     1     -42.706 -48.935  14.320  1.00  0.00     0.017 A 
HETATM   24  C   UNL     1     -43.055 -49.277  13.024  1.00  0.00     0.088 A 
HETATM   25  N   UNL     1     -44.001 -50.191  12.717  1.00  0.00    -0.369 N 
ATOM     26  HN  UNL     1     -44.230 -50.410  11.747  1.00  0.00     0.165 HD
ENDBRANCH  19  20
ENDBRANCH  18  19
ENDBRANCH  16  18
ENDBRANCH   1  14
TORSDOF 4
ENDMDL
