MODEL 1
REMARK VINA RESULT:      -6.5      0.000      0.000
REMARK  5 active torsions:
REMARK  status: ('A' for Active; 'I' for Inactive)
REMARK    1  A    between atoms: C_2  and  C_4 
REMARK    2  A    between atoms: C_4  and  C_5 
REMARK    3  A    between atoms: C_4  and  N_18 
REMARK    4  A    between atoms: C_5  and  N_6 
REMARK       I    between atoms: N_6  and  C_7 
REMARK       I    between atoms: C_7  and  N_9 
REMARK    5  A    between atoms: N_9  and  C_10 
ROOT
HETATM    1  N   UNL     1     -41.266 -51.859  11.571  1.00  0.00    -0.341 N 
HETATM    2  C   UNL     1     -42.125 -52.211  12.593  1.00  0.00     0.320 C 
HETATM    3  O   UNL     1     -41.811 -52.081  13.771  1.00  0.00    -0.247 OA
HETATM    4  N   UNL     1     -43.302 -52.752  12.124  1.00  0.00    -0.309 N 
HETATM    5  H   UNL     1     -41.683 -51.450  10.745  1.00  0.00     0.164 HD
HETATM    6  H   UNL     1     -43.262 -53.100  11.179  1.00  0.00     0.170 HD
ENDROOT
BRANCH   1   7
HETATM    7  C   UNL     1     -39.975 -51.302  11.956  1.00  0.00     0.149 C 
BRANCH   7   8
HETATM    8  C   UNL     1     -39.742 -49.849  11.459  1.00  0.00     0.100 C 
BRANCH   8   9
HETATM    9  C   UNL     1     -38.297 -49.336  11.809  1.00  0.00     0.001 C 
HETATM   10  C   UNL     1     -37.829 -49.570  13.247  1.00  0.00     0.011 C 
HETATM   11  C   UNL     1     -37.222 -49.911  10.868  1.00  0.00     0.011 C 
ENDBRANCH   8   9
BRANCH   8  12
HETATM   12  N   UNL     1     -40.920 -48.991  11.747  1.00  0.00    -0.402 N 
HETATM   13  C   UNL     1     -41.274 -48.003  10.719  1.00  0.00     0.143 C 
HETATM   14  C   UNL     1     -40.629 -46.628  10.935  1.00  0.00     0.187 C 
HETATM   15  O   UNL     1     -40.960 -46.096  12.223  1.00  0.00    -0.388 OA
HETATM   16  C   UNL     1     -40.585 -46.979  13.282  1.00  0.00     0.187 C 
HETATM   17  C   UNL     1     -41.108 -48.410  13.084  1.00  0.00     0.143 C 
ENDBRANCH   8  12
ENDBRANCH   7   8
ENDBRANCH   1   7
BRANCH   4  18
HETATM   18  C   UNL     1     -44.372 -53.189  12.945  1.00  0.00     0.039 A 
HETATM   19  C   UNL     1     -44.709 -54.529  13.104  1.00  0.00     0.046 A 
HETATM   20  C   UNL     1     -45.803 -54.847  13.884  1.00  0.00     0.090 A 
HETATM   21  N   UNL     1     -46.573 -53.929  14.500  1.00  0.00    -0.369 N 
HETATM   22  C   UNL     1     -46.237 -52.628  14.355  1.00  0.00     0.007 A 
ATOM     23  HN  UNL     1     -47.382 -54.206  15.056  1.00  0.00     0.165 HD
HETATM   24  C   UNL     1     -47.135 -51.628  15.005  1.00  0.00     0.068 C 
HETATM   25  C   UNL     1     -45.139 -52.223  13.605  1.00  0.00     0.054 A 
ENDBRANCH   4  18
TORSDOF 5
ENDMDL
MODEL 2
REMARK VINA RESULT:      -6.2      2.291      7.737
REMARK  5 active torsions:
REMARK  status: ('A' for Active; 'I' for Inactive)
REMARK    1  A    between atoms: C_2  and  C_4 
REMARK    2  A    between atoms: C_4  and  C_5 
REMARK    3  A    between atoms: C_4  and  N_18 
REMARK    4  A    between atoms: C_5  and  N_6 
REMARK       I    between atoms: N_6  and  C_7 
REMARK       I    between atoms: C_7  and  N_9 
REMARK    5  A    between atoms: N_9  and  C_10 
ROOT
HETATM    1  N   UNL     1     -43.061 -51.539  12.709  1.00  0.00    -0.341 N 
HETATM    2  C   UNL     1     -42.942 -50.176  12.523  1.00  0.00     0.320 C 
HETATM    3  O   UNL     1     -43.530 -49.375  13.243  1.00  0.00    -0.247 OA
HETATM    4  N   UNL     1     -42.156 -49.863  11.436  1.00  0.00    -0.309 N 
HETATM    5  H   UNL     1     -42.233 -52.096  12.543  1.00  0.00     0.164 HD
HETATM    6  H   UNL     1     -42.040 -50.608  10.767  1.00  0.00     0.170 HD
ENDROOT
BRANCH   1   7
HETATM    7  C   UNL     1     -43.897 -51.985  13.816  1.00  0.00     0.149 C 
BRANCH   7   8
HETATM    8  C   UNL     1     -45.026 -52.967  13.398  1.00  0.00     0.100 C 
BRANCH   8   9
HETATM    9  C   UNL     1     -46.423 -52.248  13.306  1.00  0.00     0.001 C 
HETATM   10  C   UNL     1     -46.704 -51.185  14.370  1.00  0.00     0.011 C 
HETATM   11  C   UNL     1     -46.666 -51.606  11.928  1.00  0.00     0.011 C 
ENDBRANCH   8   9
BRANCH   8  12
HETATM   12  N   UNL     1     -44.906 -54.257  14.124  1.00  0.00    -0.402 N 
HETATM   13  C   UNL     1     -46.001 -54.591  15.045  1.00  0.00     0.143 C 
HETATM   14  C   UNL     1     -45.758 -54.130  16.488  1.00  0.00     0.187 C 
HETATM   15  O   UNL     1     -44.536 -54.668  17.006  1.00  0.00    -0.388 OA
HETATM   16  C   UNL     1     -43.411 -54.329  16.193  1.00  0.00     0.187 C 
HETATM   17  C   UNL     1     -43.620 -54.666  14.708  1.00  0.00     0.143 C 
ENDBRANCH   8  12
ENDBRANCH   7   8
ENDBRANCH   1   7
BRANCH   4  18
HETATM   18  C   UNL     1     -41.850 -48.543  11.016  1.00  0.00     0.039 A 
HETATM   19  C   UNL     1     -40.678 -47.886  11.375  1.00  0.00     0.046 A 
HETATM   20  C   UNL     1     -40.499 -46.582  10.959  1.00  0.00     0.090 A 
HETATM   21  N   UNL     1     -41.401 -45.902  10.224  1.00  0.00    -0.369 N 
HETATM   22  C   UNL     1     -42.533 -46.546   9.865  1.00  0.00     0.007 A 
ATOM     23  HN  UNL     1     -41.236 -44.934   9.949  1.00  0.00     0.165 HD
HETATM   24  C   UNL     1     -43.539 -45.755   9.096  1.00  0.00     0.068 C 
HETATM   25  C   UNL     1     -42.783 -47.866  10.226  1.00  0.00     0.054 A 
ENDBRANCH   4  18
TORSDOF 5
ENDMDL
MODEL 3
REMARK VINA RESULT:      -6.0      2.474      7.283
REMARK  5 active torsions:
REMARK  status: ('A' for Active; 'I' for Inactive)
REMARK    1  A    between atoms: C_2  and  C_4 
REMARK    2  A    between atoms: C_4  and  C_5 
REMARK    3  A    between atoms: C_4  and  N_18 
REMARK    4  A    between atoms: C_5  and  N_6 
REMARK       I    between atoms: N_6  and  C_7 
REMARK       I    between atoms: C_7  and  N_9 
REMARK    5  A    between atoms: N_9  and  C_10 
ROOT
HETATM    1  N   UNL     1     -42.060 -51.425  13.058  1.00  0.00    -0.341 N 
HETATM    2  C   UNL     1     -41.847 -50.080  12.833  1.00  0.00     0.320 C 
HETATM    3  O   UNL     1     -41.606 -49.305  13.753  1.00  0.00    -0.247 OA
HETATM    4  N   UNL     1     -41.991 -49.742  11.506  1.00  0.00    -0.309 N 
HETATM    5  H   UNL     1     -41.703 -52.066  12.361  1.00  0.00     0.164 HD
HETATM    6  H   UNL     1     -42.515 -50.403  10.953  1.00  0.00     0.170 HD
ENDROOT
BRANCH   1   7
HETATM    7  C   UNL     1     -41.962 -51.889  14.436  1.00  0.00     0.149 C 
BRANCH   7   8
HETATM    8  C   UNL     1     -42.835 -53.136  14.746  1.00  0.00     0.100 C 
BRANCH   8   9
HETATM    9  C   UNL     1     -42.003 -54.468  14.663  1.00  0.00     0.001 C 
HETATM   10  C   UNL     1     -40.482 -54.309  14.608  1.00  0.00     0.011 C 
HETATM   11  C   UNL     1     -42.331 -55.441  15.810  1.00  0.00     0.011 C 
ENDBRANCH   8   9
BRANCH   8  12
HETATM   12  N   UNL     1     -44.154 -53.045  14.068  1.00  0.00    -0.402 N 
HETATM   13  C   UNL     1     -45.277 -52.572  14.887  1.00  0.00     0.143 C 
HETATM   14  C   UNL     1     -46.068 -53.701  15.563  1.00  0.00     0.187 C 
HETATM   15  O   UNL     1     -46.560 -54.639  14.599  1.00  0.00    -0.388 OA
HETATM   16  C   UNL     1     -45.510 -55.192  13.803  1.00  0.00     0.187 C 
HETATM   17  C   UNL     1     -44.606 -54.121  13.173  1.00  0.00     0.143 C 
ENDBRANCH   8  12
ENDBRANCH   7   8
ENDBRANCH   1   7
BRANCH   4  18
HETATM   18  C   UNL     1     -41.817 -48.435  10.983  1.00  0.00     0.039 A 
HETATM   19  C   UNL     1     -40.678 -47.671  11.213  1.00  0.00     0.046 A 
HETATM   20  C   UNL     1     -40.629 -46.389  10.703  1.00  0.00     0.090 A 
HETATM   21  N   UNL     1     -41.629 -45.828   9.996  1.00  0.00    -0.369 N 
HETATM   22  C   UNL     1     -42.730 -46.576   9.762  1.00  0.00     0.007 A 
ATOM     23  HN  UNL     1     -41.558 -44.871   9.649  1.00  0.00     0.165 HD
HETATM   24  C   UNL     1     -43.845 -45.914   9.021  1.00  0.00     0.068 C 
HETATM   25  C   UNL     1     -42.852 -47.882  10.222  1.00  0.00     0.054 A 
ENDBRANCH   4  18
TORSDOF 5
ENDMDL
MODEL 4
REMARK VINA RESULT:      -5.9      2.093      3.139
REMARK  5 active torsions:
REMARK  status: ('A' for Active; 'I' for Inactive)
REMARK    1  A    between atoms: C_2  and  C_4 
REMARK    2  A    between atoms: C_4  and  C_5 
REMARK    3  A    between atoms: C_4  and  N_18 
REMARK    4  A    between atoms: C_5  and  N_6 
REMARK       I    between atoms: N_6  and  C_7 
REMARK       I    between atoms: C_7  and  N_9 
REMARK    5  A    between atoms: N_9  and  C_10 
ROOT
HETATM    1  N   UNL     1     -42.201 -49.406  11.437  1.00  0.00    -0.341 N 
HETATM    2  C   UNL     1     -42.398 -50.284  12.485  1.00  0.00     0.320 C 
HETATM    3  O   UNL     1     -42.481 -49.892  13.644  1.00  0.00    -0.247 OA
HETATM    4  N   UNL     1     -42.429 -51.596  12.069  1.00  0.00    -0.309 N 
HETATM    5  H   UNL     1     -42.673 -49.620  10.568  1.00  0.00     0.164 HD
HETATM    6  H   UNL     1     -42.010 -51.767  11.167  1.00  0.00     0.170 HD
ENDROOT
BRANCH   1   7
HETATM    7  C   UNL     1     -42.121 -47.989  11.767  1.00  0.00     0.149 C 
BRANCH   7   8
HETATM    8  C   UNL     1     -40.766 -47.329  11.391  1.00  0.00     0.100 C 
BRANCH   8   9
HETATM    9  C   UNL     1     -39.867 -47.075  12.657  1.00  0.00     0.001 C 
HETATM   10  C   UNL     1     -40.595 -46.585  13.911  1.00  0.00     0.011 C 
HETATM   11  C   UNL     1     -39.038 -48.311  13.050  1.00  0.00     0.011 C 
ENDBRANCH   8   9
BRANCH   8  12
HETATM   12  N   UNL     1     -40.960 -46.246  10.393  1.00  0.00    -0.402 N 
HETATM   13  C   UNL     1     -39.896 -45.234  10.314  1.00  0.00     0.143 C 
HETATM   14  C   UNL     1     -40.140 -44.011  11.208  1.00  0.00     0.187 C 
HETATM   15  O   UNL     1     -41.395 -43.389  10.906  1.00  0.00    -0.388 OA
HETATM   16  C   UNL     1     -42.489 -44.301  11.024  1.00  0.00     0.187 C 
HETATM   17  C   UNL     1     -42.273 -45.603  10.238  1.00  0.00     0.143 C 
ENDBRANCH   8  12
ENDBRANCH   7   8
ENDBRANCH   1   7
BRANCH   4  18
HETATM   18  C   UNL     1     -42.630 -52.709  12.925  1.00  0.00     0.039 A 
HETATM   19  C   UNL     1     -41.613 -53.277  13.684  1.00  0.00     0.046 A 
HETATM   20  C   UNL     1     -41.900 -54.392  14.445  1.00  0.00     0.090 A 
HETATM   21  N   UNL     1     -43.116 -54.970  14.492  1.00  0.00    -0.369 N 
HETATM   22  C   UNL     1     -44.107 -54.410  13.765  1.00  0.00     0.007 A 
ATOM     23  HN  UNL     1     -43.283 -55.803  15.057  1.00  0.00     0.165 HD
HETATM   24  C   UNL     1     -45.432 -55.099  13.793  1.00  0.00     0.068 C 
HETATM   25  C   UNL     1     -43.908 -53.274  12.987  1.00  0.00     0.054 A 
ENDBRANCH   4  18
TORSDOF 5
ENDMDL
MODEL 5
REMARK VINA RESULT:      -5.7      4.169      5.761
REMARK  5 active torsions:
REMARK  status: ('A' for Active; 'I' for Inactive)
REMARK    1  A    between atoms: C_2  and  C_4 
REMARK    2  A    between atoms: C_4  and  C_5 
REMARK    3  A    between atoms: C_4  and  N_18 
REMARK    4  A    between atoms: C_5  and  N_6 
REMARK       I    between atoms: N_6  and  C_7 
REMARK       I    between atoms: C_7  and  N_9 
REMARK    5  A    between atoms: N_9  and  C_10 
ROOT
HETATM    1  N   UNL     1     -41.134 -49.464  11.995  1.00  0.00    -0.341 N 
HETATM    2  C   UNL     1     -42.034 -48.452  11.728  1.00  0.00     0.320 C 
HETATM    3  O   UNL     1     -42.423 -47.689  12.605  1.00  0.00    -0.247 OA
HETATM    4  N   UNL     1     -42.452 -48.457  10.415  1.00  0.00    -0.309 N 
HETATM    5  H   UNL     1     -40.450 -49.667  11.278  1.00  0.00     0.164 HD
HETATM    6  H   UNL     1     -42.313 -49.329   9.929  1.00  0.00     0.170 HD
ENDROOT
BRANCH   1   7
HETATM    7  C   UNL     1     -40.646 -49.570  13.365  1.00  0.00     0.149 C 
BRANCH   7   8
HETATM    8  C   UNL     1     -39.162 -49.145  13.541  1.00  0.00     0.100 C 
BRANCH   8   9
HETATM    9  C   UNL     1     -38.187 -50.376  13.444  1.00  0.00     0.001 C 
HETATM   10  C   UNL     1     -38.777 -51.734  13.831  1.00  0.00     0.011 C 
HETATM   11  C   UNL     1     -37.556 -50.521  12.047  1.00  0.00     0.011 C 
ENDBRANCH   8   9
BRANCH   8  12
HETATM   12  N   UNL     1     -39.014 -48.171  14.652  1.00  0.00    -0.402 N 
HETATM   13  C   UNL     1     -37.822 -47.313  14.611  1.00  0.00     0.143 C 
HETATM   14  C   UNL     1     -36.624 -47.883  15.384  1.00  0.00     0.187 C 
HETATM   15  O   UNL     1     -36.964 -48.140  16.752  1.00  0.00    -0.388 OA
HETATM   16  C   UNL     1     -38.082 -49.023  16.871  1.00  0.00     0.187 C 
HETATM   17  C   UNL     1     -39.293 -48.575  16.038  1.00  0.00     0.143 C 
ENDBRANCH   8  12
ENDBRANCH   7   8
ENDBRANCH   1   7
BRANCH   4  18
HETATM   18  C   UNL     1     -43.364 -47.526   9.855  1.00  0.00     0.039 A 
HETATM   19  C   UNL     1     -42.997 -46.239   9.478  1.00  0.00     0.046 A 
HETATM   20  C   UNL     1     -43.972 -45.391   8.992  1.00  0.00     0.090 A 
HETATM   21  N   UNL     1     -45.268 -45.737   8.867  1.00  0.00    -0.369 N 
HETATM   22  C   UNL     1     -45.621 -46.992   9.223  1.00  0.00     0.007 A 
ATOM     23  HN  UNL     1     -45.960 -45.074   8.517  1.00  0.00     0.165 HD
HETATM   24  C   UNL     1     -47.071 -47.334   9.123  1.00  0.00     0.068 C 
HETATM   25  C   UNL     1     -44.698 -47.915   9.701  1.00  0.00     0.054 A 
ENDBRANCH   4  18
TORSDOF 5
ENDMDL
MODEL 6
REMARK VINA RESULT:      -5.7      1.859      2.690
REMARK  5 active torsions:
REMARK  status: ('A' for Active; 'I' for Inactive)
REMARK    1  A    between atoms: C_2  and  C_4 
REMARK    2  A    between atoms: C_4  and  C_5 
REMARK    3  A    between atoms: C_4  and  N_18 
REMARK    4  A    between atoms: C_5  and  N_6 
REMARK       I    between atoms: N_6  and  C_7 
REMARK       I    between atoms: C_7  and  N_9 
REMARK    5  A    between atoms: N_9  and  C_10 
ROOT
HETATM    1  N   UNL     1     -41.517 -50.455  11.410  1.00  0.00    -0.341 N 
HETATM    2  C   UNL     1     -42.357 -51.145  12.262  1.00  0.00     0.320 C 
HETATM    3  O   UNL     1     -43.139 -50.562  13.005  1.00  0.00    -0.247 OA
HETATM    4  N   UNL     1     -42.160 -52.507  12.201  1.00  0.00    -0.309 N 
HETATM    5  H   UNL     1     -41.343 -50.871  10.505  1.00  0.00     0.164 HD
HETATM    6  H   UNL     1     -41.273 -52.791  11.815  1.00  0.00     0.170 HD
ENDROOT
BRANCH   1   7
HETATM    7  C   UNL     1     -41.619 -49.001  11.416  1.00  0.00     0.149 C 
BRANCH   7   8
HETATM    8  C   UNL     1     -40.261 -48.274  11.613  1.00  0.00     0.100 C 
BRANCH   8   9
HETATM    9  C   UNL     1     -39.223 -49.172  12.384  1.00  0.00     0.001 C 
HETATM   10  C   UNL     1     -37.947 -49.533  11.620  1.00  0.00     0.011 C 
HETATM   11  C   UNL     1     -38.804 -48.562  13.734  1.00  0.00     0.011 C 
ENDBRANCH   8   9
BRANCH   8  12
HETATM   12  N   UNL     1     -40.466 -46.862  12.026  1.00  0.00    -0.402 N 
HETATM   13  C   UNL     1     -41.849 -46.369  11.996  1.00  0.00     0.143 C 
HETATM   14  C   UNL     1     -42.236 -45.696  10.671  1.00  0.00     0.187 C 
HETATM   15  O   UNL     1     -41.351 -44.614  10.360  1.00  0.00    -0.388 OA
HETATM   16  C   UNL     1     -39.986 -45.034  10.309  1.00  0.00     0.187 C 
HETATM   17  C   UNL     1     -39.549 -45.811  11.561  1.00  0.00     0.143 C 
ENDBRANCH   8  12
ENDBRANCH   7   8
ENDBRANCH   1   7
BRANCH   4  18
HETATM   18  C   UNL     1     -42.890 -53.461  12.954  1.00  0.00     0.039 A 
HETATM   19  C   UNL     1     -44.211 -53.796  12.679  1.00  0.00     0.046 A 
HETATM   20  C   UNL     1     -44.849 -54.698  13.506  1.00  0.00     0.090 A 
HETATM   21  N   UNL     1     -44.265 -55.274  14.575  1.00  0.00    -0.369 N 
HETATM   22  C   UNL     1     -42.977 -54.958  14.834  1.00  0.00     0.007 A 
ATOM     23  HN  UNL     1     -44.778 -55.926  15.169  1.00  0.00     0.165 HD
HETATM   24  C   UNL     1     -42.369 -55.569  16.053  1.00  0.00     0.068 C 
HETATM   25  C   UNL     1     -42.255 -54.074  14.039  1.00  0.00     0.054 A 
ENDBRANCH   4  18
TORSDOF 5
ENDMDL
MODEL 7
REMARK VINA RESULT:      -5.7      1.606      2.803
REMARK  5 active torsions:
REMARK  status: ('A' for Active; 'I' for Inactive)
REMARK    1  A    between atoms: C_2  and  C_4 
REMARK    2  A    between atoms: C_4  and  C_5 
REMARK    3  A    between atoms: C_4  and  N_18 
REMARK    4  A    between atoms: C_5  and  N_6 
REMARK       I    between atoms: N_6  and  C_7 
REMARK       I    between atoms: C_7  and  N_9 
REMARK    5  A    between atoms: N_9  and  C_10 
ROOT
HETATM    1  N   UNL     1     -41.680 -51.443  11.535  1.00  0.00    -0.341 N 
HETATM    2  C   UNL     1     -42.389 -51.940  12.611  1.00  0.00     0.320 C 
HETATM    3  O   UNL     1     -41.927 -51.926  13.747  1.00  0.00    -0.247 OA
HETATM    4  N   UNL     1     -43.601 -52.476  12.236  1.00  0.00    -0.309 N 
HETATM    5  H   UNL     1     -42.212 -50.964  10.821  1.00  0.00     0.164 HD
HETATM    6  H   UNL     1     -43.675 -52.717  11.260  1.00  0.00     0.170 HD
ENDROOT
BRANCH   1   7
HETATM    7  C   UNL     1     -40.366 -50.877  11.814  1.00  0.00     0.149 C 
BRANCH   7   8
HETATM    8  C   UNL     1     -40.402 -49.392  12.269  1.00  0.00     0.100 C 
BRANCH   8   9
HETATM    9  C   UNL     1     -41.249 -48.501  11.287  1.00  0.00     0.001 C 
HETATM   10  C   UNL     1     -42.713 -48.275  11.675  1.00  0.00     0.011 C 
HETATM   11  C   UNL     1     -40.612 -47.120  11.045  1.00  0.00     0.011 C 
ENDBRANCH   8   9
BRANCH   8  12
HETATM   12  N   UNL     1     -39.059 -48.935  12.708  1.00  0.00    -0.402 N 
HETATM   13  C   UNL     1     -37.913 -49.705  12.206  1.00  0.00     0.143 C 
HETATM   14  C   UNL     1     -37.474 -50.840  13.141  1.00  0.00     0.187 C 
HETATM   15  O   UNL     1     -37.163 -50.345  14.449  1.00  0.00    -0.388 OA
HETATM   16  C   UNL     1     -38.260 -49.636  15.030  1.00  0.00     0.187 C 
HETATM   17  C   UNL     1     -38.826 -48.546  14.106  1.00  0.00     0.143 C 
ENDBRANCH   8  12
ENDBRANCH   7   8
ENDBRANCH   1   7
BRANCH   4  18
HETATM   18  C   UNL     1     -44.543 -53.044  13.131  1.00  0.00     0.039 A 
HETATM   19  C   UNL     1     -44.747 -54.415  13.248  1.00  0.00     0.046 A 
HETATM   20  C   UNL     1     -45.727 -54.865  14.110  1.00  0.00     0.090 A 
HETATM   21  N   UNL     1     -46.505 -54.049  14.847  1.00  0.00    -0.369 N 
HETATM   22  C   UNL     1     -46.297 -52.718  14.743  1.00  0.00     0.007 A 
ATOM     23  HN  UNL     1     -47.228 -54.423  15.462  1.00  0.00     0.165 HD
HETATM   24  C   UNL     1     -47.207 -51.834  15.530  1.00  0.00     0.068 C 
HETATM   25  C   UNL     1     -45.318 -52.182  13.913  1.00  0.00     0.054 A 
ENDBRANCH   4  18
TORSDOF 5
ENDMDL
MODEL 8
REMARK VINA RESULT:      -5.6      2.164      3.008
REMARK  5 active torsions:
REMARK  status: ('A' for Active; 'I' for Inactive)
REMARK    1  A    between atoms: C_2  and  C_4 
REMARK    2  A    between atoms: C_4  and  C_5 
REMARK    3  A    between atoms: C_4  and  N_18 
REMARK    4  A    between atoms: C_5  and  N_6 
REMARK       I    between atoms: N_6  and  C_7 
REMARK       I    between atoms: C_7  and  N_9 
REMARK    5  A    between atoms: N_9  and  C_10 
ROOT
HETATM    1  N   UNL     1     -40.394 -51.681  12.179  1.00  0.00    -0.341 N 
HETATM    2  C   UNL     1     -41.400 -52.215  12.959  1.00  0.00     0.320 C 
HETATM    3  O   UNL     1     -41.190 -52.602  14.103  1.00  0.00    -0.247 OA
HETATM    4  N   UNL     1     -42.598 -52.298  12.284  1.00  0.00    -0.309 N 
HETATM    5  H   UNL     1     -40.649 -50.918  11.565  1.00  0.00     0.164 HD
HETATM    6  H   UNL     1     -42.522 -52.265  11.278  1.00  0.00     0.170 HD
ENDROOT
BRANCH   1   7
HETATM    7  C   UNL     1     -39.073 -51.574  12.786  1.00  0.00     0.149 C 
BRANCH   7   8
HETATM    8  C   UNL     1     -38.787 -50.192  13.434  1.00  0.00     0.100 C 
BRANCH   8   9
HETATM    9  C   UNL     1     -38.161 -49.181  12.404  1.00  0.00     0.001 C 
HETATM   10  C   UNL     1     -37.424 -49.802  11.215  1.00  0.00     0.011 C 
HETATM   11  C   UNL     1     -39.198 -48.189  11.845  1.00  0.00     0.011 C 
ENDBRANCH   8   9
BRANCH   8  12
HETATM   12  N   UNL     1     -38.176 -50.349  14.779  1.00  0.00    -0.402 N 
HETATM   13  C   UNL     1     -39.105 -50.391  15.916  1.00  0.00     0.143 C 
HETATM   14  C   UNL     1     -39.364 -49.018  16.553  1.00  0.00     0.187 C 
HETATM   15  O   UNL     1     -38.141 -48.403  16.975  1.00  0.00    -0.388 OA
HETATM   16  C   UNL     1     -37.207 -48.270  15.901  1.00  0.00     0.187 C 
HETATM   17  C   UNL     1     -36.973 -49.586  15.143  1.00  0.00     0.143 C 
ENDBRANCH   8  12
ENDBRANCH   7   8
ENDBRANCH   1   7
BRANCH   4  18
HETATM   18  C   UNL     1     -43.805 -52.792  12.840  1.00  0.00     0.039 A 
HETATM   19  C   UNL     1     -44.168 -54.133  12.796  1.00  0.00     0.046 A 
HETATM   20  C   UNL     1     -45.390 -54.505  13.319  1.00  0.00     0.090 A 
HETATM   21  N   UNL     1     -46.261 -53.637  13.869  1.00  0.00    -0.369 N 
HETATM   22  C   UNL     1     -45.902 -52.335  13.923  1.00  0.00     0.007 A 
ATOM     23  HN  UNL     1     -47.161 -53.951  14.232  1.00  0.00     0.165 HD
HETATM   24  C   UNL     1     -46.906 -51.386  14.491  1.00  0.00     0.068 C 
HETATM   25  C   UNL     1     -44.681 -51.880  13.438  1.00  0.00     0.054 A 
ENDBRANCH   4  18
TORSDOF 5
ENDMDL
MODEL 9
REMARK VINA RESULT:      -5.6      2.509      6.361
REMARK  5 active torsions:
REMARK  status: ('A' for Active; 'I' for Inactive)
REMARK    1  A    between atoms: C_2  and  C_4 
REMARK    2  A    between atoms: C_4  and  C_5 
REMARK    3  A    between atoms: C_4  and  N_18 
REMARK    4  A    between atoms: C_5  and  N_6 
REMARK       I    between atoms: N_6  and  C_7 
REMARK       I    between atoms: C_7  and  N_9 
REMARK    5  A    between atoms: N_9  and  C_10 
ROOT
HETATM    1  N   UNL     1     -40.631 -51.534  11.406  1.00  0.00    -0.341 N 
HETATM    2  C   UNL     1     -41.328 -50.347  11.506  1.00  0.00     0.320 C 
HETATM    3  O   UNL     1     -42.342 -50.253  12.190  1.00  0.00    -0.247 OA
HETATM    4  N   UNL     1     -40.782 -49.352  10.726  1.00  0.00    -0.309 N 
HETATM    5  H   UNL     1     -39.623 -51.468  11.354  1.00  0.00     0.164 HD
HETATM    6  H   UNL     1     -40.182 -49.675   9.983  1.00  0.00     0.170 HD
ENDROOT
BRANCH   1   7
HETATM    7  C   UNL     1     -41.140 -52.667  12.169  1.00  0.00     0.149 C 
BRANCH   7   8
HETATM    8  C   UNL     1     -40.859 -52.576  13.694  1.00  0.00     0.100 C 
BRANCH   8   9
HETATM    9  C   UNL     1     -39.339 -52.813  14.024  1.00  0.00     0.001 C 
HETATM   10  C   UNL     1     -38.730 -51.895  15.087  1.00  0.00     0.011 C 
HETATM   11  C   UNL     1     -39.045 -54.266  14.438  1.00  0.00     0.011 C 
ENDBRANCH   8   9
BRANCH   8  12
HETATM   12  N   UNL     1     -41.903 -53.290  14.473  1.00  0.00    -0.402 N 
HETATM   13  C   UNL     1     -42.989 -53.904  13.696  1.00  0.00     0.143 C 
HETATM   14  C   UNL     1     -44.210 -52.992  13.513  1.00  0.00     0.187 C 
HETATM   15  O   UNL     1     -44.730 -52.561  14.775  1.00  0.00    -0.388 OA
HETATM   16  C   UNL     1     -43.742 -51.894  15.564  1.00  0.00     0.187 C 
HETATM   17  C   UNL     1     -42.443 -52.702  15.708  1.00  0.00     0.143 C 
ENDBRANCH   8  12
ENDBRANCH   7   8
ENDBRANCH   1   7
BRANCH   4  18
HETATM   18  C   UNL     1     -41.281 -48.027  10.643  1.00  0.00     0.039 A 
HETATM   19  C   UNL     1     -40.720 -46.960  11.335  1.00  0.00     0.046 A 
HETATM   20  C   UNL     1     -41.314 -45.718  11.229  1.00  0.00     0.090 A 
HETATM   21  N   UNL     1     -42.417 -45.479  10.493  1.00  0.00    -0.369 N 
HETATM   22  C   UNL     1     -42.954 -46.514   9.810  1.00  0.00     0.007 A 
ATOM     23  HN  UNL     1     -42.832 -44.548  10.452  1.00  0.00     0.165 HD
HETATM   24  C   UNL     1     -44.205 -46.234   9.044  1.00  0.00     0.068 C 
HETATM   25  C   UNL     1     -42.407 -47.791   9.846  1.00  0.00     0.054 A 
ENDBRANCH   4  18
TORSDOF 5
ENDMDL
