MODEL 1
REMARK VINA RESULT:      -6.6      0.000      0.000
REMARK  4 active torsions:
REMARK  status: ('A' for Active; 'I' for Inactive)
REMARK    1  A    between atoms: C_2  and  C_3 
REMARK    2  A    between atoms: C_5  and  N_6 
REMARK       I    between atoms: N_6  and  C_7 
REMARK       I    between atoms: C_7  and  N_9 
REMARK    3  A    between atoms: N_9  and  C_10 
REMARK    4  A    between atoms: C_10  and  C_11 
ROOT
HETATM    1  N   UNL     1     -41.726 -48.307   9.598  1.00  0.00    -0.293 N 
HETATM    2  C   UNL     1     -41.376 -48.935  10.824  1.00  0.00     0.321 C 
HETATM    3  O   UNL     1     -41.975 -48.733  11.867  1.00  0.00    -0.247 OA
HETATM    4  N   UNL     1     -40.296 -49.752  10.690  1.00  0.00    -0.341 N 
HETATM    5  H   UNL     1     -41.132 -48.448   8.799  1.00  0.00     0.172 HD
HETATM    6  H   UNL     1     -40.065 -50.144   9.788  1.00  0.00     0.164 HD
ENDROOT
BRANCH   1   7
HETATM    7  C   UNL     1     -42.814 -47.440   9.492  1.00  0.00     0.127 A 
HETATM    8  C   UNL     1     -44.053 -47.712   8.954  1.00  0.00     0.076 A 
HETATM    9  C   UNL     1     -44.822 -46.544   9.125  1.00  0.00     0.029 A 
HETATM   10  N   UNL     1     -44.110 -45.571   9.700  1.00  0.00    -0.301 N 
HETATM   11  N   UNL     1     -42.896 -46.124   9.901  1.00  0.00    -0.281 N 
ATOM     12  HN  UNL     1     -44.415 -44.627   9.933  1.00  0.00     0.187 HD
HETATM   13  C   UNL     1     -41.876 -45.306  10.508  1.00  0.00     0.179 C 
BRANCH   9  14
HETATM   14  C   UNL     1     -46.255 -46.362   8.751  1.00  0.00     0.054 C 
HETATM   15  C   UNL     1     -47.081 -47.607   9.036  1.00  0.00     0.011 C 
ENDBRANCH   9  14
ENDBRANCH   1   7
BRANCH   4  16
HETATM   16  C   UNL     1     -39.911 -50.519  11.868  1.00  0.00     0.144 C 
BRANCH  16  17
HETATM   17  C   UNL     1     -38.585 -50.107  12.528  1.00  0.00     0.020 C 
HETATM   18  C   UNL     1     -37.517 -49.949  11.437  1.00  0.00     0.028 C 
HETATM   19  C   UNL     1     -38.117 -51.075  13.621  1.00  0.00     0.022 C 
HETATM   20  C   UNL     1     -37.282 -50.337  14.674  1.00  0.00     0.012 C 
HETATM   21  C   UNL     1     -37.391 -48.827  14.518  1.00  0.00     0.075 C 
HETATM   22  S   UNL     1     -38.814 -48.551  13.450  1.00  0.00    -0.158 SA
ENDBRANCH  16  17
ENDBRANCH   4  16
TORSDOF 4
ENDMDL
MODEL 2
REMARK VINA RESULT:      -6.0      2.646      7.291
REMARK  4 active torsions:
REMARK  status: ('A' for Active; 'I' for Inactive)
REMARK    1  A    between atoms: C_2  and  C_3 
REMARK    2  A    between atoms: C_5  and  N_6 
REMARK       I    between atoms: N_6  and  C_7 
REMARK       I    between atoms: C_7  and  N_9 
REMARK    3  A    between atoms: N_9  and  C_10 
REMARK    4  A    between atoms: C_10  and  C_11 
ROOT
HETATM    1  N   UNL     1     -40.612 -50.010  10.759  1.00  0.00    -0.293 N 
HETATM    2  C   UNL     1     -41.459 -48.888  10.971  1.00  0.00     0.321 C 
HETATM    3  O   UNL     1     -41.969 -48.637  12.051  1.00  0.00    -0.247 OA
HETATM    4  N   UNL     1     -41.642 -48.164   9.834  1.00  0.00    -0.341 N 
HETATM    5  H   UNL     1     -40.303 -50.208   9.823  1.00  0.00     0.172 HD
HETATM    6  H   UNL     1     -40.956 -48.200   9.094  1.00  0.00     0.164 HD
ENDROOT
BRANCH   1   7
HETATM    7  C   UNL     1     -40.269 -50.887  11.789  1.00  0.00     0.127 A 
HETATM    8  C   UNL     1     -40.973 -51.993  12.215  1.00  0.00     0.076 A 
HETATM    9  C   UNL     1     -40.200 -52.582  13.236  1.00  0.00     0.029 A 
HETATM   10  N   UNL     1     -39.092 -51.876  13.476  1.00  0.00    -0.301 N 
HETATM   11  N   UNL     1     -39.157 -50.849  12.604  1.00  0.00    -0.281 N 
ATOM     12  HN  UNL     1     -38.363 -52.070  14.163  1.00  0.00     0.187 HD
HETATM   13  C   UNL     1     -38.089 -49.881  12.624  1.00  0.00     0.179 C 
BRANCH   9  14
HETATM   14  C   UNL     1     -40.516 -53.838  13.976  1.00  0.00     0.054 C 
HETATM   15  C   UNL     1     -41.961 -54.269  13.777  1.00  0.00     0.011 C 
ENDBRANCH   9  14
ENDBRANCH   1   7
BRANCH   4  16
HETATM   16  C   UNL     1     -42.419 -46.937   9.964  1.00  0.00     0.144 C 
BRANCH  16  17
HETATM   17  C   UNL     1     -43.786 -46.936   9.262  1.00  0.00     0.020 C 
HETATM   18  C   UNL     1     -44.161 -45.489   8.911  1.00  0.00     0.028 C 
HETATM   19  C   UNL     1     -44.895 -47.611  10.076  1.00  0.00     0.022 C 
HETATM   20  C   UNL     1     -45.959 -48.208   9.147  1.00  0.00     0.012 C 
HETATM   21  C   UNL     1     -45.489 -48.235   7.701  1.00  0.00     0.075 C 
HETATM   22  S   UNL     1     -43.708 -47.972   7.763  1.00  0.00    -0.158 SA
ENDBRANCH  16  17
ENDBRANCH   4  16
TORSDOF 4
ENDMDL
MODEL 3
REMARK VINA RESULT:      -6.0      3.942      5.679
REMARK  4 active torsions:
REMARK  status: ('A' for Active; 'I' for Inactive)
REMARK    1  A    between atoms: C_2  and  C_3 
REMARK    2  A    between atoms: C_5  and  N_6 
REMARK       I    between atoms: N_6  and  C_7 
REMARK       I    between atoms: C_7  and  N_9 
REMARK    3  A    between atoms: N_9  and  C_10 
REMARK    4  A    between atoms: C_10  and  C_11 
ROOT
HETATM    1  N   UNL     1     -41.821 -49.416  11.014  1.00  0.00    -0.293 N 
HETATM    2  C   UNL     1     -42.196 -49.864  12.310  1.00  0.00     0.321 C 
HETATM    3  O   UNL     1     -42.290 -49.115  13.269  1.00  0.00    -0.247 OA
HETATM    4  N   UNL     1     -42.406 -51.208  12.346  1.00  0.00    -0.341 N 
HETATM    5  H   UNL     1     -41.672 -50.102  10.294  1.00  0.00     0.172 HD
HETATM    6  H   UNL     1     -42.653 -51.705  11.502  1.00  0.00     0.164 HD
ENDROOT
BRANCH   1   7
HETATM    7  C   UNL     1     -41.571 -48.072  10.736  1.00  0.00     0.127 A 
HETATM    8  C   UNL     1     -40.497 -47.317  11.153  1.00  0.00     0.076 A 
HETATM    9  C   UNL     1     -40.663 -46.043  10.574  1.00  0.00     0.029 A 
HETATM   10  N   UNL     1     -41.791 -45.974   9.863  1.00  0.00    -0.301 N 
HETATM   11  N   UNL     1     -42.334 -47.203   9.984  1.00  0.00    -0.281 N 
ATOM     12  HN  UNL     1     -42.158 -45.174   9.347  1.00  0.00     0.187 HD
HETATM   13  C   UNL     1     -43.593 -47.450   9.325  1.00  0.00     0.179 C 
BRANCH   9  14
HETATM   14  C   UNL     1     -39.726 -44.887  10.687  1.00  0.00     0.054 C 
HETATM   15  C   UNL     1     -38.979 -44.631   9.388  1.00  0.00     0.011 C 
ENDBRANCH   9  14
ENDBRANCH   1   7
BRANCH   4  16
HETATM   16  C   UNL     1     -42.888 -51.756  13.608  1.00  0.00     0.144 C 
BRANCH  16  17
HETATM   17  C   UNL     1     -44.327 -52.295  13.595  1.00  0.00     0.020 C 
HETATM   18  C   UNL     1     -44.428 -53.414  12.549  1.00  0.00     0.028 C 
HETATM   19  C   UNL     1     -45.385 -51.213  13.348  1.00  0.00     0.022 C 
HETATM   20  C   UNL     1     -46.711 -51.594  14.017  1.00  0.00     0.012 C 
HETATM   21  C   UNL     1     -46.541 -52.764  14.974  1.00  0.00     0.075 C 
HETATM   22  S   UNL     1     -44.769 -52.909  15.254  1.00  0.00    -0.158 SA
ENDBRANCH  16  17
ENDBRANCH   4  16
TORSDOF 4
ENDMDL
MODEL 4
REMARK VINA RESULT:      -5.8      3.204      4.132
REMARK  4 active torsions:
REMARK  status: ('A' for Active; 'I' for Inactive)
REMARK    1  A    between atoms: C_2  and  C_3 
REMARK    2  A    between atoms: C_5  and  N_6 
REMARK       I    between atoms: N_6  and  C_7 
REMARK       I    between atoms: C_7  and  N_9 
REMARK    3  A    between atoms: N_9  and  C_10 
REMARK    4  A    between atoms: C_10  and  C_11 
ROOT
HETATM    1  N   UNL     1     -41.323 -49.331  10.770  1.00  0.00    -0.293 N 
HETATM    2  C   UNL     1     -41.576 -49.842  12.073  1.00  0.00     0.321 C 
HETATM    3  O   UNL     1     -42.173 -49.209  12.928  1.00  0.00    -0.247 OA
HETATM    4  N   UNL     1     -41.056 -51.087  12.244  1.00  0.00    -0.341 N 
HETATM    5  H   UNL     1     -40.744 -49.869  10.148  1.00  0.00     0.172 HD
HETATM    6  H   UNL     1     -40.892 -51.683  11.445  1.00  0.00     0.164 HD
ENDROOT
BRANCH   1   7
HETATM    7  C   UNL     1     -41.778 -48.077  10.362  1.00  0.00     0.127 A 
HETATM    8  C   UNL     1     -42.935 -47.791   9.671  1.00  0.00     0.076 A 
HETATM    9  C   UNL     1     -42.980 -46.389   9.543  1.00  0.00     0.029 A 
HETATM   10  N   UNL     1     -41.902 -45.814  10.083  1.00  0.00    -0.301 N 
HETATM   11  N   UNL     1     -41.180 -46.849  10.560  1.00  0.00    -0.281 N 
ATOM     12  HN  UNL     1     -41.677 -44.820  10.125  1.00  0.00     0.187 HD
HETATM   13  C   UNL     1     -39.925 -46.554  11.204  1.00  0.00     0.179 C 
BRANCH   9  14
HETATM   14  C   UNL     1     -44.071 -45.589   8.914  1.00  0.00     0.054 C 
HETATM   15  C   UNL     1     -45.399 -46.333   8.920  1.00  0.00     0.011 C 
ENDBRANCH   9  14
ENDBRANCH   1   7
BRANCH   4  16
HETATM   16  C   UNL     1     -41.342 -51.741  13.515  1.00  0.00     0.144 C 
BRANCH  16  17
HETATM   17  C   UNL     1     -42.081 -53.085  13.423  1.00  0.00     0.020 C 
HETATM   18  C   UNL     1     -41.078 -54.174  13.013  1.00  0.00     0.028 C 
HETATM   19  C   UNL     1     -43.285 -53.060  12.474  1.00  0.00     0.022 C 
HETATM   20  C   UNL     1     -44.344 -54.075  12.921  1.00  0.00     0.012 C 
HETATM   21  C   UNL     1     -44.058 -54.606  14.317  1.00  0.00     0.075 C 
HETATM   22  S   UNL     1     -42.850 -53.476  15.029  1.00  0.00    -0.158 SA
ENDBRANCH  16  17
ENDBRANCH   4  16
TORSDOF 4
ENDMDL
MODEL 5
REMARK VINA RESULT:      -5.8      4.154      6.276
REMARK  4 active torsions:
REMARK  status: ('A' for Active; 'I' for Inactive)
REMARK    1  A    between atoms: C_2  and  C_3 
REMARK    2  A    between atoms: C_5  and  N_6 
REMARK       I    between atoms: N_6  and  C_7 
REMARK       I    between atoms: C_7  and  N_9 
REMARK    3  A    between atoms: N_9  and  C_10 
REMARK    4  A    between atoms: C_10  and  C_11 
ROOT
HETATM    1  N   UNL     1     -41.455 -51.021  11.367  1.00  0.00    -0.293 N 
HETATM    2  C   UNL     1     -41.915 -51.681  12.539  1.00  0.00     0.321 C 
HETATM    3  O   UNL     1     -41.788 -51.211  13.658  1.00  0.00    -0.247 OA
HETATM    4  N   UNL     1     -42.479 -52.887  12.259  1.00  0.00    -0.341 N 
HETATM    5  H   UNL     1     -41.509 -51.509  10.489  1.00  0.00     0.172 HD
HETATM    6  H   UNL     1     -42.864 -53.066  11.343  1.00  0.00     0.164 HD
ENDROOT
BRANCH   1   7
HETATM    7  C   UNL     1     -40.858 -49.761  11.410  1.00  0.00     0.127 A 
HETATM    8  C   UNL     1     -41.468 -48.539  11.232  1.00  0.00     0.076 A 
HETATM    9  C   UNL     1     -40.466 -47.567  11.423  1.00  0.00     0.029 A 
HETATM   10  N   UNL     1     -39.280 -48.130  11.668  1.00  0.00    -0.301 N 
HETATM   11  N   UNL     1     -39.532 -49.455  11.642  1.00  0.00    -0.281 N 
ATOM     12  HN  UNL     1     -38.389 -47.665  11.836  1.00  0.00     0.187 HD
HETATM   13  C   UNL     1     -38.428 -50.355  11.864  1.00  0.00     0.179 C 
BRANCH   9  14
HETATM   14  C   UNL     1     -40.647 -46.086  11.387  1.00  0.00     0.054 C 
HETATM   15  C   UNL     1     -39.741 -45.427  10.357  1.00  0.00     0.011 C 
ENDBRANCH   9  14
ENDBRANCH   1   7
BRANCH   4  16
HETATM   16  C   UNL     1     -43.069 -53.605  13.382  1.00  0.00     0.144 C 
BRANCH  16  17
HETATM   17  C   UNL     1     -44.587 -53.441  13.555  1.00  0.00     0.020 C 
HETATM   18  C   UNL     1     -45.218 -54.829  13.735  1.00  0.00     0.028 C 
HETATM   19  C   UNL     1     -45.257 -52.676  12.407  1.00  0.00     0.022 C 
HETATM   20  C   UNL     1     -46.507 -51.943  12.905  1.00  0.00     0.012 C 
HETATM   21  C   UNL     1     -46.579 -51.923  14.424  1.00  0.00     0.075 C 
HETATM   22  S   UNL     1     -44.931 -52.375  14.994  1.00  0.00    -0.158 SA
ENDBRANCH  16  17
ENDBRANCH   4  16
TORSDOF 4
ENDMDL
MODEL 6
REMARK VINA RESULT:      -5.6      3.051      4.534
REMARK  4 active torsions:
REMARK  status: ('A' for Active; 'I' for Inactive)
REMARK    1  A    between atoms: C_2  and  C_3 
REMARK    2  A    between atoms: C_5  and  N_6 
REMARK       I    between atoms: N_6  and  C_7 
REMARK       I    between atoms: C_7  and  N_9 
REMARK    3  A    between atoms: N_9  and  C_10 
REMARK    4  A    between atoms: C_10  and  C_11 
ROOT
HETATM    1  N   UNL     1     -42.170 -49.199  11.343  1.00  0.00    -0.293 N 
HETATM    2  C   UNL     1     -41.231 -50.260  11.460  1.00  0.00     0.321 C 
HETATM    3  O   UNL     1     -40.055 -50.141  11.156  1.00  0.00    -0.247 OA
HETATM    4  N   UNL     1     -41.805 -51.403  11.922  1.00  0.00    -0.341 N 
HETATM    5  H   UNL     1     -43.140 -49.395  11.523  1.00  0.00     0.172 HD
HETATM    6  H   UNL     1     -42.653 -51.360  12.469  1.00  0.00     0.164 HD
ENDROOT
BRANCH   1   7
HETATM    7  C   UNL     1     -41.803 -47.927  10.905  1.00  0.00     0.127 A 
HETATM    8  C   UNL     1     -40.821 -47.113  11.427  1.00  0.00     0.076 A 
HETATM    9  C   UNL     1     -40.791 -45.961  10.616  1.00  0.00     0.029 A 
HETATM   10  N   UNL     1     -41.721 -46.016   9.658  1.00  0.00    -0.301 N 
HETATM   11  N   UNL     1     -42.331 -47.202   9.856  1.00  0.00    -0.281 N 
ATOM     12  HN  UNL     1     -41.922 -45.319   8.940  1.00  0.00     0.187 HD
HETATM   13  C   UNL     1     -43.414 -47.558   8.973  1.00  0.00     0.179 C 
BRANCH   9  14
HETATM   14  C   UNL     1     -39.855 -44.807  10.746  1.00  0.00     0.054 C 
HETATM   15  C   UNL     1     -40.508 -43.619  11.436  1.00  0.00     0.011 C 
ENDBRANCH   9  14
ENDBRANCH   1   7
BRANCH   4  16
HETATM   16  C   UNL     1     -40.910 -52.526  12.170  1.00  0.00     0.144 C 
BRANCH  16  17
HETATM   17  C   UNL     1     -41.202 -53.346  13.437  1.00  0.00     0.020 C 
HETATM   18  C   UNL     1     -39.999 -54.253  13.729  1.00  0.00     0.028 C 
HETATM   19  C   UNL     1     -42.499 -54.160  13.355  1.00  0.00     0.022 C 
HETATM   20  C   UNL     1     -43.101 -54.357  14.751  1.00  0.00     0.012 C 
HETATM   21  C   UNL     1     -42.432 -53.459  15.782  1.00  0.00     0.075 C 
HETATM   22  S   UNL     1     -41.528 -52.222  14.835  1.00  0.00    -0.158 SA
ENDBRANCH  16  17
ENDBRANCH   4  16
TORSDOF 4
ENDMDL
MODEL 7
REMARK VINA RESULT:      -5.6      4.353      7.009
REMARK  4 active torsions:
REMARK  status: ('A' for Active; 'I' for Inactive)
REMARK    1  A    between atoms: C_2  and  C_3 
REMARK    2  A    between atoms: C_5  and  N_6 
REMARK       I    between atoms: N_6  and  C_7 
REMARK       I    between atoms: C_7  and  N_9 
REMARK    3  A    between atoms: N_9  and  C_10 
REMARK    4  A    between atoms: C_10  and  C_11 
ROOT
HETATM    1  N   UNL     1     -42.376 -51.950  11.889  1.00  0.00    -0.293 N 
HETATM    2  C   UNL     1     -42.194 -50.631  12.388  1.00  0.00     0.321 C 
HETATM    3  O   UNL     1     -42.554 -50.289  13.503  1.00  0.00    -0.247 OA
HETATM    4  N   UNL     1     -41.604 -49.815  11.474  1.00  0.00    -0.341 N 
HETATM    5  H   UNL     1     -42.140 -52.136  10.930  1.00  0.00     0.172 HD
HETATM    6  H   UNL     1     -41.031 -50.206  10.740  1.00  0.00     0.164 HD
ENDROOT
BRANCH   1   7
HETATM    7  C   UNL     1     -42.946 -52.964  12.659  1.00  0.00     0.127 A 
HETATM    8  C   UNL     1     -44.263 -53.371  12.664  1.00  0.00     0.076 A 
HETATM    9  C   UNL     1     -44.337 -54.456  13.560  1.00  0.00     0.029 A 
HETATM   10  N   UNL     1     -43.152 -54.704  14.124  1.00  0.00    -0.301 N 
HETATM   11  N   UNL     1     -42.328 -53.785  13.580  1.00  0.00    -0.281 N 
ATOM     12  HN  UNL     1     -42.923 -55.424  14.809  1.00  0.00     0.187 HD
HETATM   13  C   UNL     1     -40.949 -53.782  14.003  1.00  0.00     0.179 C 
BRANCH   9  14
HETATM   14  C   UNL     1     -45.546 -55.273  13.867  1.00  0.00     0.054 C 
HETATM   15  C   UNL     1     -46.531 -54.523  14.752  1.00  0.00     0.011 C 
ENDBRANCH   9  14
ENDBRANCH   1   7
BRANCH   4  16
HETATM   16  C   UNL     1     -41.285 -48.464  11.919  1.00  0.00     0.144 C 
BRANCH  16  17
HETATM   17  C   UNL     1     -42.299 -47.377  11.529  1.00  0.00     0.020 C 
HETATM   18  C   UNL     1     -43.003 -46.877  12.799  1.00  0.00     0.028 C 
HETATM   19  C   UNL     1     -43.317 -47.836  10.479  1.00  0.00     0.022 C 
HETATM   20  C   UNL     1     -43.796 -46.647   9.637  1.00  0.00     0.012 C 
HETATM   21  C   UNL     1     -42.931 -45.416   9.862  1.00  0.00     0.075 C 
HETATM   22  S   UNL     1     -41.440 -46.012  10.678  1.00  0.00    -0.158 SA
ENDBRANCH  16  17
ENDBRANCH   4  16
TORSDOF 4
ENDMDL
MODEL 8
REMARK VINA RESULT:      -5.5      2.954      6.204
REMARK  4 active torsions:
REMARK  status: ('A' for Active; 'I' for Inactive)
REMARK    1  A    between atoms: C_2  and  C_3 
REMARK    2  A    between atoms: C_5  and  N_6 
REMARK       I    between atoms: N_6  and  C_7 
REMARK       I    between atoms: C_7  and  N_9 
REMARK    3  A    between atoms: N_9  and  C_10 
REMARK    4  A    between atoms: C_10  and  C_11 
ROOT
HETATM    1  N   UNL     1     -40.463 -49.614  10.917  1.00  0.00    -0.293 N 
HETATM    2  C   UNL     1     -41.098 -48.408  11.322  1.00  0.00     0.321 C 
HETATM    3  O   UNL     1     -41.673 -48.289  12.392  1.00  0.00    -0.247 OA
HETATM    4  N   UNL     1     -41.005 -47.437  10.374  1.00  0.00    -0.341 N 
HETATM    5  H   UNL     1     -40.090 -49.669   9.984  1.00  0.00     0.172 HD
HETATM    6  H   UNL     1     -40.256 -47.460   9.696  1.00  0.00     0.164 HD
ENDROOT
BRANCH   1   7
HETATM    7  C   UNL     1     -40.417 -50.741  11.737  1.00  0.00     0.127 A 
HETATM    8  C   UNL     1     -41.276 -51.819  11.726  1.00  0.00     0.076 A 
HETATM    9  C   UNL     1     -40.789 -52.721  12.693  1.00  0.00     0.029 A 
HETATM   10  N   UNL     1     -39.710 -52.235  13.313  1.00  0.00    -0.301 N 
HETATM   11  N   UNL     1     -39.509 -51.034  12.733  1.00  0.00    -0.281 N 
ATOM     12  HN  UNL     1     -39.164 -52.673  14.054  1.00  0.00     0.187 HD
HETATM   13  C   UNL     1     -38.402 -50.237  13.201  1.00  0.00     0.179 C 
BRANCH   9  14
HETATM   14  C   UNL     1     -41.350 -54.064  13.016  1.00  0.00     0.054 C 
HETATM   15  C   UNL     1     -42.816 -53.990  13.413  1.00  0.00     0.011 C 
ENDBRANCH   9  14
ENDBRANCH   1   7
BRANCH   4  16
HETATM   16  C   UNL     1     -41.541 -46.129  10.729  1.00  0.00     0.144 C 
BRANCH  16  17
HETATM   17  C   UNL     1     -40.502 -45.057  11.092  1.00  0.00     0.020 C 
HETATM   18  C   UNL     1     -39.490 -44.939   9.943  1.00  0.00     0.028 C 
HETATM   19  C   UNL     1     -39.792 -45.316  12.426  1.00  0.00     0.022 C 
HETATM   20  C   UNL     1     -39.353 -43.995  13.069  1.00  0.00     0.012 C 
HETATM   21  C   UNL     1     -39.988 -42.797  12.378  1.00  0.00     0.075 C 
HETATM   22  S   UNL     1     -41.339 -43.465  11.391  1.00  0.00    -0.158 SA
ENDBRANCH  16  17
ENDBRANCH   4  16
TORSDOF 4
ENDMDL
MODEL 9
REMARK VINA RESULT:      -5.4      5.325      6.159
REMARK  4 active torsions:
REMARK  status: ('A' for Active; 'I' for Inactive)
REMARK    1  A    between atoms: C_2  and  C_3 
REMARK    2  A    between atoms: C_5  and  N_6 
REMARK       I    between atoms: N_6  and  C_7 
REMARK       I    between atoms: C_7  and  N_9 
REMARK    3  A    between atoms: N_9  and  C_10 
REMARK    4  A    between atoms: C_10  and  C_11 
ROOT
HETATM    1  N   UNL     1     -44.353 -51.818  12.831  1.00  0.00    -0.293 N 
HETATM    2  C   UNL     1     -42.957 -51.852  13.099  1.00  0.00     0.321 C 
HETATM    3  O   UNL     1     -42.500 -52.094  14.204  1.00  0.00    -0.247 OA
HETATM    4  N   UNL     1     -42.217 -51.562  11.995  1.00  0.00    -0.341 N 
HETATM    5  H   UNL     1     -44.660 -51.520  11.921  1.00  0.00     0.172 HD
HETATM    6  H   UNL     1     -42.601 -51.711  11.073  1.00  0.00     0.164 HD
ENDROOT
BRANCH   1   7
HETATM    7  C   UNL     1     -45.305 -52.101  13.811  1.00  0.00     0.127 A 
HETATM    8  C   UNL     1     -45.960 -51.203  14.625  1.00  0.00     0.076 A 
HETATM    9  C   UNL     1     -46.857 -51.960  15.404  1.00  0.00     0.029 A 
HETATM   10  N   UNL     1     -46.757 -53.264  15.135  1.00  0.00    -0.301 N 
HETATM   11  N   UNL     1     -45.805 -53.333  14.181  1.00  0.00    -0.281 N 
ATOM     12  HN  UNL     1     -47.281 -54.032  15.554  1.00  0.00     0.187 HD
HETATM   13  C   UNL     1     -45.450 -54.636  13.678  1.00  0.00     0.179 C 
BRANCH   9  14
HETATM   14  C   UNL     1     -47.832 -51.431  16.402  1.00  0.00     0.054 C 
HETATM   15  C   UNL     1     -47.143 -50.654  17.514  1.00  0.00     0.011 C 
ENDBRANCH   9  14
ENDBRANCH   1   7
BRANCH   4  16
HETATM   16  C   UNL     1     -40.770 -51.662  12.138  1.00  0.00     0.144 C 
BRANCH  16  17
HETATM   17  C   UNL     1     -40.005 -50.329  12.137  1.00  0.00     0.020 C 
HETATM   18  C   UNL     1     -40.681 -49.372  11.145  1.00  0.00     0.028 C 
HETATM   19  C   UNL     1     -38.511 -50.479  11.828  1.00  0.00     0.022 C 
HETATM   20  C   UNL     1     -37.707 -49.360  12.500  1.00  0.00     0.012 C 
HETATM   21  C   UNL     1     -38.547 -48.597  13.514  1.00  0.00     0.075 C 
HETATM   22  S   UNL     1     -39.993 -49.626  13.819  1.00  0.00    -0.158 SA
ENDBRANCH  16  17
ENDBRANCH   4  16
TORSDOF 4
ENDMDL
