MODEL 1
REMARK VINA RESULT:      -6.2      0.000      0.000
REMARK  6 active torsions:
REMARK  status: ('A' for Active; 'I' for Inactive)
REMARK    1  A    between atoms: C_2  and  N_3 
REMARK    2  A    between atoms: N_6  and  C_7 
REMARK    3  A    between atoms: C_7  and  C_8 
REMARK    4  A    between atoms: C_8  and  O_11 
REMARK    5  A    between atoms: C_14  and  S_18 
REMARK    6  A    between atoms: S_18  and  N_21 
ROOT
HETATM    1  N   UNL     1     -40.958 -45.848  10.625  1.00  0.00    -0.298 N 
HETATM    2  C   UNL     1     -42.343 -45.764  10.339  1.00  0.00     0.330 A 
HETATM    3  O   UNL     1     -42.961 -44.780   9.972  1.00  0.00    -0.246 OA
HETATM    4  N   UNL     1     -42.875 -47.047  10.596  1.00  0.00    -0.294 N 
HETATM    5  C   UNL     1     -41.849 -47.883  11.055  1.00  0.00     0.067 A 
HETATM    6  C   UNL     1     -41.902 -49.194  11.478  1.00  0.00     0.057 A 
HETATM    7  C   UNL     1     -40.705 -49.753  11.940  1.00  0.00     0.077 A 
HETATM    8  C   UNL     1     -39.490 -49.031  11.904  1.00  0.00     0.027 A 
HETATM    9  C   UNL     1     -39.463 -47.703  11.462  1.00  0.00     0.034 A 
HETATM   10  C   UNL     1     -40.661 -47.146  11.063  1.00  0.00     0.066 A 
ENDROOT
BRANCH   4  11
HETATM   11  C   UNL     1     -44.245 -47.445  10.367  1.00  0.00     0.171 C 
BRANCH  11  12
HETATM   12  C   UNL     1     -44.714 -47.332   8.896  1.00  0.00     0.067 C 
HETATM   13  C   UNL     1     -43.627 -47.757   7.906  1.00  0.00     0.047 C 
HETATM   14  C   UNL     1     -45.967 -48.195   8.709  1.00  0.00     0.047 C 
BRANCH  12  15
HETATM   15  O   UNL     1     -45.097 -45.982   8.591  1.00  0.00    -0.389 OA
HETATM   16  H   UNL     1     -44.803 -45.437   9.343  1.00  0.00     0.210 HD
ENDBRANCH  12  15
ENDBRANCH  11  12
ENDBRANCH   4  11
BRANCH   1  17
HETATM   17  C   UNL     1     -40.058 -44.722  10.662  1.00  0.00     0.130 C 
HETATM   18  C   UNL     1     -40.082 -44.035  12.019  1.00  0.00     0.027 C 
ENDBRANCH   1  17
BRANCH   7  19
HETATM   19  S   UNL     1     -40.706 -51.426  12.540  1.00  0.00     0.243 S 
HETATM   20  O   UNL     1     -41.644 -52.193  11.748  1.00  0.00    -0.206 OA
HETATM   21  O   UNL     1     -39.319 -51.830  12.657  1.00  0.00    -0.206 OA
BRANCH  19  22
HETATM   22  N   UNL     1     -41.358 -51.267  14.119  1.00  0.00    -0.215 NA
HETATM   23  C   UNL     1     -42.719 -51.827  14.303  1.00  0.00     0.129 C 
HETATM   24  C   UNL     1     -40.438 -51.765  15.170  1.00  0.00     0.129 C 
ENDBRANCH  19  22
ENDBRANCH   7  19
TORSDOF 6
ENDMDL
MODEL 2
REMARK VINA RESULT:      -5.9      2.766      4.224
REMARK  6 active torsions:
REMARK  status: ('A' for Active; 'I' for Inactive)
REMARK    1  A    between atoms: C_2  and  N_3 
REMARK    2  A    between atoms: N_6  and  C_7 
REMARK    3  A    between atoms: C_7  and  C_8 
REMARK    4  A    between atoms: C_8  and  O_11 
REMARK    5  A    between atoms: C_14  and  S_18 
REMARK    6  A    between atoms: S_18  and  N_21 
ROOT
HETATM    1  N   UNL     1     -39.458 -49.822  12.241  1.00  0.00    -0.298 N 
HETATM    2  C   UNL     1     -40.045 -48.552  12.016  1.00  0.00     0.330 A 
HETATM    3  O   UNL     1     -39.467 -47.498  11.812  1.00  0.00    -0.246 OA
HETATM    4  N   UNL     1     -41.441 -48.744  12.106  1.00  0.00    -0.294 N 
HETATM    5  C   UNL     1     -41.699 -50.087  12.408  1.00  0.00     0.067 A 
HETATM    6  C   UNL     1     -42.898 -50.725  12.643  1.00  0.00     0.057 A 
HETATM    7  C   UNL     1     -42.833 -52.081  12.982  1.00  0.00     0.077 A 
HETATM    8  C   UNL     1     -41.603 -52.777  13.008  1.00  0.00     0.027 A 
HETATM    9  C   UNL     1     -40.399 -52.108  12.758  1.00  0.00     0.034 A 
HETATM   10  C   UNL     1     -40.474 -50.757  12.481  1.00  0.00     0.066 A 
ENDROOT
BRANCH   4  11
HETATM   11  C   UNL     1     -42.442 -47.729  11.869  1.00  0.00     0.171 C 
BRANCH  11  12
HETATM   12  C   UNL     1     -42.697 -47.409  10.375  1.00  0.00     0.067 C 
HETATM   13  C   UNL     1     -44.175 -47.534   9.999  1.00  0.00     0.047 C 
HETATM   14  C   UNL     1     -42.193 -45.992  10.081  1.00  0.00     0.047 C 
BRANCH  12  15
HETATM   15  O   UNL     1     -41.943 -48.295   9.534  1.00  0.00    -0.389 OA
HETATM   16  H   UNL     1     -41.777 -49.099  10.060  1.00  0.00     0.210 HD
ENDBRANCH  12  15
ENDBRANCH  11  12
ENDBRANCH   4  11
BRANCH   1  17
HETATM   17  C   UNL     1     -38.045 -50.055  12.408  1.00  0.00     0.130 C 
HETATM   18  C   UNL     1     -37.322 -50.073  11.071  1.00  0.00     0.027 C 
ENDBRANCH   1  17
BRANCH   7  19
HETATM   19  S   UNL     1     -44.337 -52.958  13.339  1.00  0.00     0.243 S 
HETATM   20  O   UNL     1     -44.564 -53.920  12.281  1.00  0.00    -0.206 OA
HETATM   21  O   UNL     1     -44.261 -53.374  14.725  1.00  0.00    -0.206 OA
BRANCH  19  22
HETATM   22  N   UNL     1     -45.534 -51.737  13.205  1.00  0.00    -0.215 NA
HETATM   23  C   UNL     1     -46.572 -51.976  12.173  1.00  0.00     0.129 C 
HETATM   24  C   UNL     1     -46.156 -51.401  14.509  1.00  0.00     0.129 C 
ENDBRANCH  19  22
ENDBRANCH   7  19
TORSDOF 6
ENDMDL
MODEL 3
REMARK VINA RESULT:      -5.9      3.898      7.259
REMARK  6 active torsions:
REMARK  status: ('A' for Active; 'I' for Inactive)
REMARK    1  A    between atoms: C_2  and  N_3 
REMARK    2  A    between atoms: N_6  and  C_7 
REMARK    3  A    between atoms: C_7  and  C_8 
REMARK    4  A    between atoms: C_8  and  O_11 
REMARK    5  A    between atoms: C_14  and  S_18 
REMARK    6  A    between atoms: S_18  and  N_21 
ROOT
HETATM    1  N   UNL     1     -42.671 -54.764  15.107  1.00  0.00    -0.298 N 
HETATM    2  C   UNL     1     -43.873 -54.704  14.360  1.00  0.00     0.330 A 
HETATM    3  O   UNL     1     -44.851 -55.423  14.477  1.00  0.00    -0.246 OA
HETATM    4  N   UNL     1     -43.703 -53.660  13.425  1.00  0.00    -0.294 N 
HETATM    5  C   UNL     1     -42.421 -53.117  13.577  1.00  0.00     0.067 A 
HETATM    6  C   UNL     1     -41.791 -52.123  12.858  1.00  0.00     0.057 A 
HETATM    7  C   UNL     1     -40.469 -51.832  13.212  1.00  0.00     0.077 A 
HETATM    8  C   UNL     1     -39.838 -52.474  14.302  1.00  0.00     0.027 A 
HETATM    9  C   UNL     1     -40.502 -53.475  15.021  1.00  0.00     0.034 A 
HETATM   10  C   UNL     1     -41.786 -53.791  14.624  1.00  0.00     0.066 A 
ENDROOT
BRANCH   4  11
HETATM   11  C   UNL     1     -44.710 -53.191  12.502  1.00  0.00     0.171 C 
BRANCH  11  12
HETATM   12  C   UNL     1     -45.894 -52.441  13.161  1.00  0.00     0.067 C 
HETATM   13  C   UNL     1     -45.426 -51.416  14.197  1.00  0.00     0.047 C 
HETATM   14  C   UNL     1     -46.713 -51.751  12.066  1.00  0.00     0.047 C 
BRANCH  12  15
HETATM   15  O   UNL     1     -46.777 -53.367  13.812  1.00  0.00    -0.389 OA
HETATM   16  H   UNL     1     -46.790 -54.169  13.259  1.00  0.00     0.210 HD
ENDBRANCH  12  15
ENDBRANCH  11  12
ENDBRANCH   4  11
BRANCH   1  17
HETATM   17  C   UNL     1     -42.346 -55.800  16.056  1.00  0.00     0.130 C 
HETATM   18  C   UNL     1     -42.649 -55.365  17.482  1.00  0.00     0.027 C 
ENDBRANCH   1  17
BRANCH   7  19
HETATM   19  S   UNL     1     -39.582 -50.591  12.301  1.00  0.00     0.243 S 
HETATM   20  O   UNL     1     -38.240 -51.078  12.057  1.00  0.00    -0.206 OA
HETATM   21  O   UNL     1     -40.439 -50.180  11.207  1.00  0.00    -0.206 OA
BRANCH  19  22
HETATM   22  N   UNL     1     -39.475 -49.295  13.420  1.00  0.00    -0.215 NA
HETATM   23  C   UNL     1     -38.098 -48.862  13.762  1.00  0.00     0.129 C 
HETATM   24  C   UNL     1     -40.310 -48.133  13.030  1.00  0.00     0.129 C 
ENDBRANCH  19  22
ENDBRANCH   7  19
TORSDOF 6
ENDMDL
MODEL 4
REMARK VINA RESULT:      -5.7      4.452      7.510
REMARK  6 active torsions:
REMARK  status: ('A' for Active; 'I' for Inactive)
REMARK    1  A    between atoms: C_2  and  N_3 
REMARK    2  A    between atoms: N_6  and  C_7 
REMARK    3  A    between atoms: C_7  and  C_8 
REMARK    4  A    between atoms: C_8  and  O_11 
REMARK    5  A    between atoms: C_14  and  S_18 
REMARK    6  A    between atoms: S_18  and  N_21 
ROOT
HETATM    1  N   UNL     1     -39.606 -53.870  15.110  1.00  0.00    -0.298 N 
HETATM    2  C   UNL     1     -39.331 -53.053  13.986  1.00  0.00     0.330 A 
HETATM    3  O   UNL     1     -38.254 -52.582  13.662  1.00  0.00    -0.246 OA
HETATM    4  N   UNL     1     -40.566 -52.865  13.326  1.00  0.00    -0.294 N 
HETATM    5  C   UNL     1     -41.572 -53.523  14.044  1.00  0.00     0.067 A 
HETATM    6  C   UNL     1     -42.931 -53.574  13.817  1.00  0.00     0.057 A 
HETATM    7  C   UNL     1     -43.699 -54.274  14.754  1.00  0.00     0.077 A 
HETATM    8  C   UNL     1     -43.101 -54.957  15.837  1.00  0.00     0.027 A 
HETATM    9  C   UNL     1     -41.717 -54.896  16.042  1.00  0.00     0.034 A 
HETATM   10  C   UNL     1     -40.979 -54.154  15.142  1.00  0.00     0.066 A 
ENDROOT
BRANCH   4  11
HETATM   11  C   UNL     1     -40.749 -52.155  12.081  1.00  0.00     0.171 C 
BRANCH  11  12
HETATM   12  C   UNL     1     -41.073 -50.649  12.236  1.00  0.00     0.067 C 
HETATM   13  C   UNL     1     -40.892 -50.162  13.676  1.00  0.00     0.047 C 
HETATM   14  C   UNL     1     -40.170 -49.850  11.290  1.00  0.00     0.047 C 
BRANCH  12  15
HETATM   15  O   UNL     1     -42.425 -50.380  11.837  1.00  0.00    -0.389 OA
HETATM   16  H   UNL     1     -42.485 -49.418  11.701  1.00  0.00     0.210 HD
ENDBRANCH  12  15
ENDBRANCH  11  12
ENDBRANCH   4  11
BRANCH   1  17
HETATM   17  C   UNL     1     -38.661 -54.170  16.157  1.00  0.00     0.130 C 
HETATM   18  C   UNL     1     -38.179 -55.610  16.077  1.00  0.00     0.027 C 
ENDBRANCH   1  17
BRANCH   7  19
HETATM   19  S   UNL     1     -45.463 -54.347  14.546  1.00  0.00     0.243 S 
HETATM   20  O   UNL     1     -45.752 -55.192  13.407  1.00  0.00    -0.206 OA
HETATM   21  O   UNL     1     -46.027 -54.629  15.850  1.00  0.00    -0.206 OA
BRANCH  19  22
HETATM   22  N   UNL     1     -45.866 -52.735  14.121  1.00  0.00    -0.215 NA
HETATM   23  C   UNL     1     -46.260 -52.531  12.705  1.00  0.00     0.129 C 
HETATM   24  C   UNL     1     -46.866 -52.135  15.037  1.00  0.00     0.129 C 
ENDBRANCH  19  22
ENDBRANCH   7  19
TORSDOF 6
ENDMDL
MODEL 5
REMARK VINA RESULT:      -5.6      2.282      4.363
REMARK  6 active torsions:
REMARK  status: ('A' for Active; 'I' for Inactive)
REMARK    1  A    between atoms: C_2  and  N_3 
REMARK    2  A    between atoms: N_6  and  C_7 
REMARK    3  A    between atoms: C_7  and  C_8 
REMARK    4  A    between atoms: C_8  and  O_11 
REMARK    5  A    between atoms: C_14  and  S_18 
REMARK    6  A    between atoms: S_18  and  N_21 
ROOT
HETATM    1  N   UNL     1     -42.955 -46.402   9.635  1.00  0.00    -0.298 N 
HETATM    2  C   UNL     1     -43.081 -45.055  10.054  1.00  0.00     0.330 A 
HETATM    3  O   UNL     1     -43.763 -44.184   9.542  1.00  0.00    -0.246 OA
HETATM    4  N   UNL     1     -42.230 -44.910  11.172  1.00  0.00    -0.294 N 
HETATM    5  C   UNL     1     -41.580 -46.127  11.410  1.00  0.00     0.067 A 
HETATM    6  C   UNL     1     -40.625 -46.449  12.351  1.00  0.00     0.057 A 
HETATM    7  C   UNL     1     -40.112 -47.750  12.307  1.00  0.00     0.077 A 
HETATM    8  C   UNL     1     -40.604 -48.707  11.391  1.00  0.00     0.027 A 
HETATM    9  C   UNL     1     -41.579 -48.357  10.449  1.00  0.00     0.034 A 
HETATM   10  C   UNL     1     -42.034 -47.054  10.468  1.00  0.00     0.066 A 
ENDROOT
BRANCH   4  11
HETATM   11  C   UNL     1     -42.097 -43.715  11.973  1.00  0.00     0.171 C 
BRANCH  11  12
HETATM   12  C   UNL     1     -41.155 -42.639  11.379  1.00  0.00     0.067 C 
HETATM   13  C   UNL     1     -41.922 -41.422  10.856  1.00  0.00     0.047 C 
HETATM   14  C   UNL     1     -40.153 -42.211  12.456  1.00  0.00     0.047 C 
BRANCH  12  15
HETATM   15  O   UNL     1     -40.386 -43.185  10.297  1.00  0.00    -0.389 OA
HETATM   16  H   UNL     1     -40.045 -42.425   9.791  1.00  0.00     0.210 HD
ENDBRANCH  12  15
ENDBRANCH  11  12
ENDBRANCH   4  11
BRANCH   1  17
HETATM   17  C   UNL     1     -43.519 -46.940   8.422  1.00  0.00     0.130 C 
HETATM   18  C   UNL     1     -44.854 -47.620   8.682  1.00  0.00     0.027 C 
ENDBRANCH   1  17
BRANCH   7  19
HETATM   19  S   UNL     1     -38.849 -48.223  13.465  1.00  0.00     0.243 S 
HETATM   20  O   UNL     1     -37.872 -49.032  12.766  1.00  0.00    -0.206 OA
HETATM   21  O   UNL     1     -38.456 -47.020  14.171  1.00  0.00    -0.206 OA
BRANCH  19  22
HETATM   22  N   UNL     1     -39.691 -49.242  14.558  1.00  0.00    -0.215 NA
HETATM   23  C   UNL     1     -39.113 -50.596  14.738  1.00  0.00     0.129 C 
HETATM   24  C   UNL     1     -39.935 -48.595  15.870  1.00  0.00     0.129 C 
ENDBRANCH  19  22
ENDBRANCH   7  19
TORSDOF 6
ENDMDL
MODEL 6
REMARK VINA RESULT:      -5.5      3.747      6.900
REMARK  6 active torsions:
REMARK  status: ('A' for Active; 'I' for Inactive)
REMARK    1  A    between atoms: C_2  and  N_3 
REMARK    2  A    between atoms: N_6  and  C_7 
REMARK    3  A    between atoms: C_7  and  C_8 
REMARK    4  A    between atoms: C_8  and  O_11 
REMARK    5  A    between atoms: C_14  and  S_18 
REMARK    6  A    between atoms: S_18  and  N_21 
ROOT
HETATM    1  N   UNL     1     -40.246 -53.549  13.748  1.00  0.00    -0.298 N 
HETATM    2  C   UNL     1     -39.801 -52.221  13.539  1.00  0.00     0.330 A 
HETATM    3  O   UNL     1     -38.652 -51.844  13.381  1.00  0.00    -0.246 OA
HETATM    4  N   UNL     1     -40.956 -51.408  13.581  1.00  0.00    -0.294 N 
HETATM    5  C   UNL     1     -42.071 -52.215  13.839  1.00  0.00     0.067 A 
HETATM    6  C   UNL     1     -43.392 -51.863  14.021  1.00  0.00     0.057 A 
HETATM    7  C   UNL     1     -44.282 -52.900  14.325  1.00  0.00     0.077 A 
HETATM    8  C   UNL     1     -43.859 -54.248  14.370  1.00  0.00     0.027 A 
HETATM    9  C   UNL     1     -42.512 -54.579  14.175  1.00  0.00     0.034 A 
HETATM   10  C   UNL     1     -41.636 -53.540  13.932  1.00  0.00     0.066 A 
ENDROOT
BRANCH   4  11
HETATM   11  C   UNL     1     -40.986 -49.984  13.340  1.00  0.00     0.171 C 
BRANCH  11  12
HETATM   12  C   UNL     1     -40.800 -49.575  11.858  1.00  0.00     0.067 C 
HETATM   13  C   UNL     1     -41.993 -48.779  11.322  1.00  0.00     0.047 C 
HETATM   14  C   UNL     1     -39.514 -48.752  11.731  1.00  0.00     0.047 C 
BRANCH  12  15
HETATM   15  O   UNL     1     -40.627 -50.737  11.032  1.00  0.00    -0.389 OA
HETATM   16  H   UNL     1     -41.042 -51.477  11.509  1.00  0.00     0.210 HD
ENDBRANCH  12  15
ENDBRANCH  11  12
ENDBRANCH   4  11
BRANCH   1  17
HETATM   17  C   UNL     1     -39.379 -54.682  13.952  1.00  0.00     0.130 C 
HETATM   18  C   UNL     1     -38.990 -54.831  15.414  1.00  0.00     0.027 C 
ENDBRANCH   1  17
BRANCH   7  19
HETATM   19  S   UNL     1     -45.993 -52.515  14.613  1.00  0.00     0.243 S 
HETATM   20  O   UNL     1     -46.358 -51.403  13.761  1.00  0.00    -0.206 OA
HETATM   21  O   UNL     1     -46.719 -53.768  14.560  1.00  0.00    -0.206 OA
BRANCH  19  22
HETATM   22  N   UNL     1     -45.994 -51.958  16.235  1.00  0.00    -0.215 NA
HETATM   23  C   UNL     1     -47.187 -51.173  16.636  1.00  0.00     0.129 C 
HETATM   24  C   UNL     1     -45.724 -53.040  17.211  1.00  0.00     0.129 C 
ENDBRANCH  19  22
ENDBRANCH   7  19
TORSDOF 6
ENDMDL
MODEL 7
REMARK VINA RESULT:      -5.4      4.509      7.114
REMARK  6 active torsions:
REMARK  status: ('A' for Active; 'I' for Inactive)
REMARK    1  A    between atoms: C_2  and  N_3 
REMARK    2  A    between atoms: N_6  and  C_7 
REMARK    3  A    between atoms: C_7  and  C_8 
REMARK    4  A    between atoms: C_8  and  O_11 
REMARK    5  A    between atoms: C_14  and  S_18 
REMARK    6  A    between atoms: S_18  and  N_21 
ROOT
HETATM    1  N   UNL     1     -39.923 -50.437  13.356  1.00  0.00    -0.298 N 
HETATM    2  C   UNL     1     -39.208 -51.660  13.380  1.00  0.00     0.330 A 
HETATM    3  O   UNL     1     -38.002 -51.811  13.294  1.00  0.00    -0.246 OA
HETATM    4  N   UNL     1     -40.179 -52.679  13.492  1.00  0.00    -0.294 N 
HETATM    5  C   UNL     1     -41.453 -52.097  13.507  1.00  0.00     0.067 A 
HETATM    6  C   UNL     1     -42.696 -52.692  13.548  1.00  0.00     0.057 A 
HETATM    7  C   UNL     1     -43.803 -51.838  13.492  1.00  0.00     0.077 A 
HETATM    8  C   UNL     1     -43.653 -50.433  13.469  1.00  0.00     0.027 A 
HETATM    9  C   UNL     1     -42.379 -49.853  13.435  1.00  0.00     0.034 A 
HETATM   10  C   UNL     1     -41.296 -50.710  13.434  1.00  0.00     0.066 A 
ENDROOT
BRANCH   4  11
HETATM   11  C   UNL     1     -39.899 -54.090  13.629  1.00  0.00     0.171 C 
BRANCH  11  12
HETATM   12  C   UNL     1     -39.630 -54.559  15.080  1.00  0.00     0.067 C 
HETATM   13  C   UNL     1     -39.134 -53.420  15.975  1.00  0.00     0.047 C 
HETATM   14  C   UNL     1     -40.919 -55.159  15.651  1.00  0.00     0.047 C 
BRANCH  12  15
HETATM   15  O   UNL     1     -38.647 -55.605  15.098  1.00  0.00    -0.389 OA
HETATM   16  H   UNL     1     -37.861 -55.252  14.644  1.00  0.00     0.210 HD
ENDBRANCH  12  15
ENDBRANCH  11  12
ENDBRANCH   4  11
BRANCH   1  17
HETATM   17  C   UNL     1     -39.336 -49.149  13.080  1.00  0.00     0.130 C 
HETATM   18  C   UNL     1     -38.819 -49.067  11.652  1.00  0.00     0.027 C 
ENDBRANCH   1  17
BRANCH   7  19
HETATM   19  S   UNL     1     -45.437 -52.538  13.500  1.00  0.00     0.243 S 
HETATM   20  O   UNL     1     -46.326 -51.610  14.165  1.00  0.00    -0.206 OA
HETATM   21  O   UNL     1     -45.704 -52.994  12.151  1.00  0.00    -0.206 OA
BRANCH  19  22
HETATM   22  N   UNL     1     -45.261 -53.914  14.510  1.00  0.00    -0.215 NA
HETATM   23  C   UNL     1     -46.021 -53.868  15.783  1.00  0.00     0.129 C 
HETATM   24  C   UNL     1     -45.513 -55.186  13.792  1.00  0.00     0.129 C 
ENDBRANCH  19  22
ENDBRANCH   7  19
TORSDOF 6
ENDMDL
MODEL 8
REMARK VINA RESULT:      -5.3      4.867      6.751
REMARK  6 active torsions:
REMARK  status: ('A' for Active; 'I' for Inactive)
REMARK    1  A    between atoms: C_2  and  N_3 
REMARK    2  A    between atoms: N_6  and  C_7 
REMARK    3  A    between atoms: C_7  and  C_8 
REMARK    4  A    between atoms: C_8  and  O_11 
REMARK    5  A    between atoms: C_14  and  S_18 
REMARK    6  A    between atoms: S_18  and  N_21 
ROOT
HETATM    1  N   UNL     1     -40.626 -51.925  13.009  1.00  0.00    -0.298 N 
HETATM    2  C   UNL     1     -42.014 -51.648  13.038  1.00  0.00     0.330 A 
HETATM    3  O   UNL     1     -42.603 -50.762  12.442  1.00  0.00    -0.246 OA
HETATM    4  N   UNL     1     -42.583 -52.587  13.927  1.00  0.00    -0.294 N 
HETATM    5  C   UNL     1     -41.566 -53.396  14.448  1.00  0.00     0.067 A 
HETATM    6  C   UNL     1     -41.633 -54.404  15.386  1.00  0.00     0.057 A 
HETATM    7  C   UNL     1     -40.422 -55.001  15.754  1.00  0.00     0.077 A 
HETATM    8  C   UNL     1     -39.202 -54.637  15.140  1.00  0.00     0.027 A 
HETATM    9  C   UNL     1     -39.162 -53.613  14.185  1.00  0.00     0.034 A 
HETATM   10  C   UNL     1     -40.357 -52.995  13.874  1.00  0.00     0.066 A 
ENDROOT
BRANCH   4  11
HETATM   11  C   UNL     1     -43.994 -52.725  14.207  1.00  0.00     0.171 C 
BRANCH  11  12
HETATM   12  C   UNL     1     -44.793 -53.503  13.132  1.00  0.00     0.067 C 
HETATM   13  C   UNL     1     -45.336 -54.832  13.662  1.00  0.00     0.047 C 
HETATM   14  C   UNL     1     -45.944 -52.619  12.639  1.00  0.00     0.047 C 
BRANCH  12  15
HETATM   15  O   UNL     1     -43.968 -53.777  11.991  1.00  0.00    -0.389 OA
HETATM   16  H   UNL     1     -43.776 -52.916  11.577  1.00  0.00     0.210 HD
ENDBRANCH  12  15
ENDBRANCH  11  12
ENDBRANCH   4  11
BRANCH   1  17
HETATM   17  C   UNL     1     -39.638 -51.099  12.361  1.00  0.00     0.130 C 
HETATM   18  C   UNL     1     -39.177 -49.968  13.266  1.00  0.00     0.027 C 
ENDBRANCH   1  17
BRANCH   7  19
HETATM   19  S   UNL     1     -40.427 -56.281  16.987  1.00  0.00     0.243 S 
HETATM   20  O   UNL     1     -41.766 -56.827  17.071  1.00  0.00    -0.206 OA
HETATM   21  O   UNL     1     -39.288 -57.133  16.713  1.00  0.00    -0.206 OA
BRANCH  19  22
HETATM   22  N   UNL     1     -40.119 -55.418  18.438  1.00  0.00    -0.215 NA
HETATM   23  C   UNL     1     -41.011 -55.751  19.576  1.00  0.00     0.129 C 
HETATM   24  C   UNL     1     -38.696 -55.480  18.849  1.00  0.00     0.129 C 
ENDBRANCH  19  22
ENDBRANCH   7  19
TORSDOF 6
ENDMDL
MODEL 9
REMARK VINA RESULT:      -5.2      4.291      6.957
REMARK  6 active torsions:
REMARK  status: ('A' for Active; 'I' for Inactive)
REMARK    1  A    between atoms: C_2  and  N_3 
REMARK    2  A    between atoms: N_6  and  C_7 
REMARK    3  A    between atoms: C_7  and  C_8 
REMARK    4  A    between atoms: C_8  and  O_11 
REMARK    5  A    between atoms: C_14  and  S_18 
REMARK    6  A    between atoms: S_18  and  N_21 
ROOT
HETATM    1  N   UNL     1     -43.614 -52.250  13.536  1.00  0.00    -0.298 N 
HETATM    2  C   UNL     1     -42.761 -51.168  13.209  1.00  0.00     0.330 A 
HETATM    3  O   UNL     1     -43.043 -50.177  12.557  1.00  0.00    -0.246 OA
HETATM    4  N   UNL     1     -41.500 -51.480  13.764  1.00  0.00    -0.294 N 
HETATM    5  C   UNL     1     -41.574 -52.732  14.387  1.00  0.00     0.067 A 
HETATM    6  C   UNL     1     -40.589 -53.467  15.012  1.00  0.00     0.057 A 
HETATM    7  C   UNL     1     -40.957 -54.727  15.496  1.00  0.00     0.077 A 
HETATM    8  C   UNL     1     -42.290 -55.190  15.413  1.00  0.00     0.027 A 
HETATM    9  C   UNL     1     -43.274 -54.421  14.779  1.00  0.00     0.034 A 
HETATM   10  C   UNL     1     -42.883 -53.204  14.256  1.00  0.00     0.066 A 
ENDROOT
BRANCH   4  11
HETATM   11  C   UNL     1     -40.340 -50.619  13.741  1.00  0.00     0.171 C 
BRANCH  11  12
HETATM   12  C   UNL     1     -39.469 -50.741  12.466  1.00  0.00     0.067 C 
HETATM   13  C   UNL     1     -39.677 -49.566  11.507  1.00  0.00     0.047 C 
HETATM   14  C   UNL     1     -37.997 -50.832  12.881  1.00  0.00     0.047 C 
BRANCH  12  15
HETATM   15  O   UNL     1     -39.772 -51.955  11.763  1.00  0.00    -0.389 OA
HETATM   16  H   UNL     1     -39.125 -52.617  12.066  1.00  0.00     0.210 HD
ENDBRANCH  12  15
ENDBRANCH  11  12
ENDBRANCH   4  11
BRANCH   1  17
HETATM   17  C   UNL     1     -44.949 -52.426  13.021  1.00  0.00     0.130 C 
HETATM   18  C   UNL     1     -45.958 -51.585  13.788  1.00  0.00     0.027 C 
ENDBRANCH   1  17
BRANCH   7  19
HETATM   19  S   UNL     1     -39.729 -55.747  16.277  1.00  0.00     0.243 S 
HETATM   20  O   UNL     1     -40.346 -57.006  16.639  1.00  0.00    -0.206 OA
HETATM   21  O   UNL     1     -38.552 -55.707  15.432  1.00  0.00    -0.206 OA
BRANCH  19  22
HETATM   22  N   UNL     1     -39.385 -54.894  17.724  1.00  0.00    -0.215 NA
HETATM   23  C   UNL     1     -39.706 -55.617  18.979  1.00  0.00     0.129 C 
HETATM   24  C   UNL     1     -38.000 -54.366  17.761  1.00  0.00     0.129 C 
ENDBRANCH  19  22
ENDBRANCH   7  19
TORSDOF 6
ENDMDL
