MODEL 1
REMARK VINA RESULT:      -5.8      0.000      0.000
REMARK  5 active torsions:
REMARK  status: ('A' for Active; 'I' for Inactive)
REMARK    1  A    between atoms: O_1  and  C_2 
REMARK    2  A    between atoms: C_2  and  C_4 
REMARK    3  A    between atoms: C_4  and  N_10 
REMARK       I    between atoms: N_10  and  C_11 
REMARK    4  A    between atoms: C_11  and  C_13 
REMARK    5  A    between atoms: C_13  and  N_14 
ROOT
HETATM    1  N   UNL     1     -43.134 -52.988  14.312  1.00  0.00    -0.341 N 
HETATM    2  C   UNL     1     -42.529 -52.899  13.079  1.00  0.00     0.238 C 
HETATM    3  O   UNL     1     -43.191 -52.816  12.043  1.00  0.00    -0.272 OA
HETATM    4  H   UNL     1     -42.544 -52.774  15.115  1.00  0.00     0.163 HD
ENDROOT
BRANCH   1   5
HETATM    5  C   UNL     1     -44.608 -52.975  14.550  1.00  0.00     0.118 C 
HETATM    6  C   UNL     1     -44.941 -52.981  16.063  1.00  0.00     0.042 C 
HETATM    7  C   UNL     1     -46.418 -52.718  16.362  1.00  0.00     0.003 C 
HETATM    8  C   UNL     1     -46.895 -51.410  15.748  1.00  0.00     0.000 C 
HETATM    9  C   UNL     1     -46.626 -51.372  14.251  1.00  0.00     0.003 C 
HETATM   10  C   UNL     1     -45.158 -51.661  13.927  1.00  0.00     0.042 C 
BRANCH   5  11
HETATM   11  C   UNL     1     -45.253 -54.203  13.832  1.00  0.00     0.169 C 
HETATM   12  O   UNL     1     -45.245 -55.347  14.271  1.00  0.00    -0.648 OA
BRANCH  11  13
HETATM   13  O   UNL     1     -45.823 -53.932  12.635  1.00  0.00    -0.775 OA
HETATM   14  H   UNL     1     -45.850 -52.968  12.418  1.00  0.00     0.167 HD
ENDBRANCH  11  13
ENDBRANCH   5  11
ENDBRANCH   1   5
BRANCH   2  15
HETATM   15  C   UNL     1     -41.020 -52.872  13.077  1.00  0.00     0.250 C 
BRANCH  15  16
HETATM   16  N   UNL     1     -40.520 -51.614  12.566  1.00  0.00    -0.295 N 
HETATM   17  C   UNL     1     -39.737 -50.710  13.227  1.00  0.00     0.112 A 
HETATM   18  C   UNL     1     -39.601 -49.634  12.382  1.00  0.00     0.037 A 
HETATM   19  C   UNL     1     -40.335 -49.988  11.232  1.00  0.00     0.108 A 
HETATM   20  N   UNL     1     -40.894 -51.196  11.338  1.00  0.00    -0.310 N 
ATOM     21  HN  UNL     1     -41.468 -51.688  10.653  1.00  0.00     0.186 HD
ENDBRANCH  15  16
ENDBRANCH   2  15
TORSDOF 5
ENDMDL
MODEL 2
REMARK VINA RESULT:      -5.4      2.830      6.589
REMARK  5 active torsions:
REMARK  status: ('A' for Active; 'I' for Inactive)
REMARK    1  A    between atoms: O_1  and  C_2 
REMARK    2  A    between atoms: C_2  and  C_4 
REMARK    3  A    between atoms: C_4  and  N_10 
REMARK       I    between atoms: N_10  and  C_11 
REMARK    4  A    between atoms: C_11  and  C_13 
REMARK    5  A    between atoms: C_13  and  N_14 
ROOT
HETATM    1  N   UNL     1     -39.637 -52.007  13.470  1.00  0.00    -0.341 N 
HETATM    2  C   UNL     1     -40.619 -52.406  12.593  1.00  0.00     0.238 C 
HETATM    3  O   UNL     1     -40.944 -51.707  11.631  1.00  0.00    -0.272 OA
HETATM    4  H   UNL     1     -39.238 -52.740  14.056  1.00  0.00     0.163 HD
ENDROOT
BRANCH   1   5
HETATM    5  C   UNL     1     -38.852 -50.742  13.366  1.00  0.00     0.118 C 
HETATM    6  C   UNL     1     -39.778 -49.504  13.258  1.00  0.00     0.042 C 
HETATM    7  C   UNL     1     -39.035 -48.174  13.400  1.00  0.00     0.003 C 
HETATM    8  C   UNL     1     -38.247 -48.101  14.699  1.00  0.00     0.000 C 
HETATM    9  C   UNL     1     -37.292 -49.278  14.833  1.00  0.00     0.003 C 
HETATM   10  C   UNL     1     -38.011 -50.619  14.668  1.00  0.00     0.042 C 
BRANCH   5  11
HETATM   11  C   UNL     1     -37.897 -50.832  12.133  1.00  0.00     0.169 C 
HETATM   12  O   UNL     1     -36.822 -51.419  12.130  1.00  0.00    -0.648 OA
BRANCH  11  13
HETATM   13  O   UNL     1     -38.325 -50.179  11.028  1.00  0.00    -0.775 OA
HETATM   14  H   UNL     1     -39.308 -50.086  10.978  1.00  0.00     0.167 HD
ENDBRANCH  11  13
ENDBRANCH   5  11
ENDBRANCH   1   5
BRANCH   2  15
HETATM   15  C   UNL     1     -41.243 -53.756  12.858  1.00  0.00     0.250 C 
BRANCH  15  16
HETATM   16  N   UNL     1     -42.677 -53.647  13.018  1.00  0.00    -0.295 N 
HETATM   17  C   UNL     1     -43.428 -54.133  14.051  1.00  0.00     0.112 A 
HETATM   18  C   UNL     1     -44.739 -53.876  13.722  1.00  0.00     0.037 A 
HETATM   19  C   UNL     1     -44.673 -53.227  12.472  1.00  0.00     0.108 A 
HETATM   20  N   UNL     1     -43.416 -53.080  12.042  1.00  0.00    -0.310 N 
ATOM     21  HN  UNL     1     -43.093 -52.644  11.179  1.00  0.00     0.186 HD
ENDBRANCH  15  16
ENDBRANCH   2  15
TORSDOF 5
ENDMDL
MODEL 3
REMARK VINA RESULT:      -5.3      1.692      1.987
REMARK  5 active torsions:
REMARK  status: ('A' for Active; 'I' for Inactive)
REMARK    1  A    between atoms: O_1  and  C_2 
REMARK    2  A    between atoms: C_2  and  C_4 
REMARK    3  A    between atoms: C_4  and  N_10 
REMARK       I    between atoms: N_10  and  C_11 
REMARK    4  A    between atoms: C_11  and  C_13 
REMARK    5  A    between atoms: C_13  and  N_14 
ROOT
HETATM    1  N   UNL     1     -43.091 -51.558  12.578  1.00  0.00    -0.341 N 
HETATM    2  C   UNL     1     -41.743 -51.709  12.806  1.00  0.00     0.238 C 
HETATM    3  O   UNL     1     -41.321 -52.295  13.805  1.00  0.00    -0.272 OA
HETATM    4  H   UNL     1     -43.359 -51.322  11.624  1.00  0.00     0.163 HD
ENDROOT
BRANCH   1   5
HETATM    5  C   UNL     1     -44.177 -52.079  13.461  1.00  0.00     0.118 C 
HETATM    6  C   UNL     1     -43.962 -51.660  14.937  1.00  0.00     0.042 C 
HETATM    7  C   UNL     1     -45.166 -51.954  15.834  1.00  0.00     0.003 C 
HETATM    8  C   UNL     1     -46.437 -51.304  15.307  1.00  0.00     0.000 C 
HETATM    9  C   UNL     1     -46.713 -51.717  13.869  1.00  0.00     0.003 C 
HETATM   10  C   UNL     1     -45.510 -51.457  12.958  1.00  0.00     0.042 C 
BRANCH   5  11
HETATM   11  C   UNL     1     -44.242 -53.634  13.327  1.00  0.00     0.169 C 
HETATM   12  O   UNL     1     -44.915 -54.231  12.495  1.00  0.00    -0.648 OA
BRANCH  11  13
HETATM   13  O   UNL     1     -43.506 -54.319  14.232  1.00  0.00    -0.775 OA
HETATM   14  H   UNL     1     -43.580 -53.964  15.152  1.00  0.00     0.167 HD
ENDBRANCH  11  13
ENDBRANCH   5  11
ENDBRANCH   1   5
BRANCH   2  15
HETATM   15  C   UNL     1     -40.821 -51.152  11.748  1.00  0.00     0.250 C 
BRANCH  15  16
HETATM   16  N   UNL     1     -40.951 -49.714  11.647  1.00  0.00    -0.295 N 
HETATM   17  C   UNL     1     -40.950 -48.814  12.675  1.00  0.00     0.112 A 
HETATM   18  C   UNL     1     -41.197 -47.586  12.106  1.00  0.00     0.037 A 
HETATM   19  C   UNL     1     -41.328 -47.851  10.728  1.00  0.00     0.108 A 
HETATM   20  N   UNL     1     -41.174 -49.147  10.443  1.00  0.00    -0.310 N 
ATOM     21  HN  UNL     1     -41.216 -49.601   9.530  1.00  0.00     0.186 HD
ENDBRANCH  15  16
ENDBRANCH   2  15
TORSDOF 5
ENDMDL
MODEL 4
REMARK VINA RESULT:      -5.3      1.748      2.175
REMARK  5 active torsions:
REMARK  status: ('A' for Active; 'I' for Inactive)
REMARK    1  A    between atoms: O_1  and  C_2 
REMARK    2  A    between atoms: C_2  and  C_4 
REMARK    3  A    between atoms: C_4  and  N_10 
REMARK       I    between atoms: N_10  and  C_11 
REMARK    4  A    between atoms: C_11  and  C_13 
REMARK    5  A    between atoms: C_13  and  N_14 
ROOT
HETATM    1  N   UNL     1     -43.401 -50.779  12.476  1.00  0.00    -0.341 N 
HETATM    2  C   UNL     1     -42.067 -50.551  12.725  1.00  0.00     0.238 C 
HETATM    3  O   UNL     1     -41.521 -50.980  13.743  1.00  0.00    -0.272 OA
HETATM    4  H   UNL     1     -43.705 -50.644  11.513  1.00  0.00     0.163 HD
ENDROOT
BRANCH   1   5
HETATM    5  C   UNL     1     -44.320 -51.559  13.357  1.00  0.00     0.118 C 
HETATM    6  C   UNL     1     -44.286 -51.043  14.817  1.00  0.00     0.042 C 
HETATM    7  C   UNL     1     -45.384 -51.640  15.699  1.00  0.00     0.003 C 
HETATM    8  C   UNL     1     -46.770 -51.405  15.115  1.00  0.00     0.000 C 
HETATM    9  C   UNL     1     -46.865 -51.932  13.691  1.00  0.00     0.003 C 
HETATM   10  C   UNL     1     -45.758 -51.369  12.797  1.00  0.00     0.042 C 
BRANCH   5  11
HETATM   11  C   UNL     1     -43.930 -53.070  13.290  1.00  0.00     0.169 C 
HETATM   12  O   UNL     1     -43.391 -53.689  14.200  1.00  0.00    -0.648 OA
BRANCH  11  13
HETATM   13  O   UNL     1     -44.205 -53.682  12.115  1.00  0.00    -0.775 OA
HETATM   14  H   UNL     1     -44.759 -54.495  12.212  1.00  0.00     0.167 HD
ENDBRANCH  11  13
ENDBRANCH   5  11
ENDBRANCH   1   5
BRANCH   2  15
HETATM   15  C   UNL     1     -41.313 -49.783  11.666  1.00  0.00     0.250 C 
BRANCH  15  16
HETATM   16  N   UNL     1     -39.888 -49.803  11.922  1.00  0.00    -0.295 N 
HETATM   17  C   UNL     1     -39.075 -48.724  12.127  1.00  0.00     0.112 A 
HETATM   18  C   UNL     1     -37.798 -49.225  12.229  1.00  0.00     0.037 A 
HETATM   19  C   UNL     1     -37.947 -50.618  12.078  1.00  0.00     0.108 A 
HETATM   20  N   UNL     1     -39.221 -50.975  11.894  1.00  0.00    -0.310 N 
ATOM     21  HN  UNL     1     -39.600 -51.913  11.764  1.00  0.00     0.186 HD
ENDBRANCH  15  16
ENDBRANCH   2  15
TORSDOF 5
ENDMDL
MODEL 5
REMARK VINA RESULT:      -5.3      2.510      3.230
REMARK  5 active torsions:
REMARK  status: ('A' for Active; 'I' for Inactive)
REMARK    1  A    between atoms: O_1  and  C_2 
REMARK    2  A    between atoms: C_2  and  C_4 
REMARK    3  A    between atoms: C_4  and  N_10 
REMARK       I    between atoms: N_10  and  C_11 
REMARK    4  A    between atoms: C_11  and  C_13 
REMARK    5  A    between atoms: C_13  and  N_14 
ROOT
HETATM    1  N   UNL     1     -42.812 -52.562  14.113  1.00  0.00    -0.341 N 
HETATM    2  C   UNL     1     -41.876 -53.550  14.316  1.00  0.00     0.238 C 
HETATM    3  O   UNL     1     -42.208 -54.724  14.491  1.00  0.00    -0.272 OA
HETATM    4  H   UNL     1     -42.464 -51.695  13.706  1.00  0.00     0.163 HD
ENDROOT
BRANCH   1   5
HETATM    5  C   UNL     1     -44.289 -52.774  14.058  1.00  0.00     0.118 C 
HETATM    6  C   UNL     1     -44.841 -53.294  15.409  1.00  0.00     0.042 C 
HETATM    7  C   UNL     1     -46.369 -53.290  15.483  1.00  0.00     0.003 C 
HETATM    8  C   UNL     1     -46.946 -51.911  15.201  1.00  0.00     0.000 C 
HETATM    9  C   UNL     1     -46.463 -51.373  13.863  1.00  0.00     0.003 C 
HETATM   10  C   UNL     1     -44.936 -51.393  13.756  1.00  0.00     0.042 C 
BRANCH   5  11
HETATM   11  C   UNL     1     -44.619 -53.770  12.901  1.00  0.00     0.169 C 
HETATM   12  O   UNL     1     -45.205 -54.836  13.048  1.00  0.00    -0.648 OA
BRANCH  11  13
HETATM   13  O   UNL     1     -44.183 -53.391  11.677  1.00  0.00    -0.775 OA
HETATM   14  H   UNL     1     -44.522 -53.958  10.942  1.00  0.00     0.167 HD
ENDBRANCH  11  13
ENDBRANCH   5  11
ENDBRANCH   1   5
BRANCH   2  15
HETATM   15  C   UNL     1     -40.430 -53.117  14.275  1.00  0.00     0.250 C 
BRANCH  15  16
HETATM   16  N   UNL     1     -39.623 -53.902  15.185  1.00  0.00    -0.295 N 
HETATM   17  C   UNL     1     -39.318 -53.600  16.482  1.00  0.00     0.112 A 
HETATM   18  C   UNL     1     -38.454 -54.582  16.908  1.00  0.00     0.037 A 
HETATM   19  C   UNL     1     -38.304 -55.433  15.795  1.00  0.00     0.108 A 
HETATM   20  N   UNL     1     -39.019 -55.024  14.743  1.00  0.00    -0.310 N 
ATOM     21  HN  UNL     1     -39.091 -55.458  13.823  1.00  0.00     0.186 HD
ENDBRANCH  15  16
ENDBRANCH   2  15
TORSDOF 5
ENDMDL
MODEL 6
REMARK VINA RESULT:      -5.3      2.218      6.297
REMARK  5 active torsions:
REMARK  status: ('A' for Active; 'I' for Inactive)
REMARK    1  A    between atoms: O_1  and  C_2 
REMARK    2  A    between atoms: C_2  and  C_4 
REMARK    3  A    between atoms: C_4  and  N_10 
REMARK       I    between atoms: N_10  and  C_11 
REMARK    4  A    between atoms: C_11  and  C_13 
REMARK    5  A    between atoms: C_13  and  N_14 
ROOT
HETATM    1  N   UNL     1     -41.625 -50.894  13.458  1.00  0.00    -0.341 N 
HETATM    2  C   UNL     1     -42.221 -51.993  12.884  1.00  0.00     0.238 C 
HETATM    3  O   UNL     1     -41.921 -52.367  11.749  1.00  0.00    -0.272 OA
HETATM    4  H   UNL     1     -41.714 -50.817  14.471  1.00  0.00     0.163 HD
ENDROOT
BRANCH   1   5
HETATM    5  C   UNL     1     -40.566 -50.058  12.820  1.00  0.00     0.118 C 
HETATM    6  C   UNL     1     -40.163 -48.863  13.721  1.00  0.00     0.042 C 
HETATM    7  C   UNL     1     -38.916 -48.125  13.230  1.00  0.00     0.003 C 
HETATM    8  C   UNL     1     -37.727 -49.061  13.075  1.00  0.00     0.000 C 
HETATM    9  C   UNL     1     -38.062 -50.233  12.165  1.00  0.00     0.003 C 
HETATM   10  C   UNL     1     -39.323 -50.971  12.623  1.00  0.00     0.042 C 
BRANCH   5  11
HETATM   11  C   UNL     1     -41.075 -49.561  11.430  1.00  0.00     0.169 C 
HETATM   12  O   UNL     1     -41.967 -48.736  11.272  1.00  0.00    -0.648 OA
BRANCH  11  13
HETATM   13  O   UNL     1     -40.473 -50.133  10.362  1.00  0.00    -0.775 OA
HETATM   14  H   UNL     1     -40.279 -49.498   9.629  1.00  0.00     0.167 HD
ENDBRANCH  11  13
ENDBRANCH   5  11
ENDBRANCH   1   5
BRANCH   2  15
HETATM   15  C   UNL     1     -43.229 -52.727  13.736  1.00  0.00     0.250 C 
BRANCH  15  16
HETATM   16  N   UNL     1     -44.576 -52.281  13.452  1.00  0.00    -0.295 N 
HETATM   17  C   UNL     1     -45.432 -51.650  14.311  1.00  0.00     0.112 A 
HETATM   18  C   UNL     1     -46.620 -51.513  13.632  1.00  0.00     0.037 A 
HETATM   19  C   UNL     1     -46.378 -52.089  12.369  1.00  0.00     0.108 A 
HETATM   20  N   UNL     1     -45.131 -52.555  12.253  1.00  0.00    -0.310 N 
ATOM     21  HN  UNL     1     -44.701 -53.010  11.448  1.00  0.00     0.186 HD
ENDBRANCH  15  16
ENDBRANCH   2  15
TORSDOF 5
ENDMDL
MODEL 7
REMARK VINA RESULT:      -5.2      2.970      3.987
REMARK  5 active torsions:
REMARK  status: ('A' for Active; 'I' for Inactive)
REMARK    1  A    between atoms: O_1  and  C_2 
REMARK    2  A    between atoms: C_2  and  C_4 
REMARK    3  A    between atoms: C_4  and  N_10 
REMARK       I    between atoms: N_10  and  C_11 
REMARK    4  A    between atoms: C_11  and  C_13 
REMARK    5  A    between atoms: C_13  and  N_14 
ROOT
HETATM    1  N   UNL     1     -41.029 -51.243  13.731  1.00  0.00    -0.341 N 
HETATM    2  C   UNL     1     -40.697 -50.346  12.743  1.00  0.00     0.238 C 
HETATM    3  O   UNL     1     -40.846 -50.620  11.550  1.00  0.00    -0.272 OA
HETATM    4  H   UNL     1     -41.142 -50.855  14.666  1.00  0.00     0.163 HD
ENDROOT
BRANCH   1   5
HETATM    5  C   UNL     1     -41.609 -52.600  13.503  1.00  0.00     0.118 C 
HETATM    6  C   UNL     1     -42.015 -53.279  14.835  1.00  0.00     0.042 C 
HETATM    7  C   UNL     1     -42.836 -54.555  14.643  1.00  0.00     0.003 C 
HETATM    8  C   UNL     1     -44.082 -54.305  13.806  1.00  0.00     0.000 C 
HETATM    9  C   UNL     1     -43.730 -53.674  12.467  1.00  0.00     0.003 C 
HETATM   10  C   UNL     1     -42.885 -52.410  12.635  1.00  0.00     0.042 C 
BRANCH   5  11
HETATM   11  C   UNL     1     -40.574 -53.473  12.725  1.00  0.00     0.169 C 
HETATM   12  O   UNL     1     -39.695 -54.145  13.253  1.00  0.00    -0.648 OA
BRANCH  11  13
HETATM   13  O   UNL     1     -40.685 -53.429  11.377  1.00  0.00    -0.775 OA
HETATM   14  H   UNL     1     -39.873 -53.094  10.923  1.00  0.00     0.167 HD
ENDBRANCH  11  13
ENDBRANCH   5  11
ENDBRANCH   1   5
BRANCH   2  15
HETATM   15  C   UNL     1     -40.179 -49.005  13.205  1.00  0.00     0.250 C 
BRANCH  15  16
HETATM   16  N   UNL     1     -40.719 -47.931  12.399  1.00  0.00    -0.295 N 
HETATM   17  C   UNL     1     -41.861 -47.219  12.634  1.00  0.00     0.112 A 
HETATM   18  C   UNL     1     -42.016 -46.379  11.556  1.00  0.00     0.037 A 
HETATM   19  C   UNL     1     -40.911 -46.657  10.726  1.00  0.00     0.108 A 
HETATM   20  N   UNL     1     -40.115 -47.600  11.238  1.00  0.00    -0.310 N 
ATOM     21  HN  UNL     1     -39.254 -47.979  10.845  1.00  0.00     0.186 HD
ENDBRANCH  15  16
ENDBRANCH   2  15
TORSDOF 5
ENDMDL
MODEL 8
REMARK VINA RESULT:      -5.2      4.919      6.729
REMARK  5 active torsions:
REMARK  status: ('A' for Active; 'I' for Inactive)
REMARK    1  A    between atoms: O_1  and  C_2 
REMARK    2  A    between atoms: C_2  and  C_4 
REMARK    3  A    between atoms: C_4  and  N_10 
REMARK       I    between atoms: N_10  and  C_11 
REMARK    4  A    between atoms: C_11  and  C_13 
REMARK    5  A    between atoms: C_13  and  N_14 
ROOT
HETATM    1  N   UNL     1     -39.666 -48.658  11.427  1.00  0.00    -0.341 N 
HETATM    2  C   UNL     1     -40.857 -47.979  11.547  1.00  0.00     0.238 C 
HETATM    3  O   UNL     1     -41.745 -48.369  12.309  1.00  0.00    -0.272 OA
HETATM    4  H   UNL     1     -38.897 -48.138  11.008  1.00  0.00     0.163 HD
ENDROOT
BRANCH   1   5
HETATM    5  C   UNL     1     -39.298 -49.891  12.184  1.00  0.00     0.118 C 
HETATM    6  C   UNL     1     -39.186 -49.614  13.705  1.00  0.00     0.042 C 
HETATM    7  C   UNL     1     -39.057 -50.885  14.546  1.00  0.00     0.003 C 
HETATM    8  C   UNL     1     -40.207 -51.850  14.294  1.00  0.00     0.000 C 
HETATM    9  C   UNL     1     -40.333 -52.184  12.815  1.00  0.00     0.003 C 
HETATM   10  C   UNL     1     -40.435 -50.925  11.951  1.00  0.00     0.042 C 
BRANCH   5  11
HETATM   11  C   UNL     1     -37.955 -50.455  11.619  1.00  0.00     0.169 C 
HETATM   12  O   UNL     1     -37.190 -51.180  12.244  1.00  0.00    -0.648 OA
BRANCH  11  13
HETATM   13  O   UNL     1     -37.655 -50.064  10.359  1.00  0.00    -0.775 OA
HETATM   14  H   UNL     1     -37.220 -49.178  10.312  1.00  0.00     0.167 HD
ENDBRANCH  11  13
ENDBRANCH   5  11
ENDBRANCH   1   5
BRANCH   2  15
HETATM   15  C   UNL     1     -40.993 -46.719  10.726  1.00  0.00     0.250 C 
BRANCH  15  16
HETATM   16  N   UNL     1     -42.180 -46.761   9.899  1.00  0.00    -0.295 N 
HETATM   17  C   UNL     1     -43.104 -45.767   9.735  1.00  0.00     0.112 A 
HETATM   18  C   UNL     1     -44.094 -46.296   8.941  1.00  0.00     0.037 A 
HETATM   19  C   UNL     1     -43.673 -47.614   8.674  1.00  0.00     0.108 A 
HETATM   20  N   UNL     1     -42.503 -47.900   9.252  1.00  0.00    -0.310 N 
ATOM     21  HN  UNL     1     -41.978 -48.774   9.214  1.00  0.00     0.186 HD
ENDBRANCH  15  16
ENDBRANCH   2  15
TORSDOF 5
ENDMDL
MODEL 9
REMARK VINA RESULT:      -5.1      3.212      4.736
REMARK  5 active torsions:
REMARK  status: ('A' for Active; 'I' for Inactive)
REMARK    1  A    between atoms: O_1  and  C_2 
REMARK    2  A    between atoms: C_2  and  C_4 
REMARK    3  A    between atoms: C_4  and  N_10 
REMARK       I    between atoms: N_10  and  C_11 
REMARK    4  A    between atoms: C_11  and  C_13 
REMARK    5  A    between atoms: C_13  and  N_14 
ROOT
HETATM    1  N   UNL     1     -43.123 -53.424  14.971  1.00  0.00    -0.341 N 
HETATM    2  C   UNL     1     -42.689 -54.419  15.817  1.00  0.00     0.238 C 
HETATM    3  O   UNL     1     -43.472 -55.243  16.295  1.00  0.00    -0.272 OA
HETATM    4  H   UNL     1     -42.404 -52.971  14.410  1.00  0.00     0.163 HD
ENDROOT
BRANCH   1   5
HETATM    5  C   UNL     1     -44.534 -53.230  14.523  1.00  0.00     0.118 C 
HETATM    6  C   UNL     1     -45.512 -53.172  15.723  1.00  0.00     0.042 C 
HETATM    7  C   UNL     1     -46.924 -52.729  15.337  1.00  0.00     0.003 C 
HETATM    8  C   UNL     1     -46.920 -51.384  14.626  1.00  0.00     0.000 C 
HETATM    9  C   UNL     1     -46.002 -51.402  13.413  1.00  0.00     0.003 C 
HETATM   10  C   UNL     1     -44.590 -51.870  13.772  1.00  0.00     0.042 C 
BRANCH   5  11
HETATM   11  C   UNL     1     -44.921 -54.383  13.543  1.00  0.00     0.169 C 
HETATM   12  O   UNL     1     -44.743 -54.355  12.331  1.00  0.00    -0.648 OA
BRANCH  11  13
HETATM   13  O   UNL     1     -45.515 -55.453  14.123  1.00  0.00    -0.775 OA
HETATM   14  H   UNL     1     -46.432 -55.623  13.796  1.00  0.00     0.167 HD
ENDBRANCH  11  13
ENDBRANCH   5  11
ENDBRANCH   1   5
BRANCH   2  15
HETATM   15  C   UNL     1     -41.205 -54.463  16.090  1.00  0.00     0.250 C 
BRANCH  15  16
HETATM   16  N   UNL     1     -40.882 -55.490  17.057  1.00  0.00    -0.295 N 
HETATM   17  C   UNL     1     -40.089 -56.586  16.859  1.00  0.00     0.112 A 
HETATM   18  C   UNL     1     -40.156 -57.319  18.021  1.00  0.00     0.037 A 
HETATM   19  C   UNL     1     -41.011 -56.578  18.861  1.00  0.00     0.108 A 
HETATM   20  N   UNL     1     -41.452 -55.460  18.279  1.00  0.00    -0.310 N 
ATOM     21  HN  UNL     1     -42.074 -54.751  18.667  1.00  0.00     0.186 HD
ENDBRANCH  15  16
ENDBRANCH   2  15
TORSDOF 5
ENDMDL
