MODEL 1
REMARK VINA RESULT:      -6.0      0.000      0.000
REMARK  4 active torsions:
REMARK  status: ('A' for Active; 'I' for Inactive)
REMARK    1  A    between atoms: O_2  and  C_3 
REMARK    2  A    between atoms: C_9  and  N_10 
REMARK       I    between atoms: N_10  and  C_11 
REMARK       I    between atoms: C_11  and  N_13 
REMARK    3  A    between atoms: N_13  and  C_14 
REMARK    4  A    between atoms: N_17  and  C_20 
ROOT
HETATM    1  N   UNL     1     -44.682 -51.385  12.672  1.00  0.00    -0.305 N 
HETATM    2  C   UNL     1     -43.868 -50.516  13.363  1.00  0.00     0.321 C 
HETATM    3  O   UNL     1     -43.516 -50.638  14.531  1.00  0.00    -0.247 OA
HETATM    4  N   UNL     1     -43.448 -49.445  12.594  1.00  0.00    -0.338 N 
HETATM    5  H   UNL     1     -45.159 -51.036  11.851  1.00  0.00     0.171 HD
HETATM    6  H   UNL     1     -43.456 -49.596  11.595  1.00  0.00     0.164 HD
ENDROOT
BRANCH   1   7
HETATM    7  C   UNL     1     -45.177 -52.613  13.190  1.00  0.00     0.087 A 
HETATM    8  C   UNL     1     -46.319 -52.638  14.006  1.00  0.00     0.169 A 
HETATM    9  N   UNL     1     -46.824 -53.764  14.574  1.00  0.00    -0.345 N 
HETATM   10  C   UNL     1     -46.181 -54.921  14.317  1.00  0.00     0.090 A 
ATOM     11  HN  UNL     1     -47.653 -53.736  15.168  1.00  0.00     0.167 HD
HETATM   12  C   UNL     1     -45.072 -55.010  13.497  1.00  0.00     0.019 A 
HETATM   13  C   UNL     1     -44.574 -53.844  12.922  1.00  0.00     0.035 A 
BRANCH   8  14
HETATM   14  O   UNL     1     -46.958 -51.433  14.256  1.00  0.00    -0.339 OA
HETATM   15  C   UNL     1     -47.168 -51.213  15.654  1.00  0.00     0.211 C 
ENDBRANCH   8  14
ENDBRANCH   1   7
BRANCH   4  16
HETATM   16  C   UNL     1     -42.399 -48.566  13.131  1.00  0.00     0.089 C 
HETATM   17  C   UNL     1     -42.710 -47.078  12.967  1.00  0.00     0.055 C 
HETATM   18  C   UNL     1     -42.527 -46.586  11.534  1.00  0.00     0.275 C 
HETATM   19  N   UNL     1     -41.275 -46.989  10.888  1.00  0.00     0.093 N 
HETATM   20  C   UNL     1     -40.995 -48.421  11.045  1.00  0.00     0.275 C 
HETATM   21  C   UNL     1     -41.038 -48.882  12.503  1.00  0.00     0.055 C 
BRANCH  19  22
HETATM   22  C   UNL     1     -40.096 -46.160  11.188  1.00  0.00     0.223 A 
HETATM   23  C   UNL     1     -40.175 -44.689  11.478  1.00  0.00     0.038 A 
HETATM   24  C   UNL     1     -39.727 -45.150  10.126  1.00  0.00     0.038 A 
ENDBRANCH  19  22
ENDBRANCH   4  16
TORSDOF 4
ENDMDL
MODEL 2
REMARK VINA RESULT:      -5.9      1.247      2.047
REMARK  4 active torsions:
REMARK  status: ('A' for Active; 'I' for Inactive)
REMARK    1  A    between atoms: O_2  and  C_3 
REMARK    2  A    between atoms: C_9  and  N_10 
REMARK       I    between atoms: N_10  and  C_11 
REMARK       I    between atoms: C_11  and  N_13 
REMARK    3  A    between atoms: N_13  and  C_14 
REMARK    4  A    between atoms: N_17  and  C_20 
ROOT
HETATM    1  N   UNL     1     -44.945 -50.748  12.837  1.00  0.00    -0.305 N 
HETATM    2  C   UNL     1     -43.710 -50.250  13.188  1.00  0.00     0.321 C 
HETATM    3  O   UNL     1     -43.094 -50.517  14.214  1.00  0.00    -0.247 OA
HETATM    4  N   UNL     1     -43.187 -49.389  12.239  1.00  0.00    -0.338 N 
HETATM    5  H   UNL     1     -45.489 -50.231  12.158  1.00  0.00     0.171 HD
HETATM    6  H   UNL     1     -43.545 -49.505  11.301  1.00  0.00     0.164 HD
ENDROOT
BRANCH   1   7
HETATM    7  C   UNL     1     -45.665 -51.722  13.582  1.00  0.00     0.087 A 
HETATM    8  C   UNL     1     -45.564 -53.086  13.263  1.00  0.00     0.169 A 
HETATM    9  N   UNL     1     -46.254 -54.069  13.898  1.00  0.00    -0.345 N 
HETATM   10  C   UNL     1     -47.074 -53.692  14.900  1.00  0.00     0.090 A 
ATOM     11  HN  UNL     1     -46.158 -55.048  13.628  1.00  0.00     0.167 HD
HETATM   12  C   UNL     1     -47.215 -52.382  15.317  1.00  0.00     0.019 A 
HETATM   13  C   UNL     1     -46.495 -51.391  14.655  1.00  0.00     0.035 A 
BRANCH   8  14
HETATM   14  O   UNL     1     -44.716 -53.443  12.225  1.00  0.00    -0.339 OA
HETATM   15  C   UNL     1     -43.466 -53.949  12.701  1.00  0.00     0.211 C 
ENDBRANCH   8  14
ENDBRANCH   1   7
BRANCH   4  16
HETATM   16  C   UNL     1     -41.786 -48.966  12.375  1.00  0.00     0.089 C 
HETATM   17  C   UNL     1     -41.613 -47.697  13.209  1.00  0.00     0.055 C 
HETATM   18  C   UNL     1     -42.027 -46.431  12.461  1.00  0.00     0.275 C 
HETATM   19  N   UNL     1     -41.496 -46.307  11.101  1.00  0.00     0.093 N 
HETATM   20  C   UNL     1     -41.677 -47.529  10.309  1.00  0.00     0.275 C 
HETATM   21  C   UNL     1     -41.130 -48.777  11.004  1.00  0.00     0.055 C 
BRANCH  19  22
HETATM   22  C   UNL     1     -40.127 -45.774  10.987  1.00  0.00     0.223 A 
HETATM   23  C   UNL     1     -39.566 -44.737  11.917  1.00  0.00     0.038 A 
HETATM   24  C   UNL     1     -40.030 -44.329  10.553  1.00  0.00     0.038 A 
ENDBRANCH  19  22
ENDBRANCH   4  16
TORSDOF 4
ENDMDL
MODEL 3
REMARK VINA RESULT:      -5.5      1.675      2.530
REMARK  4 active torsions:
REMARK  status: ('A' for Active; 'I' for Inactive)
REMARK    1  A    between atoms: O_2  and  C_3 
REMARK    2  A    between atoms: C_9  and  N_10 
REMARK       I    between atoms: N_10  and  C_11 
REMARK       I    between atoms: C_11  and  N_13 
REMARK    3  A    between atoms: N_13  and  C_14 
REMARK    4  A    between atoms: N_17  and  C_20 
ROOT
HETATM    1  N   UNL     1     -43.292 -51.740  12.401  1.00  0.00    -0.305 N 
HETATM    2  C   UNL     1     -43.269 -50.479  12.953  1.00  0.00     0.321 C 
HETATM    3  O   UNL     1     -43.688 -50.175  14.064  1.00  0.00    -0.247 OA
HETATM    4  N   UNL     1     -42.696 -49.536  12.117  1.00  0.00    -0.338 N 
HETATM    5  H   UNL     1     -43.227 -51.819  11.394  1.00  0.00     0.171 HD
HETATM    6  H   UNL     1     -42.062 -49.900  11.420  1.00  0.00     0.164 HD
ENDROOT
BRANCH   1   7
HETATM    7  C   UNL     1     -43.736 -52.910  13.076  1.00  0.00     0.087 A 
HETATM    8  C   UNL     1     -42.846 -53.672  13.850  1.00  0.00     0.169 A 
HETATM    9  N   UNL     1     -43.185 -54.824  14.486  1.00  0.00    -0.345 N 
HETATM   10  C   UNL     1     -44.462 -55.238  14.364  1.00  0.00     0.090 A 
ATOM     11  HN  UNL     1     -42.503 -55.351  15.032  1.00  0.00     0.167 HD
HETATM   12  C   UNL     1     -45.424 -54.541  13.658  1.00  0.00     0.019 A 
HETATM   13  C   UNL     1     -45.056 -53.362  13.017  1.00  0.00     0.035 A 
BRANCH   8  14
HETATM   14  O   UNL     1     -41.538 -53.223  13.956  1.00  0.00    -0.339 OA
HETATM   15  C   UNL     1     -40.622 -54.062  13.246  1.00  0.00     0.211 C 
ENDBRANCH   8  14
ENDBRANCH   1   7
BRANCH   4  16
HETATM   16  C   UNL     1     -42.401 -48.204  12.664  1.00  0.00     0.089 C 
HETATM   17  C   UNL     1     -42.891 -47.061  11.776  1.00  0.00     0.055 C 
HETATM   18  C   UNL     1     -42.022 -46.854  10.537  1.00  0.00     0.275 C 
HETATM   19  N   UNL     1     -40.578 -46.817  10.785  1.00  0.00     0.093 N 
HETATM   20  C   UNL     1     -40.121 -47.925  11.631  1.00  0.00     0.275 C 
HETATM   21  C   UNL     1     -40.904 -48.039  12.940  1.00  0.00     0.055 C 
BRANCH  19  22
HETATM   22  C   UNL     1     -40.031 -45.523  11.228  1.00  0.00     0.223 A 
HETATM   23  C   UNL     1     -40.673 -44.203  10.908  1.00  0.00     0.038 A 
HETATM   24  C   UNL     1     -39.473 -44.646  10.131  1.00  0.00     0.038 A 
ENDBRANCH  19  22
ENDBRANCH   4  16
TORSDOF 4
ENDMDL
MODEL 4
REMARK VINA RESULT:      -5.2      1.722      2.173
REMARK  4 active torsions:
REMARK  status: ('A' for Active; 'I' for Inactive)
REMARK    1  A    between atoms: O_2  and  C_3 
REMARK    2  A    between atoms: C_9  and  N_10 
REMARK       I    between atoms: N_10  and  C_11 
REMARK       I    between atoms: C_11  and  N_13 
REMARK    3  A    between atoms: N_13  and  C_14 
REMARK    4  A    between atoms: N_17  and  C_20 
ROOT
HETATM    1  N   UNL     1     -42.620 -51.370  13.791  1.00  0.00    -0.305 N 
HETATM    2  C   UNL     1     -41.924 -50.998  12.663  1.00  0.00     0.321 C 
HETATM    3  O   UNL     1     -41.686 -51.716  11.698  1.00  0.00    -0.247 OA
HETATM    4  N   UNL     1     -41.503 -49.680  12.699  1.00  0.00    -0.338 N 
HETATM    5  H   UNL     1     -42.482 -50.827  14.634  1.00  0.00     0.171 HD
HETATM    6  H   UNL     1     -42.030 -49.071  13.309  1.00  0.00     0.164 HD
ENDROOT
BRANCH   1   7
HETATM    7  C   UNL     1     -43.246 -52.634  13.975  1.00  0.00     0.087 A 
HETATM    8  C   UNL     1     -44.596 -52.821  13.637  1.00  0.00     0.169 A 
HETATM    9  N   UNL     1     -45.273 -53.983  13.826  1.00  0.00    -0.345 N 
HETATM   10  C   UNL     1     -44.587 -55.012  14.362  1.00  0.00     0.090 A 
ATOM     11  HN  UNL     1     -46.258 -54.073  13.573  1.00  0.00     0.167 HD
HETATM   12  C   UNL     1     -43.247 -54.943  14.693  1.00  0.00     0.019 A 
HETATM   13  C   UNL     1     -42.571 -53.743  14.488  1.00  0.00     0.035 A 
BRANCH   8  14
HETATM   14  O   UNL     1     -45.277 -51.744  13.090  1.00  0.00    -0.339 OA
HETATM   15  C   UNL     1     -46.518 -51.495  13.759  1.00  0.00     0.211 C 
ENDBRANCH   8  14
ENDBRANCH   1   7
BRANCH   4  16
HETATM   16  C   UNL     1     -40.951 -49.087  11.473  1.00  0.00     0.089 C 
HETATM   17  C   UNL     1     -39.706 -48.234  11.718  1.00  0.00     0.055 C 
HETATM   18  C   UNL     1     -40.027 -46.880  12.346  1.00  0.00     0.275 C 
HETATM   19  N   UNL     1     -41.121 -46.139  11.713  1.00  0.00     0.093 N 
HETATM   20  C   UNL     1     -42.312 -46.968  11.493  1.00  0.00     0.275 C 
HETATM   21  C   UNL     1     -42.007 -48.261  10.734  1.00  0.00     0.055 C 
BRANCH  19  22
HETATM   22  C   UNL     1     -40.765 -45.357  10.517  1.00  0.00     0.223 A 
HETATM   23  C   UNL     1     -39.372 -44.874  10.232  1.00  0.00     0.038 A 
HETATM   24  C   UNL     1     -40.387 -43.916  10.775  1.00  0.00     0.038 A 
ENDBRANCH  19  22
ENDBRANCH   4  16
TORSDOF 4
ENDMDL
MODEL 5
REMARK VINA RESULT:      -5.2      2.240      7.853
REMARK  4 active torsions:
REMARK  status: ('A' for Active; 'I' for Inactive)
REMARK    1  A    between atoms: O_2  and  C_3 
REMARK    2  A    between atoms: C_9  and  N_10 
REMARK       I    between atoms: N_10  and  C_11 
REMARK       I    between atoms: C_11  and  N_13 
REMARK    3  A    between atoms: N_13  and  C_14 
REMARK    4  A    between atoms: N_17  and  C_20 
ROOT
HETATM    1  N   UNL     1     -41.673 -48.825  10.915  1.00  0.00    -0.305 N 
HETATM    2  C   UNL     1     -41.528 -49.562  12.069  1.00  0.00     0.321 C 
HETATM    3  O   UNL     1     -41.101 -49.143  13.139  1.00  0.00    -0.247 OA
HETATM    4  N   UNL     1     -41.933 -50.877  11.923  1.00  0.00    -0.338 N 
HETATM    5  H   UNL     1     -41.720 -49.324  10.036  1.00  0.00     0.171 HD
HETATM    6  H   UNL     1     -42.594 -51.049  11.178  1.00  0.00     0.164 HD
ENDROOT
BRANCH   1   7
HETATM    7  C   UNL     1     -41.423 -47.429  10.811  1.00  0.00     0.087 A 
HETATM    8  C   UNL     1     -42.474 -46.528  10.577  1.00  0.00     0.169 A 
HETATM    9  N   UNL     1     -42.309 -45.189  10.421  1.00  0.00    -0.345 N 
HETATM   10  C   UNL     1     -41.050 -44.713  10.510  1.00  0.00     0.090 A 
ATOM     11  HN  UNL     1     -43.100 -44.571  10.243  1.00  0.00     0.167 HD
HETATM   12  C   UNL     1     -39.952 -45.510  10.776  1.00  0.00     0.019 A 
HETATM   13  C   UNL     1     -40.146 -46.879  10.937  1.00  0.00     0.035 A 
BRANCH   8  14
HETATM   14  O   UNL     1     -43.757 -47.047  10.486  1.00  0.00    -0.339 OA
HETATM   15  C   UNL     1     -44.259 -47.015   9.146  1.00  0.00     0.211 C 
ENDBRANCH   8  14
ENDBRANCH   1   7
BRANCH   4  16
HETATM   16  C   UNL     1     -42.047 -51.713  13.127  1.00  0.00     0.089 C 
HETATM   17  C   UNL     1     -42.136 -53.208  12.821  1.00  0.00     0.055 C 
HETATM   18  C   UNL     1     -43.502 -53.626  12.282  1.00  0.00     0.275 C 
HETATM   19  N   UNL     1     -44.653 -53.119  13.033  1.00  0.00     0.093 N 
HETATM   20  C   UNL     1     -44.559 -51.681  13.310  1.00  0.00     0.275 C 
HETATM   21  C   UNL     1     -43.243 -51.288  13.984  1.00  0.00     0.055 C 
BRANCH  19  22
HETATM   22  C   UNL     1     -45.033 -53.888  14.231  1.00  0.00     0.223 A 
HETATM   23  C   UNL     1     -44.489 -55.252  14.542  1.00  0.00     0.038 A 
HETATM   24  C   UNL     1     -45.866 -55.122  13.970  1.00  0.00     0.038 A 
ENDBRANCH  19  22
ENDBRANCH   4  16
TORSDOF 4
ENDMDL
MODEL 6
REMARK VINA RESULT:      -5.1     14.828     16.451
REMARK  4 active torsions:
REMARK  status: ('A' for Active; 'I' for Inactive)
REMARK    1  A    between atoms: O_2  and  C_3 
REMARK    2  A    between atoms: C_9  and  N_10 
REMARK       I    between atoms: N_10  and  C_11 
REMARK       I    between atoms: C_11  and  N_13 
REMARK    3  A    between atoms: N_13  and  C_14 
REMARK    4  A    between atoms: N_17  and  C_20 
ROOT
HETATM    1  N   UNL     1     -50.700 -48.779  -0.003  1.00  0.00    -0.305 N 
HETATM    2  C   UNL     1     -50.289 -50.038   0.373  1.00  0.00     0.321 C 
HETATM    3  O   UNL     1     -49.862 -50.353   1.478  1.00  0.00    -0.247 OA
HETATM    4  N   UNL     1     -50.414 -50.970  -0.642  1.00  0.00    -0.338 N 
HETATM    5  H   UNL     1     -50.723 -48.562  -0.991  1.00  0.00     0.171 HD
HETATM    6  H   UNL     1     -51.090 -50.747  -1.359  1.00  0.00     0.164 HD
ENDROOT
BRANCH   1   7
HETATM    7  C   UNL     1     -50.768 -47.657   0.869  1.00  0.00     0.087 A 
HETATM    8  C   UNL     1     -51.966 -47.332   1.526  1.00  0.00     0.169 A 
HETATM    9  N   UNL     1     -52.120 -46.253   2.336  1.00  0.00    -0.345 N 
HETATM   10  C   UNL     1     -51.042 -45.463   2.517  1.00  0.00     0.090 A 
ATOM     11  HN  UNL     1     -53.012 -46.049   2.787  1.00  0.00     0.167 HD
HETATM   12  C   UNL     1     -49.809 -45.717   1.947  1.00  0.00     0.019 A 
HETATM   13  C   UNL     1     -49.672 -46.830   1.123  1.00  0.00     0.035 A 
BRANCH   8  14
HETATM   14  O   UNL     1     -53.059 -48.160   1.319  1.00  0.00    -0.339 OA
HETATM   15  C   UNL     1     -54.165 -47.459   0.743  1.00  0.00     0.211 C 
ENDBRANCH   8  14
ENDBRANCH   1   7
BRANCH   4  16
HETATM   16  C   UNL     1     -50.229 -52.391  -0.315  1.00  0.00     0.089 C 
HETATM   17  C   UNL     1     -48.950 -52.988  -0.902  1.00  0.00     0.055 C 
HETATM   18  C   UNL     1     -49.049 -53.246  -2.404  1.00  0.00     0.275 C 
HETATM   19  N   UNL     1     -50.265 -53.936  -2.842  1.00  0.00     0.093 N 
HETATM   20  C   UNL     1     -51.484 -53.346  -2.278  1.00  0.00     0.275 C 
HETATM   21  C   UNL     1     -51.438 -53.222  -0.754  1.00  0.00     0.055 C 
BRANCH  19  22
HETATM   22  C   UNL     1     -50.255 -55.404  -2.720  1.00  0.00     0.223 A 
HETATM   23  C   UNL     1     -49.026 -56.241  -2.931  1.00  0.00     0.038 A 
HETATM   24  C   UNL     1     -50.056 -56.159  -4.014  1.00  0.00     0.038 A 
ENDBRANCH  19  22
ENDBRANCH   4  16
TORSDOF 4
ENDMDL
MODEL 7
REMARK VINA RESULT:      -5.0      3.095      7.906
REMARK  4 active torsions:
REMARK  status: ('A' for Active; 'I' for Inactive)
REMARK    1  A    between atoms: O_2  and  C_3 
REMARK    2  A    between atoms: C_9  and  N_10 
REMARK       I    between atoms: N_10  and  C_11 
REMARK       I    between atoms: C_11  and  N_13 
REMARK    3  A    between atoms: N_13  and  C_14 
REMARK    4  A    between atoms: N_17  and  C_20 
ROOT
HETATM    1  N   UNL     1     -42.175 -48.975  12.021  1.00  0.00    -0.305 N 
HETATM    2  C   UNL     1     -41.611 -50.223  11.885  1.00  0.00     0.321 C 
HETATM    3  O   UNL     1     -40.557 -50.476  11.312  1.00  0.00    -0.247 OA
HETATM    4  N   UNL     1     -42.359 -51.221  12.486  1.00  0.00    -0.338 N 
HETATM    5  H   UNL     1     -43.167 -48.921  12.214  1.00  0.00     0.171 HD
HETATM    6  H   UNL     1     -42.977 -50.916  13.225  1.00  0.00     0.164 HD
ENDROOT
BRANCH   1   7
HETATM    7  C   UNL     1     -41.572 -47.763  11.584  1.00  0.00     0.087 A 
HETATM    8  C   UNL     1     -41.914 -47.200  10.344  1.00  0.00     0.169 A 
HETATM    9  N   UNL     1     -41.349 -46.073   9.838  1.00  0.00    -0.345 N 
HETATM   10  C   UNL     1     -40.412 -45.466  10.594  1.00  0.00     0.090 A 
ATOM     11  HN  UNL     1     -41.621 -45.702   8.928  1.00  0.00     0.167 HD
HETATM   12  C   UNL     1     -40.032 -45.917  11.844  1.00  0.00     0.019 A 
HETATM   13  C   UNL     1     -40.627 -47.072  12.344  1.00  0.00     0.035 A 
BRANCH   8  14
HETATM   14  O   UNL     1     -42.878 -47.848   9.587  1.00  0.00    -0.339 OA
HETATM   15  C   UNL     1     -44.090 -47.092   9.495  1.00  0.00     0.211 C 
ENDBRANCH   8  14
ENDBRANCH   1   7
BRANCH   4  16
HETATM   16  C   UNL     1     -41.767 -52.559  12.615  1.00  0.00     0.089 C 
HETATM   17  C   UNL     1     -42.787 -53.645  12.954  1.00  0.00     0.055 C 
HETATM   18  C   UNL     1     -43.244 -53.599  14.410  1.00  0.00     0.275 C 
HETATM   19  N   UNL     1     -42.170 -53.485  15.400  1.00  0.00     0.093 N 
HETATM   20  C   UNL     1     -41.204 -52.432  15.066  1.00  0.00     0.275 C 
HETATM   21  C   UNL     1     -40.639 -52.567  13.651  1.00  0.00     0.055 C 
BRANCH  19  22
HETATM   22  C   UNL     1     -41.506 -54.743  15.782  1.00  0.00     0.223 A 
HETATM   23  C   UNL     1     -42.245 -55.939  16.308  1.00  0.00     0.038 A 
HETATM   24  C   UNL     1     -41.506 -55.052  17.261  1.00  0.00     0.038 A 
ENDBRANCH  19  22
ENDBRANCH   4  16
TORSDOF 4
ENDMDL
MODEL 8
REMARK VINA RESULT:      -4.8      2.813      8.195
REMARK  4 active torsions:
REMARK  status: ('A' for Active; 'I' for Inactive)
REMARK    1  A    between atoms: O_2  and  C_3 
REMARK    2  A    between atoms: C_9  and  N_10 
REMARK       I    between atoms: N_10  and  C_11 
REMARK       I    between atoms: C_11  and  N_13 
REMARK    3  A    between atoms: N_13  and  C_14 
REMARK    4  A    between atoms: N_17  and  C_20 
ROOT
HETATM    1  N   UNL     1     -40.348 -47.688  12.570  1.00  0.00    -0.305 N 
HETATM    2  C   UNL     1     -41.326 -48.593  12.226  1.00  0.00     0.321 C 
HETATM    3  O   UNL     1     -42.291 -48.367  11.504  1.00  0.00    -0.247 OA
HETATM    4  N   UNL     1     -41.119 -49.845  12.779  1.00  0.00    -0.338 N 
HETATM    5  H   UNL     1     -39.800 -47.873  13.400  1.00  0.00     0.171 HD
HETATM    6  H   UNL     1     -40.164 -50.057  13.031  1.00  0.00     0.164 HD
ENDROOT
BRANCH   1   7
HETATM    7  C   UNL     1     -40.263 -46.360  12.066  1.00  0.00     0.087 A 
HETATM    8  C   UNL     1     -40.583 -45.263  12.882  1.00  0.00     0.169 A 
HETATM    9  N   UNL     1     -40.570 -43.972  12.460  1.00  0.00    -0.345 N 
HETATM   10  C   UNL     1     -40.213 -43.750  11.179  1.00  0.00     0.090 A 
ATOM     11  HN  UNL     1     -40.818 -43.204  13.085  1.00  0.00     0.167 HD
HETATM   12  C   UNL     1     -39.843 -44.756  10.306  1.00  0.00     0.019 A 
HETATM   13  C   UNL     1     -39.860 -46.071  10.761  1.00  0.00     0.035 A 
BRANCH   8  14
HETATM   14  O   UNL     1     -40.949 -45.522  14.194  1.00  0.00    -0.339 OA
HETATM   15  C   UNL     1     -40.041 -44.937  15.133  1.00  0.00     0.211 C 
ENDBRANCH   8  14
ENDBRANCH   1   7
BRANCH   4  16
HETATM   16  C   UNL     1     -41.955 -50.962  12.316  1.00  0.00     0.089 C 
HETATM   17  C   UNL     1     -43.166 -51.226  13.211  1.00  0.00     0.055 C 
HETATM   18  C   UNL     1     -42.797 -51.917  14.522  1.00  0.00     0.275 C 
HETATM   19  N   UNL     1     -41.909 -53.075  14.392  1.00  0.00     0.093 N 
HETATM   20  C   UNL     1     -40.747 -52.803  13.537  1.00  0.00     0.275 C 
HETATM   21  C   UNL     1     -41.132 -52.244  12.166  1.00  0.00     0.055 C 
BRANCH  19  22
HETATM   22  C   UNL     1     -42.558 -54.352  14.049  1.00  0.00     0.223 A 
HETATM   23  C   UNL     1     -43.972 -54.686  14.429  1.00  0.00     0.038 A 
HETATM   24  C   UNL     1     -42.840 -55.268  15.218  1.00  0.00     0.038 A 
ENDBRANCH  19  22
ENDBRANCH   4  16
TORSDOF 4
ENDMDL
MODEL 9
REMARK VINA RESULT:      -4.7      4.599      8.435
REMARK  4 active torsions:
REMARK  status: ('A' for Active; 'I' for Inactive)
REMARK    1  A    between atoms: O_2  and  C_3 
REMARK    2  A    between atoms: C_9  and  N_10 
REMARK       I    between atoms: N_10  and  C_11 
REMARK       I    between atoms: C_11  and  N_13 
REMARK    3  A    between atoms: N_13  and  C_14 
REMARK    4  A    between atoms: N_17  and  C_20 
ROOT
HETATM    1  N   UNL     1     -40.434 -48.005  12.965  1.00  0.00    -0.305 N 
HETATM    2  C   UNL     1     -39.424 -48.914  13.187  1.00  0.00     0.321 C 
HETATM    3  O   UNL     1     -38.305 -48.879  12.688  1.00  0.00    -0.247 OA
HETATM    4  N   UNL     1     -39.786 -49.916  14.071  1.00  0.00    -0.338 N 
HETATM    5  H   UNL     1     -41.384 -48.295  13.158  1.00  0.00     0.171 HD
HETATM    6  H   UNL     1     -40.540 -49.687  14.704  1.00  0.00     0.164 HD
ENDROOT
BRANCH   1   7
HETATM    7  C   UNL     1     -40.303 -46.828  12.178  1.00  0.00     0.087 A 
HETATM    8  C   UNL     1     -40.782 -46.791  10.859  1.00  0.00     0.169 A 
HETATM    9  N   UNL     1     -40.653 -45.721  10.032  1.00  0.00    -0.345 N 
HETATM   10  C   UNL     1     -40.034 -44.632  10.531  1.00  0.00     0.090 A 
ATOM     11  HN  UNL     1     -41.009 -45.740   9.076  1.00  0.00     0.167 HD
HETATM   12  C   UNL     1     -39.561 -44.553  11.827  1.00  0.00     0.019 A 
HETATM   13  C   UNL     1     -39.707 -45.660  12.659  1.00  0.00     0.035 A 
BRANCH   8  14
HETATM   14  O   UNL     1     -41.412 -47.926  10.371  1.00  0.00    -0.339 OA
HETATM   15  C   UNL     1     -42.818 -47.728  10.191  1.00  0.00     0.211 C 
ENDBRANCH   8  14
ENDBRANCH   1   7
BRANCH   4  16
HETATM   16  C   UNL     1     -38.741 -50.819  14.572  1.00  0.00     0.089 C 
HETATM   17  C   UNL     1     -38.715 -52.172  13.862  1.00  0.00     0.055 C 
HETATM   18  C   UNL     1     -39.855 -53.092  14.293  1.00  0.00     0.275 C 
HETATM   19  N   UNL     1     -40.058 -53.202  15.740  1.00  0.00     0.093 N 
HETATM   20  C   UNL     1     -40.089 -51.895  16.406  1.00  0.00     0.275 C 
HETATM   21  C   UNL     1     -38.870 -51.030  16.083  1.00  0.00     0.055 C 
BRANCH  19  22
HETATM   22  C   UNL     1     -39.188 -54.159  16.444  1.00  0.00     0.223 A 
HETATM   23  C   UNL     1     -38.606 -55.380  15.791  1.00  0.00     0.038 A 
HETATM   24  C   UNL     1     -39.794 -55.522  16.693  1.00  0.00     0.038 A 
ENDBRANCH  19  22
ENDBRANCH   4  16
TORSDOF 4
ENDMDL
