MODEL 1
REMARK VINA RESULT:      -5.7      0.000      0.000
REMARK  4 active torsions:
REMARK  status: ('A' for Active; 'I' for Inactive)
REMARK    1  A    between atoms: C_2  and  S_3 
REMARK    2  A    between atoms: S_3  and  C_4 
REMARK    3  A    between atoms: C_7  and  N_8 
REMARK       I    between atoms: N_8  and  C_9 
REMARK       I    between atoms: C_9  and  N_11 
REMARK    4  A    between atoms: N_11  and  C_12 
ROOT
HETATM    1  N   UNL     1     -42.262 -49.699  11.631  1.00  0.00    -0.308 N 
HETATM    2  C   UNL     1     -42.931 -49.954  12.807  1.00  0.00     0.321 C 
HETATM    3  O   UNL     1     -43.107 -49.156  13.721  1.00  0.00    -0.247 OA
HETATM    4  N   UNL     1     -43.442 -51.233  12.856  1.00  0.00    -0.338 N 
HETATM    5  H   UNL     1     -42.427 -50.350  10.874  1.00  0.00     0.170 HD
HETATM    6  H   UNL     1     -42.931 -51.939  12.345  1.00  0.00     0.164 HD
ENDROOT
BRANCH   1   7
HETATM    7  C   UNL     1     -41.596 -48.489  11.321  1.00  0.00     0.051 A 
HETATM    8  C   UNL     1     -40.403 -48.101  11.924  1.00  0.00     0.034 A 
HETATM    9  C   UNL     1     -39.801 -46.894  11.574  1.00  0.00     0.039 A 
HETATM   10  C   UNL     1     -40.404 -46.093  10.616  1.00  0.00     0.069 A 
HETATM   11  N   UNL     1     -41.558 -46.438  10.001  1.00  0.00    -0.358 N 
HETATM   12  C   UNL     1     -42.117 -47.625  10.364  1.00  0.00     0.118 A 
ATOM     13  HN  UNL     1     -41.988 -45.838   9.298  1.00  0.00     0.166 HD
BRANCH  10  14
HETATM   14  S   UNL     1     -39.569 -44.594  10.137  1.00  0.00    -0.113 SA
BRANCH  14  15
HETATM   15  C   UNL     1     -40.476 -43.375  11.130  1.00  0.00     0.076 C 
HETATM   16  C   UNL     1     -39.845 -43.292  12.511  1.00  0.00     0.016 C 
ENDBRANCH  14  15
ENDBRANCH  10  14
ENDBRANCH   1   7
BRANCH   4  17
HETATM   17  C   UNL     1     -44.165 -51.665  14.057  1.00  0.00     0.089 C 
HETATM   18  C   UNL     1     -43.685 -53.033  14.555  1.00  0.00     0.055 C 
HETATM   19  C   UNL     1     -44.237 -54.179  13.705  1.00  0.00     0.274 C 
HETATM   20  N   UNL     1     -45.694 -54.146  13.525  1.00  0.00     0.084 N 
HETATM   21  C   UNL     1     -46.409 -54.545  14.737  1.00  0.00     0.309 C 
HETATM   22  C   UNL     1     -46.147 -52.850  13.012  1.00  0.00     0.274 C 
HETATM   23  C   UNL     1     -45.676 -51.654  13.836  1.00  0.00     0.055 C 
ENDBRANCH   4  17
TORSDOF 4
ENDMDL
MODEL 2
REMARK VINA RESULT:      -5.7      3.556      4.748
REMARK  4 active torsions:
REMARK  status: ('A' for Active; 'I' for Inactive)
REMARK    1  A    between atoms: C_2  and  S_3 
REMARK    2  A    between atoms: S_3  and  C_4 
REMARK    3  A    between atoms: C_7  and  N_8 
REMARK       I    between atoms: N_8  and  C_9 
REMARK       I    between atoms: C_9  and  N_11 
REMARK    4  A    between atoms: N_11  and  C_12 
ROOT
HETATM    1  N   UNL     1     -40.979 -50.519  12.876  1.00  0.00    -0.308 N 
HETATM    2  C   UNL     1     -41.151 -51.884  12.824  1.00  0.00     0.321 C 
HETATM    3  O   UNL     1     -41.823 -52.493  11.998  1.00  0.00    -0.247 OA
HETATM    4  N   UNL     1     -40.439 -52.543  13.803  1.00  0.00    -0.338 N 
HETATM    5  H   UNL     1     -40.199 -50.190  13.430  1.00  0.00     0.170 HD
HETATM    6  H   UNL     1     -40.288 -52.036  14.665  1.00  0.00     0.164 HD
ENDROOT
BRANCH   1   7
HETATM    7  C   UNL     1     -41.620 -49.587  12.027  1.00  0.00     0.051 A 
HETATM    8  C   UNL     1     -42.809 -48.944  12.361  1.00  0.00     0.034 A 
HETATM    9  C   UNL     1     -43.389 -48.038  11.476  1.00  0.00     0.039 A 
HETATM   10  C   UNL     1     -42.763 -47.785  10.265  1.00  0.00     0.069 A 
HETATM   11  N   UNL     1     -41.604 -48.381   9.906  1.00  0.00    -0.358 N 
HETATM   12  C   UNL     1     -41.063 -49.258  10.795  1.00  0.00     0.118 A 
ATOM     13  HN  UNL     1     -41.156 -48.183   9.011  1.00  0.00     0.166 HD
BRANCH  10  14
HETATM   14  S   UNL     1     -43.491 -46.564   9.190  1.00  0.00    -0.113 SA
BRANCH  14  15
HETATM   15  C   UNL     1     -44.855 -47.523   8.471  1.00  0.00     0.076 C 
HETATM   16  C   UNL     1     -46.154 -47.125   9.154  1.00  0.00     0.016 C 
ENDBRANCH  14  15
ENDBRANCH  10  14
ENDBRANCH   1   7
BRANCH   4  17
HETATM   17  C   UNL     1     -40.536 -54.005  13.893  1.00  0.00     0.089 C 
HETATM   18  C   UNL     1     -41.661 -54.448  14.836  1.00  0.00     0.055 C 
HETATM   19  C   UNL     1     -41.268 -54.297  16.307  1.00  0.00     0.274 C 
HETATM   20  N   UNL     1     -39.988 -54.924  16.655  1.00  0.00     0.084 N 
HETATM   21  C   UNL     1     -40.083 -56.383  16.708  1.00  0.00     0.309 C 
HETATM   22  C   UNL     1     -38.906 -54.469  15.777  1.00  0.00     0.274 C 
HETATM   23  C   UNL     1     -39.201 -54.632  14.288  1.00  0.00     0.055 C 
ENDBRANCH   4  17
TORSDOF 4
ENDMDL
MODEL 3
REMARK VINA RESULT:      -5.0      4.527      6.843
REMARK  4 active torsions:
REMARK  status: ('A' for Active; 'I' for Inactive)
REMARK    1  A    between atoms: C_2  and  S_3 
REMARK    2  A    between atoms: S_3  and  C_4 
REMARK    3  A    between atoms: C_7  and  N_8 
REMARK       I    between atoms: N_8  and  C_9 
REMARK       I    between atoms: C_9  and  N_11 
REMARK    4  A    between atoms: N_11  and  C_12 
ROOT
HETATM    1  N   UNL     1     -40.269 -47.562  13.223  1.00  0.00    -0.308 N 
HETATM    2  C   UNL     1     -39.048 -48.195  13.279  1.00  0.00     0.321 C 
HETATM    3  O   UNL     1     -38.466 -48.718  12.335  1.00  0.00    -0.247 OA
HETATM    4  N   UNL     1     -38.490 -48.156  14.539  1.00  0.00    -0.338 N 
HETATM    5  H   UNL     1     -40.492 -46.955  14.002  1.00  0.00     0.170 HD
HETATM    6  H   UNL     1     -39.139 -48.134  15.314  1.00  0.00     0.164 HD
ENDROOT
BRANCH   1   7
HETATM    7  C   UNL     1     -41.092 -47.484  12.074  1.00  0.00     0.051 A 
HETATM    8  C   UNL     1     -41.205 -46.336  11.295  1.00  0.00     0.034 A 
HETATM    9  C   UNL     1     -42.036 -46.327  10.177  1.00  0.00     0.039 A 
HETATM   10  C   UNL     1     -42.743 -47.476   9.854  1.00  0.00     0.069 A 
HETATM   11  N   UNL     1     -42.654 -48.613  10.579  1.00  0.00    -0.358 N 
HETATM   12  C   UNL     1     -41.830 -48.588  11.662  1.00  0.00     0.118 A 
ATOM     13  HN  UNL     1     -43.180 -49.450  10.327  1.00  0.00     0.166 HD
BRANCH  10  14
HETATM   14  S   UNL     1     -43.737 -47.454   8.375  1.00  0.00    -0.113 SA
BRANCH  14  15
HETATM   15  C   UNL     1     -45.361 -47.035   9.071  1.00  0.00     0.076 C 
HETATM   16  C   UNL     1     -46.330 -48.172   8.787  1.00  0.00     0.016 C 
ENDBRANCH  14  15
ENDBRANCH  10  14
ENDBRANCH   1   7
BRANCH   4  17
HETATM   17  C   UNL     1     -37.196 -48.808  14.765  1.00  0.00     0.089 C 
HETATM   18  C   UNL     1     -37.359 -50.250  15.261  1.00  0.00     0.055 C 
HETATM   19  C   UNL     1     -37.744 -50.306  16.741  1.00  0.00     0.274 C 
HETATM   20  N   UNL     1     -36.867 -49.524  17.621  1.00  0.00     0.084 N 
HETATM   21  C   UNL     1     -35.566 -50.162  17.814  1.00  0.00     0.309 C 
HETATM   22  C   UNL     1     -36.745 -48.135  17.166  1.00  0.00     0.274 C 
HETATM   23  C   UNL     1     -36.315 -47.993  15.709  1.00  0.00     0.055 C 
ENDBRANCH   4  17
TORSDOF 4
ENDMDL
MODEL 4
REMARK VINA RESULT:      -4.7      1.605      2.073
REMARK  4 active torsions:
REMARK  status: ('A' for Active; 'I' for Inactive)
REMARK    1  A    between atoms: C_2  and  S_3 
REMARK    2  A    between atoms: S_3  and  C_4 
REMARK    3  A    between atoms: C_7  and  N_8 
REMARK       I    between atoms: N_8  and  C_9 
REMARK       I    between atoms: C_9  and  N_11 
REMARK    4  A    between atoms: N_11  and  C_12 
ROOT
HETATM    1  N   UNL     1     -42.847 -49.161  12.126  1.00  0.00    -0.308 N 
HETATM    2  C   UNL     1     -42.233 -50.388  12.243  1.00  0.00     0.321 C 
HETATM    3  O   UNL     1     -41.027 -50.598  12.159  1.00  0.00    -0.247 OA
HETATM    4  N   UNL     1     -43.126 -51.402  12.513  1.00  0.00    -0.338 N 
HETATM    5  H   UNL     1     -43.793 -49.102  12.481  1.00  0.00     0.170 HD
HETATM    6  H   UNL     1     -44.061 -51.284  12.148  1.00  0.00     0.164 HD
ENDROOT
BRANCH   1   7
HETATM    7  C   UNL     1     -42.190 -47.950  11.806  1.00  0.00     0.051 A 
HETATM    8  C   UNL     1     -41.725 -47.059  12.770  1.00  0.00     0.034 A 
HETATM    9  C   UNL     1     -41.087 -45.881  12.385  1.00  0.00     0.039 A 
HETATM   10  C   UNL     1     -40.921 -45.616  11.034  1.00  0.00     0.069 A 
HETATM   11  N   UNL     1     -41.350 -46.458  10.068  1.00  0.00    -0.358 N 
HETATM   12  C   UNL     1     -41.965 -47.601  10.479  1.00  0.00     0.118 A 
ATOM     13  HN  UNL     1     -41.219 -46.248   9.079  1.00  0.00     0.166 HD
BRANCH  10  14
HETATM   14  S   UNL     1     -40.034 -44.138  10.579  1.00  0.00    -0.113 SA
BRANCH  14  15
HETATM   15  C   UNL     1     -41.148 -42.865  11.237  1.00  0.00     0.076 C 
HETATM   16  C   UNL     1     -40.355 -41.931  12.139  1.00  0.00     0.016 C 
ENDBRANCH  14  15
ENDBRANCH  10  14
ENDBRANCH   1   7
BRANCH   4  17
HETATM   17  C   UNL     1     -42.625 -52.775  12.645  1.00  0.00     0.089 C 
HETATM   18  C   UNL     1     -43.761 -53.805  12.616  1.00  0.00     0.055 C 
HETATM   19  C   UNL     1     -44.518 -53.861  13.944  1.00  0.00     0.274 C 
HETATM   20  N   UNL     1     -43.657 -54.034  15.121  1.00  0.00     0.084 N 
HETATM   21  C   UNL     1     -43.133 -55.395  15.227  1.00  0.00     0.309 C 
HETATM   22  C   UNL     1     -42.595 -53.023  15.167  1.00  0.00     0.274 C 
HETATM   23  C   UNL     1     -41.759 -52.939  13.893  1.00  0.00     0.055 C 
ENDBRANCH   4  17
TORSDOF 4
ENDMDL
MODEL 5
REMARK VINA RESULT:      -4.7      3.151      8.431
REMARK  4 active torsions:
REMARK  status: ('A' for Active; 'I' for Inactive)
REMARK    1  A    between atoms: C_2  and  S_3 
REMARK    2  A    between atoms: S_3  and  C_4 
REMARK    3  A    between atoms: C_7  and  N_8 
REMARK       I    between atoms: N_8  and  C_9 
REMARK       I    between atoms: C_9  and  N_11 
REMARK    4  A    between atoms: N_11  and  C_12 
ROOT
HETATM    1  N   UNL     1     -42.125 -49.867  11.857  1.00  0.00    -0.308 N 
HETATM    2  C   UNL     1     -41.137 -49.007  12.280  1.00  0.00     0.321 C 
HETATM    3  O   UNL     1     -40.416 -49.167  13.260  1.00  0.00    -0.247 OA
HETATM    4  N   UNL     1     -40.993 -47.918  11.448  1.00  0.00    -0.338 N 
HETATM    5  H   UNL     1     -42.444 -49.745  10.905  1.00  0.00     0.170 HD
HETATM    6  H   UNL     1     -41.827 -47.610  10.966  1.00  0.00     0.164 HD
ENDROOT
BRANCH   1   7
HETATM    7  C   UNL     1     -42.526 -51.042  12.537  1.00  0.00     0.051 A 
HETATM    8  C   UNL     1     -43.355 -51.029  13.655  1.00  0.00     0.034 A 
HETATM    9  C   UNL     1     -43.709 -52.224  14.278  1.00  0.00     0.039 A 
HETATM   10  C   UNL     1     -43.227 -53.419  13.767  1.00  0.00     0.069 A 
HETATM   11  N   UNL     1     -42.426 -53.476  12.678  1.00  0.00    -0.358 N 
HETATM   12  C   UNL     1     -42.104 -52.290  12.092  1.00  0.00     0.118 A 
ATOM     13  HN  UNL     1     -42.081 -54.363  12.314  1.00  0.00     0.166 HD
BRANCH  10  14
HETATM   14  S   UNL     1     -43.760 -54.933  14.541  1.00  0.00    -0.113 SA
BRANCH  14  15
HETATM   15  C   UNL     1     -45.399 -55.135  13.786  1.00  0.00     0.076 C 
HETATM   16  C   UNL     1     -46.453 -54.589  14.737  1.00  0.00     0.016 C 
ENDBRANCH  14  15
ENDBRANCH  10  14
ENDBRANCH   1   7
BRANCH   4  17
HETATM   17  C   UNL     1     -39.992 -46.897  11.777  1.00  0.00     0.089 C 
HETATM   18  C   UNL     1     -40.327 -46.165  13.081  1.00  0.00     0.055 C 
HETATM   19  C   UNL     1     -41.442 -45.134  12.889  1.00  0.00     0.274 C 
HETATM   20  N   UNL     1     -41.211 -44.197  11.783  1.00  0.00     0.084 N 
HETATM   21  C   UNL     1     -40.187 -43.204  12.105  1.00  0.00     0.309 C 
HETATM   22  C   UNL     1     -40.929 -44.901  10.528  1.00  0.00     0.274 C 
HETATM   23  C   UNL     1     -39.792 -45.915  10.625  1.00  0.00     0.055 C 
ENDBRANCH   4  17
TORSDOF 4
ENDMDL
MODEL 6
REMARK VINA RESULT:      -4.6      6.951      9.486
REMARK  4 active torsions:
REMARK  status: ('A' for Active; 'I' for Inactive)
REMARK    1  A    between atoms: C_2  and  S_3 
REMARK    2  A    between atoms: S_3  and  C_4 
REMARK    3  A    between atoms: C_7  and  N_8 
REMARK       I    between atoms: N_8  and  C_9 
REMARK       I    between atoms: C_9  and  N_11 
REMARK    4  A    between atoms: N_11  and  C_12 
ROOT
HETATM    1  N   UNL     1     -41.594 -55.974  17.048  1.00  0.00    -0.308 N 
HETATM    2  C   UNL     1     -40.357 -56.572  16.957  1.00  0.00     0.321 C 
HETATM    3  O   UNL     1     -39.501 -56.327  16.113  1.00  0.00    -0.247 OA
HETATM    4  N   UNL     1     -40.137 -57.486  17.965  1.00  0.00    -0.338 N 
HETATM    5  H   UNL     1     -42.073 -56.076  17.933  1.00  0.00     0.170 HD
HETATM    6  H   UNL     1     -40.955 -57.957  18.327  1.00  0.00     0.164 HD
ENDROOT
BRANCH   1   7
HETATM    7  C   UNL     1     -42.110 -55.031  16.128  1.00  0.00     0.051 A 
HETATM    8  C   UNL     1     -43.046 -55.356  15.149  1.00  0.00     0.034 A 
HETATM    9  C   UNL     1     -43.511 -54.378  14.273  1.00  0.00     0.039 A 
HETATM   10  C   UNL     1     -43.033 -53.083  14.394  1.00  0.00     0.069 A 
HETATM   11  N   UNL     1     -42.131 -52.724  15.335  1.00  0.00    -0.358 N 
HETATM   12  C   UNL     1     -41.701 -53.703  16.177  1.00  0.00     0.118 A 
ATOM     13  HN  UNL     1     -41.790 -51.766  15.411  1.00  0.00     0.166 HD
BRANCH  10  14
HETATM   14  S   UNL     1     -43.706 -51.841  13.306  1.00  0.00    -0.113 SA
BRANCH  14  15
HETATM   15  C   UNL     1     -45.057 -51.196  14.332  1.00  0.00     0.076 C 
HETATM   16  C   UNL     1     -46.385 -51.547  13.679  1.00  0.00     0.016 C 
ENDBRANCH  14  15
ENDBRANCH  10  14
ENDBRANCH   1   7
BRANCH   4  17
HETATM   17  C   UNL     1     -38.870 -58.225  17.992  1.00  0.00     0.089 C 
HETATM   18  C   UNL     1     -39.088 -59.733  18.162  1.00  0.00     0.055 C 
HETATM   19  C   UNL     1     -39.434 -60.102  19.606  1.00  0.00     0.274 C 
HETATM   20  N   UNL     1     -38.497 -59.571  20.604  1.00  0.00     0.084 N 
HETATM   21  C   UNL     1     -37.223 -60.290  20.602  1.00  0.00     0.309 C 
HETATM   22  C   UNL     1     -38.321 -58.123  20.464  1.00  0.00     0.274 C 
HETATM   23  C   UNL     1     -37.924 -57.677  19.059  1.00  0.00     0.055 C 
ENDBRANCH   4  17
TORSDOF 4
ENDMDL
MODEL 7
REMARK VINA RESULT:      -4.6      4.970      6.998
REMARK  4 active torsions:
REMARK  status: ('A' for Active; 'I' for Inactive)
REMARK    1  A    between atoms: C_2  and  S_3 
REMARK    2  A    between atoms: S_3  and  C_4 
REMARK    3  A    between atoms: C_7  and  N_8 
REMARK       I    between atoms: N_8  and  C_9 
REMARK       I    between atoms: C_9  and  N_11 
REMARK    4  A    between atoms: N_11  and  C_12 
ROOT
HETATM    1  N   UNL     1     -39.105 -47.192  12.919  1.00  0.00    -0.308 N 
HETATM    2  C   UNL     1     -39.273 -47.758  14.163  1.00  0.00     0.321 C 
HETATM    3  O   UNL     1     -40.340 -48.116  14.651  1.00  0.00    -0.247 OA
HETATM    4  N   UNL     1     -38.079 -47.932  14.830  1.00  0.00    -0.338 N 
HETATM    5  H   UNL     1     -38.163 -47.200  12.551  1.00  0.00     0.170 HD
HETATM    6  H   UNL     1     -37.348 -47.267  14.618  1.00  0.00     0.164 HD
ENDROOT
BRANCH   1   7
HETATM    7  C   UNL     1     -40.154 -46.855  12.031  1.00  0.00     0.051 A 
HETATM    8  C   UNL     1     -40.773 -45.608  12.023  1.00  0.00     0.034 A 
HETATM    9  C   UNL     1     -41.803 -45.344  11.122  1.00  0.00     0.039 A 
HETATM   10  C   UNL     1     -42.196 -46.337  10.237  1.00  0.00     0.069 A 
HETATM   11  N   UNL     1     -41.614 -47.557  10.207  1.00  0.00    -0.358 N 
HETATM   12  C   UNL     1     -40.610 -47.780  11.098  1.00  0.00     0.118 A 
ATOM     13  HN  UNL     1     -41.914 -48.276   9.550  1.00  0.00     0.166 HD
BRANCH  10  14
HETATM   14  S   UNL     1     -43.463 -45.940   9.049  1.00  0.00    -0.113 SA
BRANCH  14  15
HETATM   15  C   UNL     1     -44.106 -47.597   8.681  1.00  0.00     0.076 C 
HETATM   16  C   UNL     1     -43.496 -48.087   7.376  1.00  0.00     0.016 C 
ENDBRANCH  14  15
ENDBRANCH  10  14
ENDBRANCH   1   7
BRANCH   4  17
HETATM   17  C   UNL     1     -38.094 -48.506  16.180  1.00  0.00     0.089 C 
HETATM   18  C   UNL     1     -37.321 -47.639  17.180  1.00  0.00     0.055 C 
HETATM   19  C   UNL     1     -35.807 -47.806  17.032  1.00  0.00     0.274 C 
HETATM   20  N   UNL     1     -35.351 -49.201  17.054  1.00  0.00     0.084 N 
HETATM   21  C   UNL     1     -35.402 -49.778  18.397  1.00  0.00     0.309 C 
HETATM   22  C   UNL     1     -36.065 -50.019  16.069  1.00  0.00     0.274 C 
HETATM   23  C   UNL     1     -37.585 -49.946  16.183  1.00  0.00     0.055 C 
ENDBRANCH   4  17
TORSDOF 4
ENDMDL
MODEL 8
REMARK VINA RESULT:      -4.5     15.421     17.755
REMARK  4 active torsions:
REMARK  status: ('A' for Active; 'I' for Inactive)
REMARK    1  A    between atoms: C_2  and  S_3 
REMARK    2  A    between atoms: S_3  and  C_4 
REMARK    3  A    between atoms: C_7  and  N_8 
REMARK       I    between atoms: N_8  and  C_9 
REMARK       I    between atoms: C_9  and  N_11 
REMARK    4  A    between atoms: N_11  and  C_12 
ROOT
HETATM    1  N   UNL     1     -51.395 -51.217  -1.468  1.00  0.00    -0.308 N 
HETATM    2  C   UNL     1     -50.732 -50.840  -0.322  1.00  0.00     0.321 C 
HETATM    3  O   UNL     1     -50.048 -51.571   0.386  1.00  0.00    -0.247 OA
HETATM    4  N   UNL     1     -50.879 -49.498  -0.044  1.00  0.00    -0.338 N 
HETATM    5  H   UNL     1     -51.687 -50.466  -2.080  1.00  0.00     0.170 HD
HETATM    6  H   UNL     1     -51.742 -49.069  -0.352  1.00  0.00     0.164 HD
ENDROOT
BRANCH   1   7
HETATM    7  C   UNL     1     -51.459 -52.537  -1.973  1.00  0.00     0.051 A 
HETATM    8  C   UNL     1     -52.338 -53.498  -1.482  1.00  0.00     0.034 A 
HETATM    9  C   UNL     1     -52.348 -54.782  -2.024  1.00  0.00     0.039 A 
HETATM   10  C   UNL     1     -51.473 -55.083  -3.057  1.00  0.00     0.069 A 
HETATM   11  N   UNL     1     -50.610 -54.176  -3.568  1.00  0.00    -0.358 N 
HETATM   12  C   UNL     1     -50.630 -52.931  -3.018  1.00  0.00     0.118 A 
ATOM     13  HN  UNL     1     -49.974 -54.414  -4.329  1.00  0.00     0.166 HD
BRANCH  10  14
HETATM   14  S   UNL     1     -51.564 -56.710  -3.777  1.00  0.00    -0.113 SA
BRANCH  14  15
HETATM   15  C   UNL     1     -53.361 -56.961  -3.811  1.00  0.00     0.076 C 
HETATM   16  C   UNL     1     -53.709 -58.172  -2.960  1.00  0.00     0.016 C 
ENDBRANCH  14  15
ENDBRANCH  10  14
ENDBRANCH   1   7
BRANCH   4  17
HETATM   17  C   UNL     1     -50.248 -48.947   1.161  1.00  0.00     0.089 C 
HETATM   18  C   UNL     1     -51.206 -48.046   1.949  1.00  0.00     0.055 C 
HETATM   19  C   UNL     1     -51.366 -46.671   1.298  1.00  0.00     0.274 C 
HETATM   20  N   UNL     1     -50.097 -45.992   1.006  1.00  0.00     0.084 N 
HETATM   21  C   UNL     1     -49.456 -45.475   2.215  1.00  0.00     0.309 C 
HETATM   22  C   UNL     1     -49.198 -46.841   0.218  1.00  0.00     0.274 C 
HETATM   23  C   UNL     1     -48.948 -48.218   0.829  1.00  0.00     0.055 C 
ENDBRANCH   4  17
TORSDOF 4
ENDMDL
MODEL 9
REMARK VINA RESULT:      -4.5     13.906     14.920
REMARK  4 active torsions:
REMARK  status: ('A' for Active; 'I' for Inactive)
REMARK    1  A    between atoms: C_2  and  S_3 
REMARK    2  A    between atoms: S_3  and  C_4 
REMARK    3  A    between atoms: C_7  and  N_8 
REMARK       I    between atoms: N_8  and  C_9 
REMARK       I    between atoms: C_9  and  N_11 
REMARK    4  A    between atoms: N_11  and  C_12 
ROOT
HETATM    1  N   UNL     1     -50.857 -48.695   0.099  1.00  0.00    -0.308 N 
HETATM    2  C   UNL     1     -50.432 -49.953   0.461  1.00  0.00     0.321 C 
HETATM    3  O   UNL     1     -49.907 -50.254   1.528  1.00  0.00    -0.247 OA
HETATM    4  N   UNL     1     -50.694 -50.898  -0.507  1.00  0.00    -0.338 N 
HETATM    5  H   UNL     1     -51.503 -48.650  -0.679  1.00  0.00     0.170 HD
HETATM    6  H   UNL     1     -50.699 -50.569  -1.463  1.00  0.00     0.164 HD
ENDROOT
BRANCH   1   7
HETATM    7  C   UNL     1     -50.681 -47.523   0.873  1.00  0.00     0.051 A 
HETATM    8  C   UNL     1     -49.469 -46.845   0.962  1.00  0.00     0.034 A 
HETATM    9  C   UNL     1     -49.364 -45.697   1.745  1.00  0.00     0.039 A 
HETATM   10  C   UNL     1     -50.483 -45.243   2.427  1.00  0.00     0.069 A 
HETATM   11  N   UNL     1     -51.681 -45.867   2.360  1.00  0.00    -0.358 N 
HETATM   12  C   UNL     1     -51.748 -46.983   1.583  1.00  0.00     0.118 A 
ATOM     13  HN  UNL     1     -52.494 -45.519   2.866  1.00  0.00     0.166 HD
BRANCH  10  14
HETATM   14  S   UNL     1     -50.334 -43.730   3.358  1.00  0.00    -0.113 SA
BRANCH  14  15
HETATM   15  C   UNL     1     -51.552 -42.691   2.503  1.00  0.00     0.076 C 
HETATM   16  C   UNL     1     -51.089 -42.459   1.073  1.00  0.00     0.016 C 
ENDBRANCH  14  15
ENDBRANCH  10  14
ENDBRANCH   1   7
BRANCH   4  17
HETATM   17  C   UNL     1     -50.280 -52.287  -0.278  1.00  0.00     0.089 C 
HETATM   18  C   UNL     1     -48.936 -52.602  -0.944  1.00  0.00     0.055 C 
HETATM   19  C   UNL     1     -49.078 -52.803  -2.454  1.00  0.00     0.274 C 
HETATM   20  N   UNL     1     -50.115 -53.768  -2.838  1.00  0.00     0.084 N 
HETATM   21  C   UNL     1     -49.710 -55.149  -2.573  1.00  0.00     0.309 C 
HETATM   22  C   UNL     1     -51.409 -53.442  -2.230  1.00  0.00     0.274 C 
HETATM   23  C   UNL     1     -51.361 -53.273  -0.714  1.00  0.00     0.055 C 
ENDBRANCH   4  17
TORSDOF 4
ENDMDL
