MODEL 1
REMARK VINA RESULT:      -6.6      0.000      0.000
REMARK  5 active torsions:
REMARK  status: ('A' for Active; 'I' for Inactive)
REMARK    1  A    between atoms: C_5  and  N_6 
REMARK       I    between atoms: N_6  and  C_7 
REMARK       I    between atoms: C_7  and  N_9 
REMARK    2  A    between atoms: N_9  and  C_10 
REMARK    3  A    between atoms: C_10  and  C_11 
REMARK       I    between atoms: C_11  and  N_13 
REMARK    4  A    between atoms: N_13  and  C_14 
REMARK    5  A    between atoms: C_14  and  C_15 
ROOT
HETATM    1  N   UNL     1     -40.795 -48.548  10.656  1.00  0.00    -0.295 N 
HETATM    2  C   UNL     1     -40.460 -49.740  11.224  1.00  0.00     0.322 C 
HETATM    3  O   UNL     1     -39.285 -49.973  11.502  1.00  0.00    -0.247 OA
HETATM    4  N   UNL     1     -41.475 -50.614  11.471  1.00  0.00    -0.334 N 
HETATM    5  H   UNL     1     -40.003 -47.934  10.527  1.00  0.00     0.172 HD
HETATM    6  H   UNL     1     -42.305 -50.437  10.909  1.00  0.00     0.164 HD
ENDROOT
BRANCH   1   7
HETATM    7  C   UNL     1     -42.052 -48.110  10.227  1.00  0.00     0.108 A 
HETATM    8  C   UNL     1     -42.951 -47.653  11.185  1.00  0.00     0.049 A 
HETATM    9  C   UNL     1     -44.196 -47.182  10.769  1.00  0.00     0.012 A 
HETATM   10  C   UNL     1     -44.515 -47.180   9.412  1.00  0.00    -0.046 A 
HETATM   11  C   UNL     1     -45.823 -46.675   8.894  1.00  0.00     0.049 C 
HETATM   12  C   UNL     1     -43.562 -47.671   8.533  1.00  0.00     0.096 A 
HETATM   13  N   UNL     1     -42.348 -48.127   8.909  1.00  0.00    -0.352 N 
ATOM     14  HN  UNL     1     -41.678 -48.473   8.221  1.00  0.00     0.166 HD
ENDBRANCH   1   7
BRANCH   4  15
HETATM   15  C   UNL     1     -41.201 -51.964  11.918  1.00  0.00     0.227 C 
BRANCH  15  16
HETATM   16  C   UNL     1     -42.339 -52.611  12.707  1.00  0.00     0.235 C 
HETATM   17  O   UNL     1     -42.274 -52.741  13.930  1.00  0.00    -0.272 OA
HETATM   18  N   UNL     1     -43.473 -52.927  11.990  1.00  0.00    -0.359 N 
HETATM   19  H   UNL     1     -43.489 -52.729  10.994  1.00  0.00     0.162 HD
BRANCH  18  20
HETATM   20  C   UNL     1     -44.578 -53.634  12.597  1.00  0.00     0.127 C 
BRANCH  20  21
HETATM   21  C   UNL     1     -45.816 -52.794  12.707  1.00  0.00     0.003 A 
HETATM   22  C   UNL     1     -45.859 -51.416  13.327  1.00  0.00     0.007 A 
HETATM   23  C   UNL     1     -46.414 -52.587  14.083  1.00  0.00     0.007 A 
ENDBRANCH  20  21
ENDBRANCH  18  20
ENDBRANCH  15  16
ENDBRANCH   4  15
TORSDOF 5
ENDMDL
MODEL 2
REMARK VINA RESULT:      -6.5      1.701      5.532
REMARK  5 active torsions:
REMARK  status: ('A' for Active; 'I' for Inactive)
REMARK    1  A    between atoms: C_5  and  N_6 
REMARK       I    between atoms: N_6  and  C_7 
REMARK       I    between atoms: C_7  and  N_9 
REMARK    2  A    between atoms: N_9  and  C_10 
REMARK    3  A    between atoms: C_10  and  C_11 
REMARK       I    between atoms: C_11  and  N_13 
REMARK    4  A    between atoms: N_13  and  C_14 
REMARK    5  A    between atoms: C_14  and  C_15 
ROOT
HETATM    1  N   UNL     1     -41.699 -51.643  12.809  1.00  0.00    -0.295 N 
HETATM    2  C   UNL     1     -41.079 -50.750  11.988  1.00  0.00     0.322 C 
HETATM    3  O   UNL     1     -39.897 -50.914  11.690  1.00  0.00    -0.247 OA
HETATM    4  N   UNL     1     -41.831 -49.715  11.520  1.00  0.00    -0.334 N 
HETATM    5  H   UNL     1     -41.096 -52.402  13.095  1.00  0.00     0.172 HD
HETATM    6  H   UNL     1     -42.654 -49.527  12.088  1.00  0.00     0.164 HD
ENDROOT
BRANCH   1   7
HETATM    7  C   UNL     1     -43.009 -51.614  13.297  1.00  0.00     0.108 A 
HETATM    8  C   UNL     1     -43.252 -50.934  14.485  1.00  0.00     0.049 A 
HETATM    9  C   UNL     1     -44.559 -50.868  14.967  1.00  0.00     0.012 A 
HETATM   10  C   UNL     1     -45.588 -51.482  14.256  1.00  0.00    -0.046 A 
HETATM   11  C   UNL     1     -47.014 -51.438  14.704  1.00  0.00     0.049 C 
HETATM   12  C   UNL     1     -45.247 -52.153  13.091  1.00  0.00     0.096 A 
HETATM   13  N   UNL     1     -43.992 -52.226  12.601  1.00  0.00    -0.352 N 
ATOM     14  HN  UNL     1     -43.792 -52.727  11.734  1.00  0.00     0.166 HD
ENDBRANCH   1   7
BRANCH   4  15
HETATM   15  C   UNL     1     -41.222 -48.630  10.779  1.00  0.00     0.227 C 
BRANCH  15  16
HETATM   16  C   UNL     1     -42.217 -47.618  10.210  1.00  0.00     0.235 C 
HETATM   17  O   UNL     1     -42.103 -46.414  10.439  1.00  0.00    -0.272 OA
HETATM   18  N   UNL     1     -43.165 -48.119   9.344  1.00  0.00    -0.359 N 
HETATM   19  H   UNL     1     -43.161 -49.114   9.142  1.00  0.00     0.162 HD
BRANCH  18  20
HETATM   20  C   UNL     1     -44.223 -47.287   8.818  1.00  0.00     0.127 C 
BRANCH  20  21
HETATM   21  C   UNL     1     -45.541 -47.522   9.495  1.00  0.00     0.003 A 
HETATM   22  C   UNL     1     -46.679 -48.314   8.891  1.00  0.00     0.007 A 
HETATM   23  C   UNL     1     -46.761 -46.817   8.939  1.00  0.00     0.007 A 
ENDBRANCH  20  21
ENDBRANCH  18  20
ENDBRANCH  15  16
ENDBRANCH   4  15
TORSDOF 5
ENDMDL
MODEL 3
REMARK VINA RESULT:      -6.3      1.941      5.924
REMARK  5 active torsions:
REMARK  status: ('A' for Active; 'I' for Inactive)
REMARK    1  A    between atoms: C_5  and  N_6 
REMARK       I    between atoms: N_6  and  C_7 
REMARK       I    between atoms: C_7  and  N_9 
REMARK    2  A    between atoms: N_9  and  C_10 
REMARK    3  A    between atoms: C_10  and  C_11 
REMARK       I    between atoms: C_11  and  N_13 
REMARK    4  A    between atoms: N_13  and  C_14 
REMARK    5  A    between atoms: C_14  and  C_15 
ROOT
HETATM    1  N   UNL     1     -41.018 -51.345  11.839  1.00  0.00    -0.295 N 
HETATM    2  C   UNL     1     -41.205 -50.038  11.502  1.00  0.00     0.322 C 
HETATM    3  O   UNL     1     -40.284 -49.403  10.993  1.00  0.00    -0.247 OA
HETATM    4  N   UNL     1     -42.437 -49.509  11.740  1.00  0.00    -0.334 N 
HETATM    5  H   UNL     1     -40.094 -51.685  11.610  1.00  0.00     0.172 HD
HETATM    6  H   UNL     1     -42.969 -50.024  12.438  1.00  0.00     0.164 HD
ENDROOT
BRANCH   1   7
HETATM    7  C   UNL     1     -41.912 -52.221  12.462  1.00  0.00     0.108 A 
HETATM    8  C   UNL     1     -41.694 -52.545  13.796  1.00  0.00     0.049 A 
HETATM    9  C   UNL     1     -42.597 -53.391  14.440  1.00  0.00     0.012 A 
HETATM   10  C   UNL     1     -43.691 -53.894  13.739  1.00  0.00    -0.046 A 
HETATM   11  C   UNL     1     -44.707 -54.792  14.369  1.00  0.00     0.049 C 
HETATM   12  C   UNL     1     -43.817 -53.531  12.406  1.00  0.00     0.096 A 
HETATM   13  N   UNL     1     -42.961 -52.709  11.762  1.00  0.00    -0.352 N 
ATOM     14  HN  UNL     1     -43.100 -52.466  10.781  1.00  0.00     0.166 HD
ENDBRANCH   1   7
BRANCH   4  15
HETATM   15  C   UNL     1     -42.683 -48.092  11.569  1.00  0.00     0.227 C 
BRANCH  15  16
HETATM   16  C   UNL     1     -43.344 -47.722  10.241  1.00  0.00     0.235 C 
HETATM   17  O   UNL     1     -42.743 -47.844   9.174  1.00  0.00    -0.272 OA
HETATM   18  N   UNL     1     -44.673 -47.360  10.304  1.00  0.00    -0.359 N 
HETATM   19  H   UNL     1     -45.131 -47.347  11.211  1.00  0.00     0.162 HD
BRANCH  18  20
HETATM   20  C   UNL     1     -45.384 -46.890   9.137  1.00  0.00     0.127 C 
BRANCH  20  21
HETATM   21  C   UNL     1     -46.605 -47.706   8.831  1.00  0.00     0.003 A 
HETATM   22  C   UNL     1     -46.848 -49.104   9.352  1.00  0.00     0.007 A 
HETATM   23  C   UNL     1     -46.447 -48.906   7.921  1.00  0.00     0.007 A 
ENDBRANCH  20  21
ENDBRANCH  18  20
ENDBRANCH  15  16
ENDBRANCH   4  15
TORSDOF 5
ENDMDL
MODEL 4
REMARK VINA RESULT:      -6.1      1.497      1.917
REMARK  5 active torsions:
REMARK  status: ('A' for Active; 'I' for Inactive)
REMARK    1  A    between atoms: C_5  and  N_6 
REMARK       I    between atoms: N_6  and  C_7 
REMARK       I    between atoms: C_7  and  N_9 
REMARK    2  A    between atoms: N_9  and  C_10 
REMARK    3  A    between atoms: C_10  and  C_11 
REMARK       I    between atoms: C_11  and  N_13 
REMARK    4  A    between atoms: N_13  and  C_14 
REMARK    5  A    between atoms: C_14  and  C_15 
ROOT
HETATM    1  N   UNL     1     -40.776 -49.809  12.031  1.00  0.00    -0.295 N 
HETATM    2  C   UNL     1     -41.072 -51.107  12.322  1.00  0.00     0.322 C 
HETATM    3  O   UNL     1     -40.222 -51.822  12.848  1.00  0.00    -0.247 OA
HETATM    4  N   UNL     1     -42.329 -51.536  12.021  1.00  0.00    -0.334 N 
HETATM    5  H   UNL     1     -39.840 -49.546  12.306  1.00  0.00     0.172 HD
HETATM    6  H   UNL     1     -42.793 -50.965  11.318  1.00  0.00     0.164 HD
ENDROOT
BRANCH   1   7
HETATM    7  C   UNL     1     -41.578 -48.853  11.400  1.00  0.00     0.108 A 
HETATM    8  C   UNL     1     -42.353 -48.016  12.195  1.00  0.00     0.049 A 
HETATM    9  C   UNL     1     -43.132 -47.036  11.581  1.00  0.00     0.012 A 
HETATM   10  C   UNL     1     -43.121 -46.916  10.193  1.00  0.00    -0.046 A 
HETATM   11  C   UNL     1     -43.918 -45.878   9.469  1.00  0.00     0.049 C 
HETATM   12  C   UNL     1     -42.331 -47.806   9.481  1.00  0.00     0.096 A 
HETATM   13  N   UNL     1     -41.563 -48.759  10.052  1.00  0.00    -0.352 N 
ATOM     14  HN  UNL     1     -40.993 -49.386   9.484  1.00  0.00     0.166 HD
ENDBRANCH   1   7
BRANCH   4  15
HETATM   15  C   UNL     1     -42.686 -52.935  12.140  1.00  0.00     0.227 C 
BRANCH  15  16
HETATM   16  C   UNL     1     -44.159 -53.186  12.458  1.00  0.00     0.235 C 
HETATM   17  O   UNL     1     -44.603 -54.330  12.562  1.00  0.00    -0.272 OA
HETATM   18  N   UNL     1     -44.920 -52.070  12.733  1.00  0.00    -0.359 N 
HETATM   19  H   UNL     1     -44.475 -51.158  12.700  1.00  0.00     0.162 HD
BRANCH  18  20
HETATM   20  C   UNL     1     -46.347 -52.163  12.948  1.00  0.00     0.127 C 
BRANCH  20  21
HETATM   21  C   UNL     1     -46.806 -51.393  14.151  1.00  0.00     0.003 A 
HETATM   22  C   UNL     1     -45.994 -51.225  15.416  1.00  0.00     0.007 A 
HETATM   23  C   UNL     1     -47.157 -52.172  15.401  1.00  0.00     0.007 A 
ENDBRANCH  20  21
ENDBRANCH  18  20
ENDBRANCH  15  16
ENDBRANCH   4  15
TORSDOF 5
ENDMDL
MODEL 5
REMARK VINA RESULT:      -6.0      1.556      5.908
REMARK  5 active torsions:
REMARK  status: ('A' for Active; 'I' for Inactive)
REMARK    1  A    between atoms: C_5  and  N_6 
REMARK       I    between atoms: N_6  and  C_7 
REMARK       I    between atoms: C_7  and  N_9 
REMARK    2  A    between atoms: N_9  and  C_10 
REMARK    3  A    between atoms: C_10  and  C_11 
REMARK       I    between atoms: C_11  and  N_13 
REMARK    4  A    between atoms: N_13  and  C_14 
REMARK    5  A    between atoms: C_14  and  C_15 
ROOT
HETATM    1  N   UNL     1     -42.559 -53.175  12.616  1.00  0.00    -0.295 N 
HETATM    2  C   UNL     1     -41.636 -52.391  11.991  1.00  0.00     0.322 C 
HETATM    3  O   UNL     1     -40.638 -52.907  11.491  1.00  0.00    -0.247 OA
HETATM    4  N   UNL     1     -41.891 -51.055  11.942  1.00  0.00    -0.334 N 
HETATM    5  H   UNL     1     -42.326 -54.158  12.590  1.00  0.00     0.172 HD
HETATM    6  H   UNL     1     -42.549 -50.744  12.654  1.00  0.00     0.164 HD
ENDROOT
BRANCH   1   7
HETATM    7  C   UNL     1     -43.727 -52.785  13.279  1.00  0.00     0.108 A 
HETATM    8  C   UNL     1     -43.665 -52.582  14.653  1.00  0.00     0.049 A 
HETATM    9  C   UNL     1     -44.813 -52.161  15.324  1.00  0.00     0.012 A 
HETATM   10  C   UNL     1     -45.992 -51.955  14.610  1.00  0.00    -0.046 A 
HETATM   11  C   UNL     1     -47.255 -51.489  15.260  1.00  0.00     0.049 C 
HETATM   12  C   UNL     1     -45.963 -52.201  13.245  1.00  0.00     0.096 A 
HETATM   13  N   UNL     1     -44.864 -52.603  12.572  1.00  0.00    -0.352 N 
ATOM     14  HN  UNL     1     -44.891 -52.764  11.565  1.00  0.00     0.166 HD
ENDBRANCH   1   7
BRANCH   4  15
HETATM   15  C   UNL     1     -40.896 -50.125  11.448  1.00  0.00     0.227 C 
BRANCH  15  16
HETATM   16  C   UNL     1     -41.435 -48.729  11.138  1.00  0.00     0.235 C 
HETATM   17  O   UNL     1     -40.675 -47.788  10.909  1.00  0.00    -0.272 OA
HETATM   18  N   UNL     1     -42.804 -48.620  11.017  1.00  0.00    -0.359 N 
HETATM   19  H   UNL     1     -43.372 -49.451  11.149  1.00  0.00     0.162 HD
BRANCH  18  20
HETATM   20  C   UNL     1     -43.446 -47.338  10.827  1.00  0.00     0.127 C 
BRANCH  20  21
HETATM   21  C   UNL     1     -44.138 -47.225   9.501  1.00  0.00     0.003 A 
HETATM   22  C   UNL     1     -43.529 -47.646   8.183  1.00  0.00     0.007 A 
HETATM   23  C   UNL     1     -43.630 -46.189   8.521  1.00  0.00     0.007 A 
ENDBRANCH  20  21
ENDBRANCH  18  20
ENDBRANCH  15  16
ENDBRANCH   4  15
TORSDOF 5
ENDMDL
MODEL 6
REMARK VINA RESULT:      -5.8      2.003      2.971
REMARK  5 active torsions:
REMARK  status: ('A' for Active; 'I' for Inactive)
REMARK    1  A    between atoms: C_5  and  N_6 
REMARK       I    between atoms: N_6  and  C_7 
REMARK       I    between atoms: C_7  and  N_9 
REMARK    2  A    between atoms: N_9  and  C_10 
REMARK    3  A    between atoms: C_10  and  C_11 
REMARK       I    between atoms: C_11  and  N_13 
REMARK    4  A    between atoms: N_13  and  C_14 
REMARK    5  A    between atoms: C_14  and  C_15 
ROOT
HETATM    1  N   UNL     1     -41.830 -46.245   9.986  1.00  0.00    -0.295 N 
HETATM    2  C   UNL     1     -40.780 -46.835  10.623  1.00  0.00     0.322 C 
HETATM    3  O   UNL     1     -39.803 -46.159  10.940  1.00  0.00    -0.247 OA
HETATM    4  N   UNL     1     -40.889 -48.165  10.893  1.00  0.00    -0.334 N 
HETATM    5  H   UNL     1     -41.700 -45.253   9.843  1.00  0.00     0.172 HD
HETATM    6  H   UNL     1     -41.569 -48.641  10.305  1.00  0.00     0.164 HD
ENDROOT
BRANCH   1   7
HETATM    7  C   UNL     1     -43.003 -46.837   9.507  1.00  0.00     0.108 A 
HETATM    8  C   UNL     1     -42.984 -47.399   8.235  1.00  0.00     0.049 A 
HETATM    9  C   UNL     1     -44.136 -48.022   7.757  1.00  0.00     0.012 A 
HETATM   10  C   UNL     1     -45.277 -48.070   8.557  1.00  0.00    -0.046 A 
HETATM   11  C   UNL     1     -46.541 -48.735   8.116  1.00  0.00     0.049 C 
HETATM   12  C   UNL     1     -45.207 -47.467   9.804  1.00  0.00     0.096 A 
HETATM   13  N   UNL     1     -44.103 -46.863  10.291  1.00  0.00    -0.352 N 
ATOM     14  HN  UNL     1     -44.100 -46.439  11.220  1.00  0.00     0.166 HD
ENDBRANCH   1   7
BRANCH   4  15
HETATM   15  C   UNL     1     -39.764 -48.912  11.417  1.00  0.00     0.227 C 
BRANCH  15  16
HETATM   16  C   UNL     1     -40.139 -50.240  12.074  1.00  0.00     0.235 C 
HETATM   17  O   UNL     1     -39.737 -50.530  13.201  1.00  0.00    -0.272 OA
HETATM   18  N   UNL     1     -41.037 -51.027  11.385  1.00  0.00    -0.359 N 
HETATM   19  H   UNL     1     -41.387 -50.696  10.490  1.00  0.00     0.162 HD
BRANCH  18  20
HETATM   20  C   UNL     1     -41.395 -52.348  11.848  1.00  0.00     0.127 C 
BRANCH  20  21
HETATM   21  C   UNL     1     -42.707 -52.376  12.575  1.00  0.00     0.003 A 
HETATM   22  C   UNL     1     -42.881 -52.850  14.000  1.00  0.00     0.007 A 
HETATM   23  C   UNL     1     -43.327 -53.726  12.868  1.00  0.00     0.007 A 
ENDBRANCH  20  21
ENDBRANCH  18  20
ENDBRANCH  15  16
ENDBRANCH   4  15
TORSDOF 5
ENDMDL
MODEL 7
REMARK VINA RESULT:      -5.8      1.935      6.246
REMARK  5 active torsions:
REMARK  status: ('A' for Active; 'I' for Inactive)
REMARK    1  A    between atoms: C_5  and  N_6 
REMARK       I    between atoms: N_6  and  C_7 
REMARK       I    between atoms: C_7  and  N_9 
REMARK    2  A    between atoms: N_9  and  C_10 
REMARK    3  A    between atoms: C_10  and  C_11 
REMARK       I    between atoms: C_11  and  N_13 
REMARK    4  A    between atoms: N_13  and  C_14 
REMARK    5  A    between atoms: C_14  and  C_15 
ROOT
HETATM    1  N   UNL     1     -40.883 -51.771  11.477  1.00  0.00    -0.295 N 
HETATM    2  C   UNL     1     -40.584 -50.465  11.725  1.00  0.00     0.322 C 
HETATM    3  O   UNL     1     -39.714 -49.903  11.064  1.00  0.00    -0.247 OA
HETATM    4  N   UNL     1     -41.301 -49.842  12.702  1.00  0.00    -0.334 N 
HETATM    5  H   UNL     1     -40.339 -52.165  10.722  1.00  0.00     0.172 HD
HETATM    6  H   UNL     1     -41.730 -50.488  13.361  1.00  0.00     0.164 HD
ENDROOT
BRANCH   1   7
HETATM    7  C   UNL     1     -41.798 -52.596  12.138  1.00  0.00     0.108 A 
HETATM    8  C   UNL     1     -41.333 -53.394  13.177  1.00  0.00     0.049 A 
HETATM    9  C   UNL     1     -42.240 -54.198  13.867  1.00  0.00     0.012 A 
HETATM   10  C   UNL     1     -43.586 -54.187  13.504  1.00  0.00    -0.046 A 
HETATM   11  C   UNL     1     -44.616 -55.010  14.209  1.00  0.00     0.049 C 
HETATM   12  C   UNL     1     -43.954 -53.373  12.443  1.00  0.00     0.096 A 
HETATM   13  N   UNL     1     -43.097 -52.583  11.763  1.00  0.00    -0.352 N 
ATOM     14  HN  UNL     1     -43.418 -51.995  10.993  1.00  0.00     0.166 HD
ENDBRANCH   1   7
BRANCH   4  15
HETATM   15  C   UNL     1     -40.947 -48.511  13.149  1.00  0.00     0.227 C 
BRANCH  15  16
HETATM   16  C   UNL     1     -41.705 -47.386  12.445  1.00  0.00     0.235 C 
HETATM   17  O   UNL     1     -42.438 -46.621  13.072  1.00  0.00    -0.272 OA
HETATM   18  N   UNL     1     -41.427 -47.212  11.106  1.00  0.00    -0.359 N 
HETATM   19  H   UNL     1     -40.757 -47.834  10.663  1.00  0.00     0.162 HD
BRANCH  18  20
HETATM   20  C   UNL     1     -42.150 -46.251  10.303  1.00  0.00     0.127 C 
BRANCH  20  21
HETATM   21  C   UNL     1     -43.426 -46.804   9.741  1.00  0.00     0.003 A 
HETATM   22  C   UNL     1     -43.631 -47.163   8.287  1.00  0.00     0.007 A 
HETATM   23  C   UNL     1     -44.248 -45.912   8.835  1.00  0.00     0.007 A 
ENDBRANCH  20  21
ENDBRANCH  18  20
ENDBRANCH  15  16
ENDBRANCH   4  15
TORSDOF 5
ENDMDL
MODEL 8
REMARK VINA RESULT:      -5.7      2.904      6.921
REMARK  5 active torsions:
REMARK  status: ('A' for Active; 'I' for Inactive)
REMARK    1  A    between atoms: C_5  and  N_6 
REMARK       I    between atoms: N_6  and  C_7 
REMARK       I    between atoms: C_7  and  N_9 
REMARK    2  A    between atoms: N_9  and  C_10 
REMARK    3  A    between atoms: C_10  and  C_11 
REMARK       I    between atoms: C_11  and  N_13 
REMARK    4  A    between atoms: N_13  and  C_14 
REMARK    5  A    between atoms: C_14  and  C_15 
ROOT
HETATM    1  N   UNL     1     -40.839 -51.789  11.460  1.00  0.00    -0.295 N 
HETATM    2  C   UNL     1     -40.410 -50.538  11.787  1.00  0.00     0.322 C 
HETATM    3  O   UNL     1     -39.537 -49.997  11.110  1.00  0.00    -0.247 OA
HETATM    4  N   UNL     1     -41.003 -49.942  12.858  1.00  0.00    -0.334 N 
HETATM    5  H   UNL     1     -40.382 -52.162  10.639  1.00  0.00     0.172 HD
HETATM    6  H   UNL     1     -41.444 -50.602  13.494  1.00  0.00     0.164 HD
ENDROOT
BRANCH   1   7
HETATM    7  C   UNL     1     -41.779 -52.588  12.118  1.00  0.00     0.108 A 
HETATM    8  C   UNL     1     -41.335 -53.419  13.141  1.00  0.00     0.049 A 
HETATM    9  C   UNL     1     -42.266 -54.196  13.829  1.00  0.00     0.012 A 
HETATM   10  C   UNL     1     -43.614 -54.127  13.480  1.00  0.00    -0.046 A 
HETATM   11  C   UNL     1     -44.669 -54.919  14.184  1.00  0.00     0.049 C 
HETATM   12  C   UNL     1     -43.960 -53.283  12.436  1.00  0.00     0.096 A 
HETATM   13  N   UNL     1     -43.080 -52.517  11.758  1.00  0.00    -0.352 N 
ATOM     14  HN  UNL     1     -43.385 -51.905  11.000  1.00  0.00     0.166 HD
ENDBRANCH   1   7
BRANCH   4  15
HETATM   15  C   UNL     1     -40.503 -48.687  13.381  1.00  0.00     0.227 C 
BRANCH  15  16
HETATM   16  C   UNL     1     -40.973 -47.451  12.613  1.00  0.00     0.235 C 
HETATM   17  O   UNL     1     -41.969 -46.821  12.967  1.00  0.00    -0.272 OA
HETATM   18  N   UNL     1     -40.155 -47.027  11.587  1.00  0.00    -0.359 N 
HETATM   19  H   UNL     1     -39.309 -47.553  11.391  1.00  0.00     0.162 HD
BRANCH  18  20
HETATM   20  C   UNL     1     -40.536 -45.935  10.721  1.00  0.00     0.127 C 
BRANCH  20  21
HETATM   21  C   UNL     1     -39.735 -44.690  10.965  1.00  0.00     0.003 A 
HETATM   22  C   UNL     1     -39.679 -43.960  12.288  1.00  0.00     0.007 A 
HETATM   23  C   UNL     1     -40.485 -43.389  11.160  1.00  0.00     0.007 A 
ENDBRANCH  20  21
ENDBRANCH  18  20
ENDBRANCH  15  16
ENDBRANCH   4  15
TORSDOF 5
ENDMDL
MODEL 9
REMARK VINA RESULT:      -5.6      2.363      3.223
REMARK  5 active torsions:
REMARK  status: ('A' for Active; 'I' for Inactive)
REMARK    1  A    between atoms: C_5  and  N_6 
REMARK       I    between atoms: N_6  and  C_7 
REMARK       I    between atoms: C_7  and  N_9 
REMARK    2  A    between atoms: N_9  and  C_10 
REMARK    3  A    between atoms: C_10  and  C_11 
REMARK       I    between atoms: C_11  and  N_13 
REMARK    4  A    between atoms: N_13  and  C_14 
REMARK    5  A    between atoms: C_14  and  C_15 
ROOT
HETATM    1  N   UNL     1     -38.310 -49.964  11.356  1.00  0.00    -0.295 N 
HETATM    2  C   UNL     1     -37.997 -50.947  12.246  1.00  0.00     0.322 C 
HETATM    3  O   UNL     1     -36.977 -51.613  12.082  1.00  0.00    -0.247 OA
HETATM    4  N   UNL     1     -38.843 -51.121  13.298  1.00  0.00    -0.334 N 
HETATM    5  H   UNL     1     -37.628 -49.865  10.617  1.00  0.00     0.172 HD
HETATM    6  H   UNL     1     -39.775 -50.747  13.132  1.00  0.00     0.164 HD
ENDROOT
BRANCH   1   7
HETATM    7  C   UNL     1     -39.434 -49.132  11.337  1.00  0.00     0.108 A 
HETATM    8  C   UNL     1     -39.377 -47.934  12.041  1.00  0.00     0.049 A 
HETATM    9  C   UNL     1     -40.478 -47.079  12.006  1.00  0.00     0.012 A 
HETATM   10  C   UNL     1     -41.607 -47.439  11.271  1.00  0.00    -0.046 A 
HETATM   11  C   UNL     1     -42.816 -46.564  11.175  1.00  0.00     0.049 C 
HETATM   12  C   UNL     1     -41.579 -48.660  10.616  1.00  0.00     0.096 A 
HETATM   13  N   UNL     1     -40.525 -49.503  10.630  1.00  0.00    -0.352 N 
ATOM     14  HN  UNL     1     -40.550 -50.389  10.125  1.00  0.00     0.166 HD
ENDBRANCH   1   7
BRANCH   4  15
HETATM   15  C   UNL     1     -38.684 -52.242  14.202  1.00  0.00     0.227 C 
BRANCH  15  16
HETATM   16  C   UNL     1     -39.621 -53.416  13.922  1.00  0.00     0.235 C 
HETATM   17  O   UNL     1     -39.223 -54.579  13.985  1.00  0.00    -0.272 OA
HETATM   18  N   UNL     1     -40.947 -53.100  13.713  1.00  0.00    -0.359 N 
HETATM   19  H   UNL     1     -41.224 -52.123  13.744  1.00  0.00     0.162 HD
BRANCH  18  20
HETATM   20  C   UNL     1     -41.914 -54.106  13.339  1.00  0.00     0.127 C 
BRANCH  20  21
HETATM   21  C   UNL     1     -43.321 -53.724  13.693  1.00  0.00     0.003 A 
HETATM   22  C   UNL     1     -44.494 -54.677  13.669  1.00  0.00     0.007 A 
HETATM   23  C   UNL     1     -44.342 -53.660  12.578  1.00  0.00     0.007 A 
ENDBRANCH  20  21
ENDBRANCH  18  20
ENDBRANCH  15  16
ENDBRANCH   4  15
TORSDOF 5
ENDMDL
