MODEL 1
REMARK VINA RESULT:      -6.9      0.000      0.000
REMARK  5 active torsions:
REMARK  status: ('A' for Active; 'I' for Inactive)
REMARK    1  A    between atoms: S_2  and  C_5 
REMARK    2  A    between atoms: C_8  and  N_9 
REMARK       I    between atoms: N_9  and  C_10 
REMARK       I    between atoms: C_10  and  N_12 
REMARK    3  A    between atoms: N_12  and  C_13 
REMARK    4  A    between atoms: C_13  and  C_14 
REMARK    5  A    between atoms: C_14  and  O_15 
ROOT
HETATM    1  N   UNL     1     -41.983 -50.135  11.528  1.00  0.00    -0.308 N 
HETATM    2  C   UNL     1     -42.781 -50.480  12.593  1.00  0.00     0.320 C 
HETATM    3  O   UNL     1     -43.192 -49.721  13.465  1.00  0.00    -0.247 OA
HETATM    4  N   UNL     1     -43.072 -51.819  12.642  1.00  0.00    -0.340 N 
HETATM    5  H   UNL     1     -41.439 -50.880  11.118  1.00  0.00     0.170 HD
HETATM    6  H   UNL     1     -42.769 -52.437  11.903  1.00  0.00     0.164 HD
ENDROOT
BRANCH   1   7
HETATM    7  C   UNL     1     -41.603 -48.806  11.226  1.00  0.00     0.051 A 
HETATM    8  C   UNL     1     -42.485 -47.873  10.675  1.00  0.00     0.034 A 
HETATM    9  C   UNL     1     -42.076 -46.562  10.458  1.00  0.00     0.044 A 
HETATM   10  C   UNL     1     -40.771 -46.240  10.789  1.00  0.00     0.128 A 
HETATM   11  N   UNL     1     -39.852 -47.110  11.283  1.00  0.00    -0.355 N 
HETATM   12  C   UNL     1     -40.299 -48.376  11.481  1.00  0.00     0.118 A 
ATOM     13  HN  UNL     1     -38.893 -46.830  11.492  1.00  0.00     0.166 HD
BRANCH  10  14
HETATM   14  S   UNL     1     -40.224 -44.559  10.596  1.00  0.00     0.187 S 
HETATM   15  C   UNL     1     -39.301 -44.189  12.059  1.00  0.00     0.168 C 
HETATM   16  O   UNL     1     -41.412 -43.720  10.599  1.00  0.00    -0.222 OA
HETATM   17  O   UNL     1     -39.305 -44.537   9.472  1.00  0.00    -0.222 OA
ENDBRANCH  10  14
ENDBRANCH   1   7
BRANCH   4  18
HETATM   18  C   UNL     1     -43.907 -52.354  13.714  1.00  0.00     0.162 C 
BRANCH  18  19
HETATM   19  C   UNL     1     -45.365 -52.680  13.269  1.00  0.00     0.074 C 
HETATM   20  C   UNL     1     -46.329 -51.517  13.551  1.00  0.00     0.039 C 
HETATM   21  C   UNL     1     -46.542 -51.282  15.044  1.00  0.00     0.003 C 
HETATM   22  C   UNL     1     -47.032 -52.548  15.741  1.00  0.00     0.000 C 
HETATM   23  C   UNL     1     -46.133 -53.752  15.466  1.00  0.00     0.003 C 
HETATM   24  C   UNL     1     -45.881 -53.949  13.973  1.00  0.00     0.039 C 
BRANCH  19  25
HETATM   25  O   UNL     1     -45.428 -52.939  11.859  1.00  0.00    -0.388 OA
HETATM   26  H   UNL     1     -44.687 -53.533  11.613  1.00  0.00     0.210 HD
ENDBRANCH  19  25
ENDBRANCH  18  19
ENDBRANCH   4  18
TORSDOF 5
ENDMDL
MODEL 2
REMARK VINA RESULT:      -6.5      1.776      2.593
REMARK  5 active torsions:
REMARK  status: ('A' for Active; 'I' for Inactive)
REMARK    1  A    between atoms: S_2  and  C_5 
REMARK    2  A    between atoms: C_8  and  N_9 
REMARK       I    between atoms: N_9  and  C_10 
REMARK       I    between atoms: C_10  and  N_12 
REMARK    3  A    between atoms: N_12  and  C_13 
REMARK    4  A    between atoms: C_13  and  C_14 
REMARK    5  A    between atoms: C_14  and  O_15 
ROOT
HETATM    1  N   UNL     1     -43.395 -49.311  11.881  1.00  0.00    -0.308 N 
HETATM    2  C   UNL     1     -43.093 -50.187  12.897  1.00  0.00     0.320 C 
HETATM    3  O   UNL     1     -42.136 -50.107  13.661  1.00  0.00    -0.247 OA
HETATM    4  N   UNL     1     -43.964 -51.243  12.980  1.00  0.00    -0.340 N 
HETATM    5  H   UNL     1     -43.965 -49.676  11.132  1.00  0.00     0.170 HD
HETATM    6  H   UNL     1     -44.775 -51.287  12.380  1.00  0.00     0.164 HD
ENDROOT
BRANCH   1   7
HETATM    7  C   UNL     1     -42.684 -48.112  11.638  1.00  0.00     0.051 A 
HETATM    8  C   UNL     1     -42.954 -46.921  12.317  1.00  0.00     0.034 A 
HETATM    9  C   UNL     1     -42.182 -45.788  12.083  1.00  0.00     0.044 A 
HETATM   10  C   UNL     1     -41.168 -45.893  11.147  1.00  0.00     0.128 A 
HETATM   11  N   UNL     1     -40.885 -47.005  10.420  1.00  0.00    -0.355 N 
HETATM   12  C   UNL     1     -41.662 -48.086  10.686  1.00  0.00     0.118 A 
ATOM     13  HN  UNL     1     -40.139 -47.027   9.724  1.00  0.00     0.166 HD
BRANCH  10  14
HETATM   14  S   UNL     1     -40.108 -44.492  10.866  1.00  0.00     0.187 S 
HETATM   15  C   UNL     1     -39.188 -44.285  12.363  1.00  0.00     0.168 C 
HETATM   16  O   UNL     1     -40.969 -43.330  10.712  1.00  0.00    -0.222 OA
HETATM   17  O   UNL     1     -39.176 -44.867   9.818  1.00  0.00    -0.222 OA
ENDBRANCH  10  14
ENDBRANCH   1   7
BRANCH   4  18
HETATM   18  C   UNL     1     -43.784 -52.268  14.004  1.00  0.00     0.162 C 
BRANCH  18  19
HETATM   19  C   UNL     1     -43.462 -53.680  13.425  1.00  0.00     0.074 C 
HETATM   20  C   UNL     1     -43.910 -54.807  14.370  1.00  0.00     0.039 C 
HETATM   21  C   UNL     1     -43.097 -54.846  15.661  1.00  0.00     0.003 C 
HETATM   22  C   UNL     1     -41.602 -54.967  15.373  1.00  0.00     0.000 C 
HETATM   23  C   UNL     1     -41.105 -53.894  14.406  1.00  0.00     0.003 C 
HETATM   24  C   UNL     1     -41.955 -53.825  13.140  1.00  0.00     0.039 C 
BRANCH  19  25
HETATM   25  O   UNL     1     -44.138 -53.892  12.177  1.00  0.00    -0.388 OA
HETATM   26  H   UNL     1     -43.468 -53.976  11.465  1.00  0.00     0.210 HD
ENDBRANCH  19  25
ENDBRANCH  18  19
ENDBRANCH   4  18
TORSDOF 5
ENDMDL
MODEL 3
REMARK VINA RESULT:      -6.4      3.014      3.838
REMARK  5 active torsions:
REMARK  status: ('A' for Active; 'I' for Inactive)
REMARK    1  A    between atoms: S_2  and  C_5 
REMARK    2  A    between atoms: C_8  and  N_9 
REMARK       I    between atoms: N_9  and  C_10 
REMARK       I    between atoms: C_10  and  N_12 
REMARK    3  A    between atoms: N_12  and  C_13 
REMARK    4  A    between atoms: C_13  and  C_14 
REMARK    5  A    between atoms: C_14  and  O_15 
ROOT
HETATM    1  N   UNL     1     -41.959 -49.003  11.060  1.00  0.00    -0.308 N 
HETATM    2  C   UNL     1     -41.965 -49.861  12.134  1.00  0.00     0.320 C 
HETATM    3  O   UNL     1     -41.806 -49.550  13.309  1.00  0.00    -0.247 OA
HETATM    4  N   UNL     1     -42.131 -51.175  11.777  1.00  0.00    -0.340 N 
HETATM    5  H   UNL     1     -41.738 -49.411  10.163  1.00  0.00     0.170 HD
HETATM    6  H   UNL     1     -42.303 -51.427  10.815  1.00  0.00     0.164 HD
ENDROOT
BRANCH   1   7
HETATM    7  C   UNL     1     -41.870 -47.596  11.176  1.00  0.00     0.051 A 
HETATM    8  C   UNL     1     -40.671 -46.897  11.015  1.00  0.00     0.034 A 
HETATM    9  C   UNL     1     -40.652 -45.508  11.078  1.00  0.00     0.044 A 
HETATM   10  C   UNL     1     -41.854 -44.867  11.324  1.00  0.00     0.128 A 
HETATM   11  N   UNL     1     -43.044 -45.489  11.536  1.00  0.00    -0.355 N 
HETATM   12  C   UNL     1     -43.012 -46.844  11.462  1.00  0.00     0.118 A 
ATOM     13  HN  UNL     1     -43.901 -44.973  11.737  1.00  0.00     0.166 HD
BRANCH  10  14
HETATM   14  S   UNL     1     -41.894 -43.089  11.342  1.00  0.00     0.187 S 
HETATM   15  C   UNL     1     -42.652 -42.646  12.878  1.00  0.00     0.168 C 
HETATM   16  O   UNL     1     -42.786 -42.671  10.272  1.00  0.00    -0.222 OA
HETATM   17  O   UNL     1     -40.516 -42.633  11.377  1.00  0.00    -0.222 OA
ENDBRANCH  10  14
ENDBRANCH   1   7
BRANCH   4  18
HETATM   18  C   UNL     1     -42.156 -52.218  12.799  1.00  0.00     0.162 C 
BRANCH  18  19
HETATM   19  C   UNL     1     -40.894 -53.134  12.790  1.00  0.00     0.074 C 
HETATM   20  C   UNL     1     -41.157 -54.486  13.471  1.00  0.00     0.039 C 
HETATM   21  C   UNL     1     -41.389 -54.350  14.974  1.00  0.00     0.003 C 
HETATM   22  C   UNL     1     -40.222 -53.640  15.654  1.00  0.00     0.000 C 
HETATM   23  C   UNL     1     -39.887 -52.303  14.995  1.00  0.00     0.003 C 
HETATM   24  C   UNL     1     -39.709 -52.437  13.485  1.00  0.00     0.039 C 
BRANCH  19  25
HETATM   25  O   UNL     1     -40.473 -53.419  11.448  1.00  0.00    -0.388 OA
HETATM   26  H   UNL     1     -40.875 -54.267  11.164  1.00  0.00     0.210 HD
ENDBRANCH  19  25
ENDBRANCH  18  19
ENDBRANCH   4  18
TORSDOF 5
ENDMDL
MODEL 4
REMARK VINA RESULT:      -6.4      2.853      3.429
REMARK  5 active torsions:
REMARK  status: ('A' for Active; 'I' for Inactive)
REMARK    1  A    between atoms: S_2  and  C_5 
REMARK    2  A    between atoms: C_8  and  N_9 
REMARK       I    between atoms: N_9  and  C_10 
REMARK       I    between atoms: C_10  and  N_12 
REMARK    3  A    between atoms: N_12  and  C_13 
REMARK    4  A    between atoms: C_13  and  C_14 
REMARK    5  A    between atoms: C_14  and  O_15 
ROOT
HETATM    1  N   UNL     1     -40.192 -48.685  11.176  1.00  0.00    -0.308 N 
HETATM    2  C   UNL     1     -40.407 -49.598  12.181  1.00  0.00     0.320 C 
HETATM    3  O   UNL     1     -41.040 -49.402  13.213  1.00  0.00    -0.247 OA
HETATM    4  N   UNL     1     -39.794 -50.805  11.958  1.00  0.00    -0.340 N 
HETATM    5  H   UNL     1     -39.385 -48.847  10.592  1.00  0.00     0.170 HD
HETATM    6  H   UNL     1     -39.308 -50.980  11.091  1.00  0.00     0.164 HD
ENDROOT
BRANCH   1   7
HETATM    7  C   UNL     1     -40.774 -47.395  11.145  1.00  0.00     0.051 A 
HETATM    8  C   UNL     1     -42.052 -47.154  10.637  1.00  0.00     0.034 A 
HETATM    9  C   UNL     1     -42.600 -45.877  10.689  1.00  0.00     0.044 A 
HETATM   10  C   UNL     1     -41.821 -44.874  11.240  1.00  0.00     0.128 A 
HETATM   11  N   UNL     1     -40.556 -45.033  11.709  1.00  0.00    -0.355 N 
HETATM   12  C   UNL     1     -40.066 -46.297  11.639  1.00  0.00     0.118 A 
ATOM     13  HN  UNL     1     -40.012 -44.257  12.086  1.00  0.00     0.166 HD
BRANCH  10  14
HETATM   14  S   UNL     1     -42.506 -43.239  11.395  1.00  0.00     0.187 S 
HETATM   15  C   UNL     1     -41.119 -42.142  11.396  1.00  0.00     0.168 C 
HETATM   16  O   UNL     1     -43.134 -43.162  12.705  1.00  0.00    -0.222 OA
HETATM   17  O   UNL     1     -43.275 -42.984  10.190  1.00  0.00    -0.222 OA
ENDBRANCH  10  14
ENDBRANCH   1   7
BRANCH   4  18
HETATM   18  C   UNL     1     -39.919 -51.885  12.932  1.00  0.00     0.162 C 
BRANCH  18  19
HETATM   19  C   UNL     1     -40.884 -53.025  12.483  1.00  0.00     0.074 C 
HETATM   20  C   UNL     1     -42.360 -52.608  12.590  1.00  0.00     0.039 C 
HETATM   21  C   UNL     1     -42.811 -52.418  14.035  1.00  0.00     0.003 C 
HETATM   22  C   UNL     1     -42.561 -53.674  14.865  1.00  0.00     0.000 C 
HETATM   23  C   UNL     1     -41.116 -54.161  14.768  1.00  0.00     0.003 C 
HETATM   24  C   UNL     1     -40.654 -54.298  13.319  1.00  0.00     0.039 C 
BRANCH  19  25
HETATM   25  O   UNL     1     -40.652 -53.387  11.114  1.00  0.00    -0.388 OA
HETATM   26  H   UNL     1     -39.701 -53.595  10.999  1.00  0.00     0.210 HD
ENDBRANCH  19  25
ENDBRANCH  18  19
ENDBRANCH   4  18
TORSDOF 5
ENDMDL
MODEL 5
REMARK VINA RESULT:      -6.0      3.194      3.904
REMARK  5 active torsions:
REMARK  status: ('A' for Active; 'I' for Inactive)
REMARK    1  A    between atoms: S_2  and  C_5 
REMARK    2  A    between atoms: C_8  and  N_9 
REMARK       I    between atoms: N_9  and  C_10 
REMARK       I    between atoms: C_10  and  N_12 
REMARK    3  A    between atoms: N_12  and  C_13 
REMARK    4  A    between atoms: C_13  and  C_14 
REMARK    5  A    between atoms: C_14  and  O_15 
ROOT
HETATM    1  N   UNL     1     -39.243 -49.961  12.379  1.00  0.00    -0.308 N 
HETATM    2  C   UNL     1     -39.737 -50.736  13.402  1.00  0.00     0.320 C 
HETATM    3  O   UNL     1     -40.693 -50.463  14.120  1.00  0.00    -0.247 OA
HETATM    4  N   UNL     1     -39.020 -51.887  13.605  1.00  0.00    -0.340 N 
HETATM    5  H   UNL     1     -38.278 -50.116  12.127  1.00  0.00     0.170 HD
HETATM    6  H   UNL     1     -38.259 -52.133  12.988  1.00  0.00     0.164 HD
ENDROOT
BRANCH   1   7
HETATM    7  C   UNL     1     -39.850 -48.761  11.936  1.00  0.00     0.051 A 
HETATM    8  C   UNL     1     -40.902 -48.740  11.018  1.00  0.00     0.034 A 
HETATM    9  C   UNL     1     -41.503 -47.536  10.665  1.00  0.00     0.044 A 
HETATM   10  C   UNL     1     -41.002 -46.383  11.243  1.00  0.00     0.128 A 
HETATM   11  N   UNL     1     -39.952 -46.331  12.104  1.00  0.00    -0.355 N 
HETATM   12  C   UNL     1     -39.401 -47.531  12.421  1.00  0.00     0.118 A 
ATOM     13  HN  UNL     1     -39.603 -45.452  12.487  1.00  0.00     0.166 HD
BRANCH  10  14
HETATM   14  S   UNL     1     -41.784 -44.827  10.878  1.00  0.00     0.187 S 
HETATM   15  C   UNL     1     -42.489 -44.281  12.406  1.00  0.00     0.168 C 
HETATM   16  O   UNL     1     -42.877 -45.104   9.960  1.00  0.00    -0.222 OA
HETATM   17  O   UNL     1     -40.731 -43.896  10.516  1.00  0.00    -0.222 OA
ENDBRANCH  10  14
ENDBRANCH   1   7
BRANCH   4  18
HETATM   18  C   UNL     1     -39.409 -52.822  14.657  1.00  0.00     0.162 C 
BRANCH  18  19
HETATM   19  C   UNL     1     -39.745 -54.251  14.132  1.00  0.00     0.074 C 
HETATM   20  C   UNL     1     -40.944 -54.245  13.170  1.00  0.00     0.039 C 
HETATM   21  C   UNL     1     -42.254 -53.892  13.868  1.00  0.00     0.003 C 
HETATM   22  C   UNL     1     -42.529 -54.830  15.041  1.00  0.00     0.000 C 
HETATM   23  C   UNL     1     -41.355 -54.908  16.015  1.00  0.00     0.003 C 
HETATM   24  C   UNL     1     -40.038 -55.209  15.302  1.00  0.00     0.039 C 
BRANCH  19  25
HETATM   25  O   UNL     1     -38.637 -54.810  13.412  1.00  0.00    -0.388 OA
HETATM   26  H   UNL     1     -37.940 -54.126  13.324  1.00  0.00     0.210 HD
ENDBRANCH  19  25
ENDBRANCH  18  19
ENDBRANCH   4  18
TORSDOF 5
ENDMDL
MODEL 6
REMARK VINA RESULT:      -5.8      4.388      8.044
REMARK  5 active torsions:
REMARK  status: ('A' for Active; 'I' for Inactive)
REMARK    1  A    between atoms: S_2  and  C_5 
REMARK    2  A    between atoms: C_8  and  N_9 
REMARK       I    between atoms: N_9  and  C_10 
REMARK       I    between atoms: C_10  and  N_12 
REMARK    3  A    between atoms: N_12  and  C_13 
REMARK    4  A    between atoms: C_13  and  C_14 
REMARK    5  A    between atoms: C_14  and  O_15 
ROOT
HETATM    1  N   UNL     1     -40.429 -50.636  11.356  1.00  0.00    -0.308 N 
HETATM    2  C   UNL     1     -41.387 -49.661  11.501  1.00  0.00     0.320 C 
HETATM    3  O   UNL     1     -42.182 -49.560  12.430  1.00  0.00    -0.247 OA
HETATM    4  N   UNL     1     -41.425 -48.777  10.454  1.00  0.00    -0.340 N 
HETATM    5  H   UNL     1     -40.110 -50.811  10.414  1.00  0.00     0.170 HD
HETATM    6  H   UNL     1     -40.745 -48.834   9.710  1.00  0.00     0.164 HD
ENDROOT
BRANCH   1   7
HETATM    7  C   UNL     1     -40.152 -51.621  12.334  1.00  0.00     0.051 A 
HETATM    8  C   UNL     1     -39.181 -51.452  13.324  1.00  0.00     0.034 A 
HETATM    9  C   UNL     1     -38.994 -52.426  14.298  1.00  0.00     0.044 A 
HETATM   10  C   UNL     1     -39.789 -53.557  14.226  1.00  0.00     0.128 A 
HETATM   11  N   UNL     1     -40.716 -53.803  13.264  1.00  0.00    -0.355 N 
HETATM   12  C   UNL     1     -40.865 -52.822  12.337  1.00  0.00     0.118 A 
ATOM     13  HN  UNL     1     -41.263 -54.664  13.240  1.00  0.00     0.166 HD
BRANCH  10  14
HETATM   14  S   UNL     1     -39.636 -54.798  15.492  1.00  0.00     0.187 S 
HETATM   15  C   UNL     1     -38.998 -53.954  16.910  1.00  0.00     0.168 C 
HETATM   16  O   UNL     1     -38.624 -55.741  15.045  1.00  0.00    -0.222 OA
HETATM   17  O   UNL     1     -40.980 -55.249  15.809  1.00  0.00    -0.222 OA
ENDBRANCH  10  14
ENDBRANCH   1   7
BRANCH   4  18
HETATM   18  C   UNL     1     -42.390 -47.681  10.449  1.00  0.00     0.162 C 
BRANCH  18  19
HETATM   19  C   UNL     1     -41.731 -46.267  10.438  1.00  0.00     0.074 C 
HETATM   20  C   UNL     1     -40.255 -46.315  10.862  1.00  0.00     0.039 C 
HETATM   21  C   UNL     1     -40.078 -46.690  12.331  1.00  0.00     0.003 C 
HETATM   22  C   UNL     1     -40.855 -45.744  13.243  1.00  0.00     0.000 C 
HETATM   23  C   UNL     1     -42.325 -45.625  12.847  1.00  0.00     0.003 C 
HETATM   24  C   UNL     1     -42.495 -45.302  11.365  1.00  0.00     0.039 C 
BRANCH  19  25
HETATM   25  O   UNL     1     -41.769 -45.691   9.125  1.00  0.00    -0.388 OA
HETATM   26  H   UNL     1     -42.644 -45.268   8.990  1.00  0.00     0.210 HD
ENDBRANCH  19  25
ENDBRANCH  18  19
ENDBRANCH   4  18
TORSDOF 5
ENDMDL
MODEL 7
REMARK VINA RESULT:      -5.7      1.682      2.279
REMARK  5 active torsions:
REMARK  status: ('A' for Active; 'I' for Inactive)
REMARK    1  A    between atoms: S_2  and  C_5 
REMARK    2  A    between atoms: C_8  and  N_9 
REMARK       I    between atoms: N_9  and  C_10 
REMARK       I    between atoms: C_10  and  N_12 
REMARK    3  A    between atoms: N_12  and  C_13 
REMARK    4  A    between atoms: C_13  and  C_14 
REMARK    5  A    between atoms: C_14  and  O_15 
ROOT
HETATM    1  N   UNL     1     -42.427 -49.729  11.550  1.00  0.00    -0.308 N 
HETATM    2  C   UNL     1     -42.118 -50.581  12.585  1.00  0.00     0.320 C 
HETATM    3  O   UNL     1     -41.366 -50.337  13.523  1.00  0.00    -0.247 OA
HETATM    4  N   UNL     1     -42.711 -51.812  12.469  1.00  0.00    -0.340 N 
HETATM    5  H   UNL     1     -42.743 -50.162  10.695  1.00  0.00     0.170 HD
HETATM    6  H   UNL     1     -43.362 -51.999  11.720  1.00  0.00     0.164 HD
ENDROOT
BRANCH   1   7
HETATM    7  C   UNL     1     -41.991 -48.385  11.480  1.00  0.00     0.051 A 
HETATM    8  C   UNL     1     -42.782 -47.310  11.893  1.00  0.00     0.034 A 
HETATM    9  C   UNL     1     -42.280 -46.014  11.861  1.00  0.00     0.044 A 
HETATM   10  C   UNL     1     -40.989 -45.844  11.389  1.00  0.00     0.128 A 
HETATM   11  N   UNL     1     -40.187 -46.839  10.930  1.00  0.00    -0.355 N 
HETATM   12  C   UNL     1     -40.720 -48.087  10.984  1.00  0.00     0.118 A 
ATOM     13  HN  UNL     1     -39.249 -46.662  10.569  1.00  0.00     0.166 HD
BRANCH  10  14
HETATM   14  S   UNL     1     -40.278 -44.214  11.396  1.00  0.00     0.187 S 
HETATM   15  C   UNL     1     -41.503 -43.164  12.123  1.00  0.00     0.168 C 
HETATM   16  O   UNL     1     -40.117 -43.812  10.008  1.00  0.00    -0.222 OA
HETATM   17  O   UNL     1     -39.136 -44.252  12.292  1.00  0.00    -0.222 OA
ENDBRANCH  10  14
ENDBRANCH   1   7
BRANCH   4  18
HETATM   18  C   UNL     1     -42.484 -52.838  13.483  1.00  0.00     0.162 C 
BRANCH  18  19
HETATM   19  C   UNL     1     -43.526 -52.814  14.642  1.00  0.00     0.074 C 
HETATM   20  C   UNL     1     -43.603 -54.161  15.378  1.00  0.00     0.039 C 
HETATM   21  C   UNL     1     -44.184 -55.272  14.507  1.00  0.00     0.003 C 
HETATM   22  C   UNL     1     -45.560 -54.891  13.966  1.00  0.00     0.000 C 
HETATM   23  C   UNL     1     -45.556 -53.539  13.256  1.00  0.00     0.003 C 
HETATM   24  C   UNL     1     -44.925 -52.444  14.113  1.00  0.00     0.039 C 
BRANCH  19  25
HETATM   25  O   UNL     1     -43.184 -51.824  15.623  1.00  0.00    -0.388 OA
HETATM   26  H   UNL     1     -43.951 -51.692  16.220  1.00  0.00     0.210 HD
ENDBRANCH  19  25
ENDBRANCH  18  19
ENDBRANCH   4  18
TORSDOF 5
ENDMDL
MODEL 8
REMARK VINA RESULT:      -5.5     14.329     15.126
REMARK  5 active torsions:
REMARK  status: ('A' for Active; 'I' for Inactive)
REMARK    1  A    between atoms: S_2  and  C_5 
REMARK    2  A    between atoms: C_8  and  N_9 
REMARK       I    between atoms: N_9  and  C_10 
REMARK       I    between atoms: C_10  and  N_12 
REMARK    3  A    between atoms: N_12  and  C_13 
REMARK    4  A    between atoms: C_13  and  C_14 
REMARK    5  A    between atoms: C_14  and  O_15 
ROOT
HETATM    1  N   UNL     1     -47.108 -48.453  -2.795  1.00  0.00    -0.308 N 
HETATM    2  C   UNL     1     -47.549 -49.714  -2.469  1.00  0.00     0.320 C 
HETATM    3  O   UNL     1     -46.844 -50.679  -2.193  1.00  0.00    -0.247 OA
HETATM    4  N   UNL     1     -48.915 -49.840  -2.516  1.00  0.00    -0.340 N 
HETATM    5  H   UNL     1     -47.743 -47.884  -3.336  1.00  0.00     0.170 HD
HETATM    6  H   UNL     1     -49.497 -49.037  -2.702  1.00  0.00     0.164 HD
ENDROOT
BRANCH   1   7
HETATM    7  C   UNL     1     -45.750 -48.059  -2.753  1.00  0.00     0.051 A 
HETATM    8  C   UNL     1     -45.228 -47.251  -1.741  1.00  0.00     0.034 A 
HETATM    9  C   UNL     1     -43.871 -46.945  -1.715  1.00  0.00     0.044 A 
HETATM   10  C   UNL     1     -43.085 -47.456  -2.733  1.00  0.00     0.128 A 
HETATM   11  N   UNL     1     -43.539 -48.208  -3.770  1.00  0.00    -0.355 N 
HETATM   12  C   UNL     1     -44.868 -48.482  -3.751  1.00  0.00     0.118 A 
ATOM     13  HN  UNL     1     -42.923 -48.544  -4.511  1.00  0.00     0.166 HD
BRANCH  10  14
HETATM   14  S   UNL     1     -41.332 -47.153  -2.703  1.00  0.00     0.187 S 
HETATM   15  C   UNL     1     -41.147 -45.413  -2.958  1.00  0.00     0.168 C 
HETATM   16  O   UNL     1     -40.762 -47.833  -3.855  1.00  0.00    -0.222 OA
HETATM   17  O   UNL     1     -40.871 -47.458  -1.360  1.00  0.00    -0.222 OA
ENDBRANCH  10  14
ENDBRANCH   1   7
BRANCH   4  18
HETATM   18  C   UNL     1     -49.548 -51.118  -2.202  1.00  0.00     0.162 C 
BRANCH  18  19
HETATM   19  C   UNL     1     -50.034 -51.228  -0.725  1.00  0.00     0.074 C 
HETATM   20  C   UNL     1     -50.249 -52.689  -0.295  1.00  0.00     0.039 C 
HETATM   21  C   UNL     1     -51.419 -53.347  -1.021  1.00  0.00     0.003 C 
HETATM   22  C   UNL     1     -52.708 -52.551  -0.833  1.00  0.00     0.000 C 
HETATM   23  C   UNL     1     -52.547 -51.079  -1.208  1.00  0.00     0.003 C 
HETATM   24  C   UNL     1     -51.342 -50.441  -0.519  1.00  0.00     0.039 C 
BRANCH  19  25
HETATM   25  O   UNL     1     -49.071 -50.666   0.179  1.00  0.00    -0.388 OA
HETATM   26  H   UNL     1     -49.057 -49.693   0.060  1.00  0.00     0.210 HD
ENDBRANCH  19  25
ENDBRANCH  18  19
ENDBRANCH   4  18
TORSDOF 5
ENDMDL
MODEL 9
REMARK VINA RESULT:      -5.3      7.111     10.294
REMARK  5 active torsions:
REMARK  status: ('A' for Active; 'I' for Inactive)
REMARK    1  A    between atoms: S_2  and  C_5 
REMARK    2  A    between atoms: C_8  and  N_9 
REMARK       I    between atoms: N_9  and  C_10 
REMARK       I    between atoms: C_10  and  N_12 
REMARK    3  A    between atoms: N_12  and  C_13 
REMARK    4  A    between atoms: C_13  and  C_14 
REMARK    5  A    between atoms: C_14  and  O_15 
ROOT
HETATM    1  N   UNL     1     -41.329 -55.023  16.272  1.00  0.00    -0.308 N 
HETATM    2  C   UNL     1     -42.487 -55.192  15.549  1.00  0.00     0.320 C 
HETATM    3  O   UNL     1     -43.194 -56.194  15.538  1.00  0.00    -0.247 OA
HETATM    4  N   UNL     1     -42.797 -54.112  14.762  1.00  0.00    -0.340 N 
HETATM    5  H   UNL     1     -40.681 -54.333  15.921  1.00  0.00     0.170 HD
HETATM    6  H   UNL     1     -42.240 -53.272  14.802  1.00  0.00     0.164 HD
ENDROOT
BRANCH   1   7
HETATM    7  C   UNL     1     -40.838 -55.968  17.204  1.00  0.00     0.051 A 
HETATM    8  C   UNL     1     -41.372 -56.112  18.487  1.00  0.00     0.034 A 
HETATM    9  C   UNL     1     -40.892 -57.100  19.340  1.00  0.00     0.044 A 
HETATM   10  C   UNL     1     -39.866 -57.902  18.871  1.00  0.00     0.128 A 
HETATM   11  N   UNL     1     -39.274 -57.783  17.654  1.00  0.00    -0.355 N 
HETATM   12  C   UNL     1     -39.778 -56.807  16.856  1.00  0.00     0.118 A 
ATOM     13  HN  UNL     1     -38.503 -58.385  17.361  1.00  0.00     0.166 HD
BRANCH  10  14
HETATM   14  S   UNL     1     -39.269 -59.225  19.899  1.00  0.00     0.187 S 
HETATM   15  C   UNL     1     -40.425 -59.349  21.233  1.00  0.00     0.168 C 
HETATM   16  O   UNL     1     -37.996 -58.793  20.454  1.00  0.00    -0.222 OA
HETATM   17  O   UNL     1     -39.360 -60.446  19.117  1.00  0.00    -0.222 OA
ENDBRANCH  10  14
ENDBRANCH   1   7
BRANCH   4  18
HETATM   18  C   UNL     1     -43.995 -54.129  13.927  1.00  0.00     0.162 C 
BRANCH  18  19
HETATM   19  C   UNL     1     -44.175 -52.841  13.066  1.00  0.00     0.074 C 
HETATM   20  C   UNL     1     -43.872 -51.564  13.866  1.00  0.00     0.039 C 
HETATM   21  C   UNL     1     -44.897 -51.306  14.967  1.00  0.00     0.003 C 
HETATM   22  C   UNL     1     -46.315 -51.247  14.403  1.00  0.00     0.000 C 
HETATM   23  C   UNL     1     -46.662 -52.475  13.564  1.00  0.00     0.003 C 
HETATM   24  C   UNL     1     -45.605 -52.759  12.499  1.00  0.00     0.039 C 
BRANCH  19  25
HETATM   25  O   UNL     1     -43.287 -52.847  11.939  1.00  0.00    -0.388 OA
HETATM   26  H   UNL     1     -43.236 -51.938  11.573  1.00  0.00     0.210 HD
ENDBRANCH  19  25
ENDBRANCH  18  19
ENDBRANCH   4  18
TORSDOF 5
ENDMDL
