MODEL 1
REMARK VINA RESULT:      -5.9      0.000      0.000
REMARK  5 active torsions:
REMARK  status: ('A' for Active; 'I' for Inactive)
REMARK    1  A    between atoms: S_2  and  N_5 
REMARK    2  A    between atoms: C_10  and  C_11 
REMARK       I    between atoms: C_11  and  N_13 
REMARK    3  A    between atoms: N_13  and  C_14 
REMARK    4  A    between atoms: C_14  and  C_15 
REMARK    5  A    between atoms: C_15  and  C_16 
ROOT
HETATM    1  C   UNL     1     -40.854 -50.442  11.973  1.00  0.00     0.241 C 
HETATM    2  O   UNL     1     -39.769 -50.121  12.451  1.00  0.00    -0.271 OA
HETATM    3  N   UNL     1     -41.570 -49.626  11.108  1.00  0.00    -0.359 N 
HETATM    4  H   UNL     1     -42.577 -49.736  11.178  1.00  0.00     0.162 HD
ENDROOT
BRANCH   1   5
HETATM    5  C   UNL     1     -41.474 -51.827  12.189  1.00  0.00     0.187 C 
HETATM    6  N   UNL     1     -42.842 -51.905  12.773  1.00  0.00    -0.297 N 
HETATM    7  C   UNL     1     -43.407 -53.275  12.693  1.00  0.00     0.136 C 
HETATM    8  C   UNL     1     -42.527 -54.284  13.420  1.00  0.00     0.021 C 
HETATM    9  C   UNL     1     -41.062 -54.198  12.998  1.00  0.00     0.004 C 
HETATM   10  C   UNL     1     -40.536 -52.763  12.967  1.00  0.00     0.036 C 
BRANCH   6  11
HETATM   11  S   UNL     1     -43.370 -50.872  13.990  1.00  0.00     0.225 S 
HETATM   12  C   UNL     1     -44.959 -51.504  14.501  1.00  0.00     0.186 C 
HETATM   13  O   UNL     1     -43.595 -49.573  13.390  1.00  0.00    -0.206 OA
HETATM   14  O   UNL     1     -42.456 -50.999  15.106  1.00  0.00    -0.206 OA
ENDBRANCH   6  11
ENDBRANCH   1   5
BRANCH   3  15
HETATM   15  C   UNL     1     -41.054 -48.303  10.769  1.00  0.00     0.128 C 
BRANCH  15  16
HETATM   16  C   UNL     1     -42.139 -47.227  10.747  1.00  0.00     0.076 C 
BRANCH  16  17
HETATM   17  C   UNL     1     -43.213 -47.509   9.724  1.00  0.00     0.010 A 
HETATM   18  C   UNL     1     -44.561 -47.443  10.070  1.00  0.00     0.025 A 
HETATM   19  C   UNL     1     -45.523 -47.747   9.107  1.00  0.00     0.003 A 
HETATM   20  C   UNL     1     -45.117 -48.101   7.827  1.00  0.00     0.017 A 
HETATM   21  C   UNL     1     -43.760 -48.128   7.560  1.00  0.00     0.088 A 
HETATM   22  N   UNL     1     -42.805 -47.841   8.475  1.00  0.00    -0.369 N 
ATOM     23  HN  UNL     1     -41.815 -47.872   8.234  1.00  0.00     0.165 HD
ENDBRANCH  16  17
ENDBRANCH  15  16
ENDBRANCH   3  15
TORSDOF 5
ENDMDL
MODEL 2
REMARK VINA RESULT:      -5.8      3.642      5.945
REMARK  5 active torsions:
REMARK  status: ('A' for Active; 'I' for Inactive)
REMARK    1  A    between atoms: S_2  and  N_5 
REMARK    2  A    between atoms: C_10  and  C_11 
REMARK       I    between atoms: C_11  and  N_13 
REMARK    3  A    between atoms: N_13  and  C_14 
REMARK    4  A    between atoms: C_14  and  C_15 
REMARK    5  A    between atoms: C_15  and  C_16 
ROOT
HETATM    1  C   UNL     1     -43.620 -54.458  15.347  1.00  0.00     0.241 C 
HETATM    2  O   UNL     1     -43.661 -55.671  15.155  1.00  0.00    -0.271 OA
HETATM    3  N   UNL     1     -42.457 -53.711  15.218  1.00  0.00    -0.359 N 
HETATM    4  H   UNL     1     -42.415 -52.907  15.838  1.00  0.00     0.162 HD
ENDROOT
BRANCH   1   5
HETATM    5  C   UNL     1     -44.875 -53.625  15.632  1.00  0.00     0.187 C 
HETATM    6  N   UNL     1     -45.768 -53.280  14.490  1.00  0.00    -0.297 N 
HETATM    7  C   UNL     1     -47.055 -52.696  14.944  1.00  0.00     0.136 C 
HETATM    8  C   UNL     1     -46.834 -51.433  15.766  1.00  0.00     0.021 C 
HETATM    9  C   UNL     1     -45.821 -51.633  16.891  1.00  0.00     0.004 C 
HETATM   10  C   UNL     1     -44.553 -52.351  16.427  1.00  0.00     0.036 C 
BRANCH   6  11
HETATM   11  S   UNL     1     -45.180 -52.882  12.966  1.00  0.00     0.225 S 
HETATM   12  C   UNL     1     -46.545 -52.114  12.110  1.00  0.00     0.186 C 
HETATM   13  O   UNL     1     -44.882 -54.121  12.278  1.00  0.00    -0.206 OA
HETATM   14  O   UNL     1     -44.142 -51.888  13.138  1.00  0.00    -0.206 OA
ENDBRANCH   6  11
ENDBRANCH   1   5
BRANCH   3  15
HETATM   15  C   UNL     1     -41.203 -54.378  14.884  1.00  0.00     0.128 C 
BRANCH  15  16
HETATM   16  C   UNL     1     -40.819 -54.225  13.413  1.00  0.00     0.076 C 
BRANCH  16  17
HETATM   17  C   UNL     1     -40.475 -52.801  13.050  1.00  0.00     0.010 A 
HETATM   18  C   UNL     1     -39.412 -52.145  13.667  1.00  0.00     0.025 A 
HETATM   19  C   UNL     1     -39.150 -50.816  13.332  1.00  0.00     0.003 A 
HETATM   20  C   UNL     1     -39.946 -50.182  12.388  1.00  0.00     0.017 A 
HETATM   21  C   UNL     1     -40.973 -50.908  11.810  1.00  0.00     0.088 A 
HETATM   22  N   UNL     1     -41.252 -52.196  12.117  1.00  0.00    -0.369 N 
ATOM     23  HN  UNL     1     -42.019 -52.693  11.665  1.00  0.00     0.165 HD
ENDBRANCH  16  17
ENDBRANCH  15  16
ENDBRANCH   3  15
TORSDOF 5
ENDMDL
MODEL 3
REMARK VINA RESULT:      -5.7      2.836      6.108
REMARK  5 active torsions:
REMARK  status: ('A' for Active; 'I' for Inactive)
REMARK    1  A    between atoms: S_2  and  N_5 
REMARK    2  A    between atoms: C_10  and  C_11 
REMARK       I    between atoms: C_11  and  N_13 
REMARK    3  A    between atoms: N_13  and  C_14 
REMARK    4  A    between atoms: C_14  and  C_15 
REMARK    5  A    between atoms: C_15  and  C_16 
ROOT
HETATM    1  C   UNL     1     -39.076 -51.468  13.731  1.00  0.00     0.241 C 
HETATM    2  O   UNL     1     -38.099 -51.952  13.164  1.00  0.00    -0.271 OA
HETATM    3  N   UNL     1     -40.069 -52.241  14.318  1.00  0.00    -0.359 N 
HETATM    4  H   UNL     1     -40.989 -51.812  14.298  1.00  0.00     0.162 HD
ENDROOT
BRANCH   1   5
HETATM    5  C   UNL     1     -39.238 -49.960  13.953  1.00  0.00     0.187 C 
HETATM    6  N   UNL     1     -40.460 -49.296  13.421  1.00  0.00    -0.297 N 
HETATM    7  C   UNL     1     -40.603 -47.906  13.920  1.00  0.00     0.136 C 
HETATM    8  C   UNL     1     -39.401 -47.051  13.540  1.00  0.00     0.021 C 
HETATM    9  C   UNL     1     -38.073 -47.705  13.916  1.00  0.00     0.004 C 
HETATM   10  C   UNL     1     -37.997 -49.175  13.503  1.00  0.00     0.036 C 
BRANCH   6  11
HETATM   11  S   UNL     1     -41.149 -49.711  11.943  1.00  0.00     0.225 S 
HETATM   12  C   UNL     1     -42.248 -48.366  11.531  1.00  0.00     0.186 C 
HETATM   13  O   UNL     1     -41.968 -50.885  12.161  1.00  0.00    -0.206 OA
HETATM   14  O   UNL     1     -40.091 -49.745  10.957  1.00  0.00    -0.206 OA
ENDBRANCH   6  11
ENDBRANCH   1   5
BRANCH   3  15
HETATM   15  C   UNL     1     -39.997 -53.696  14.233  1.00  0.00     0.128 C 
BRANCH  15  16
HETATM   16  C   UNL     1     -40.801 -54.267  13.066  1.00  0.00     0.076 C 
BRANCH  16  17
HETATM   17  C   UNL     1     -42.291 -54.205  13.305  1.00  0.00     0.010 A 
HETATM   18  C   UNL     1     -42.848 -54.735  14.467  1.00  0.00     0.025 A 
HETATM   19  C   UNL     1     -44.232 -54.693  14.634  1.00  0.00     0.003 A 
HETATM   20  C   UNL     1     -45.021 -54.119  13.646  1.00  0.00     0.017 A 
HETATM   21  C   UNL     1     -44.389 -53.601  12.529  1.00  0.00     0.088 A 
HETATM   22  N   UNL     1     -43.049 -53.631  12.339  1.00  0.00    -0.369 N 
ATOM     23  HN  UNL     1     -42.625 -53.236  11.500  1.00  0.00     0.165 HD
ENDBRANCH  16  17
ENDBRANCH  15  16
ENDBRANCH   3  15
TORSDOF 5
ENDMDL
MODEL 4
REMARK VINA RESULT:      -5.7      2.419      4.349
REMARK  5 active torsions:
REMARK  status: ('A' for Active; 'I' for Inactive)
REMARK    1  A    between atoms: S_2  and  N_5 
REMARK    2  A    between atoms: C_10  and  C_11 
REMARK       I    between atoms: C_11  and  N_13 
REMARK    3  A    between atoms: N_13  and  C_14 
REMARK    4  A    between atoms: C_14  and  C_15 
REMARK    5  A    between atoms: C_15  and  C_16 
ROOT
HETATM    1  C   UNL     1     -43.388 -50.046  13.593  1.00  0.00     0.241 C 
HETATM    2  O   UNL     1     -43.036 -49.261  14.471  1.00  0.00    -0.271 OA
HETATM    3  N   UNL     1     -43.352 -49.733  12.241  1.00  0.00    -0.359 N 
HETATM    4  H   UNL     1     -44.073 -50.193  11.694  1.00  0.00     0.162 HD
ENDROOT
BRANCH   1   5
HETATM    5  C   UNL     1     -43.790 -51.493  13.894  1.00  0.00     0.187 C 
HETATM    6  N   UNL     1     -42.710 -52.505  14.066  1.00  0.00    -0.297 N 
HETATM    7  C   UNL     1     -43.228 -53.792  14.594  1.00  0.00     0.136 C 
HETATM    8  C   UNL     1     -44.286 -54.386  13.674  1.00  0.00     0.021 C 
HETATM    9  C   UNL     1     -45.382 -53.385  13.314  1.00  0.00     0.004 C 
HETATM   10  C   UNL     1     -44.827 -52.024  12.892  1.00  0.00     0.036 C 
BRANCH   6  11
HETATM   11  S   UNL     1     -41.311 -52.507  13.133  1.00  0.00     0.225 S 
HETATM   12  C   UNL     1     -40.650 -54.160  13.261  1.00  0.00     0.186 C 
HETATM   13  O   UNL     1     -40.364 -51.614  13.769  1.00  0.00    -0.206 OA
HETATM   14  O   UNL     1     -41.697 -52.283  11.756  1.00  0.00    -0.206 OA
ENDBRANCH   6  11
ENDBRANCH   1   5
BRANCH   3  15
HETATM   15  C   UNL     1     -42.923 -48.404  11.818  1.00  0.00     0.128 C 
BRANCH  15  16
HETATM   16  C   UNL     1     -41.769 -48.439  10.816  1.00  0.00     0.076 C 
BRANCH  16  17
HETATM   17  C   UNL     1     -40.446 -48.759  11.470  1.00  0.00     0.010 A 
HETATM   18  C   UNL     1     -39.976 -47.997  12.537  1.00  0.00     0.025 A 
HETATM   19  C   UNL     1     -38.732 -48.300  13.090  1.00  0.00     0.003 A 
HETATM   20  C   UNL     1     -37.995 -49.356  12.570  1.00  0.00     0.017 A 
HETATM   21  C   UNL     1     -38.539 -50.073  11.520  1.00  0.00     0.088 A 
HETATM   22  N   UNL     1     -39.742 -49.800  10.962  1.00  0.00    -0.369 N 
ATOM     23  HN  UNL     1     -40.105 -50.357  10.189  1.00  0.00     0.165 HD
ENDBRANCH  16  17
ENDBRANCH  15  16
ENDBRANCH   3  15
TORSDOF 5
ENDMDL
MODEL 5
REMARK VINA RESULT:      -5.6      3.947      6.597
REMARK  5 active torsions:
REMARK  status: ('A' for Active; 'I' for Inactive)
REMARK    1  A    between atoms: S_2  and  N_5 
REMARK    2  A    between atoms: C_10  and  C_11 
REMARK       I    between atoms: C_11  and  N_13 
REMARK    3  A    between atoms: N_13  and  C_14 
REMARK    4  A    between atoms: C_14  and  C_15 
REMARK    5  A    between atoms: C_15  and  C_16 
ROOT
HETATM    1  C   UNL     1     -45.388 -51.490  14.677  1.00  0.00     0.241 C 
HETATM    2  O   UNL     1     -44.385 -50.889  14.300  1.00  0.00    -0.271 OA
HETATM    3  N   UNL     1     -45.993 -52.493  13.933  1.00  0.00    -0.359 N 
HETATM    4  H   UNL     1     -46.998 -52.554  14.066  1.00  0.00     0.162 HD
ENDROOT
BRANCH   1   5
HETATM    5  C   UNL     1     -46.006 -51.274  16.063  1.00  0.00     0.187 C 
HETATM    6  N   UNL     1     -45.440 -52.032  17.214  1.00  0.00    -0.297 N 
HETATM    7  C   UNL     1     -45.960 -51.543  18.515  1.00  0.00     0.136 C 
HETATM    8  C   UNL     1     -47.478 -51.651  18.583  1.00  0.00     0.021 C 
HETATM    9  C   UNL     1     -48.167 -51.025  17.373  1.00  0.00     0.004 C 
HETATM   10  C   UNL     1     -47.533 -51.444  16.046  1.00  0.00     0.036 C 
BRANCH   6  11
HETATM   11  S   UNL     1     -44.923 -53.627  17.085  1.00  0.00     0.225 S 
HETATM   12  C   UNL     1     -44.814 -54.233  18.761  1.00  0.00     0.186 C 
HETATM   13  O   UNL     1     -43.579 -53.606  16.546  1.00  0.00    -0.206 OA
HETATM   14  O   UNL     1     -45.959 -54.373  16.404  1.00  0.00    -0.206 OA
ENDBRANCH   6  11
ENDBRANCH   1   5
BRANCH   3  15
HETATM   15  C   UNL     1     -45.460 -52.840  12.620  1.00  0.00     0.128 C 
BRANCH  15  16
HETATM   16  C   UNL     1     -44.471 -54.005  12.666  1.00  0.00     0.076 C 
BRANCH  16  17
HETATM   17  C   UNL     1     -43.033 -53.543  12.679  1.00  0.00     0.010 A 
HETATM   18  C   UNL     1     -42.076 -54.218  13.433  1.00  0.00     0.025 A 
HETATM   19  C   UNL     1     -40.766 -53.738  13.450  1.00  0.00     0.003 A 
HETATM   20  C   UNL     1     -40.445 -52.607  12.711  1.00  0.00     0.017 A 
HETATM   21  C   UNL     1     -41.451 -52.003  11.977  1.00  0.00     0.088 A 
HETATM   22  N   UNL     1     -42.730 -52.445  11.944  1.00  0.00    -0.369 N 
ATOM     23  HN  UNL     1     -43.439 -51.969  11.387  1.00  0.00     0.165 HD
ENDBRANCH  16  17
ENDBRANCH  15  16
ENDBRANCH   3  15
TORSDOF 5
ENDMDL
MODEL 6
REMARK VINA RESULT:      -5.6      2.321      5.917
REMARK  5 active torsions:
REMARK  status: ('A' for Active; 'I' for Inactive)
REMARK    1  A    between atoms: S_2  and  N_5 
REMARK    2  A    between atoms: C_10  and  C_11 
REMARK       I    between atoms: C_11  and  N_13 
REMARK    3  A    between atoms: N_13  and  C_14 
REMARK    4  A    between atoms: C_14  and  C_15 
REMARK    5  A    between atoms: C_15  and  C_16 
ROOT
HETATM    1  C   UNL     1     -40.999 -49.621  11.328  1.00  0.00     0.241 C 
HETATM    2  O   UNL     1     -39.846 -50.045  11.326  1.00  0.00    -0.271 OA
HETATM    3  N   UNL     1     -42.049 -50.291  11.942  1.00  0.00    -0.359 N 
HETATM    4  H   UNL     1     -42.947 -50.148  11.489  1.00  0.00     0.162 HD
ENDROOT
BRANCH   1   5
HETATM    5  C   UNL     1     -41.375 -48.251  10.755  1.00  0.00     0.187 C 
HETATM    6  N   UNL     1     -40.757 -47.039  11.360  1.00  0.00    -0.297 N 
HETATM    7  C   UNL     1     -41.013 -45.818  10.555  1.00  0.00     0.136 C 
HETATM    8  C   UNL     1     -42.505 -45.557  10.399  1.00  0.00     0.021 C 
HETATM    9  C   UNL     1     -43.270 -46.786   9.912  1.00  0.00     0.004 C 
HETATM   10  C   UNL     1     -42.897 -48.058  10.674  1.00  0.00     0.036 C 
BRANCH   6  11
HETATM   11  S   UNL     1     -40.487 -46.887  13.013  1.00  0.00     0.225 S 
HETATM   12  C   UNL     1     -40.437 -45.131  13.333  1.00  0.00     0.186 C 
HETATM   13  O   UNL     1     -39.165 -47.412  13.287  1.00  0.00    -0.206 OA
HETATM   14  O   UNL     1     -41.635 -47.436  13.701  1.00  0.00    -0.206 OA
ENDBRANCH   6  11
ENDBRANCH   1   5
BRANCH   3  15
HETATM   15  C   UNL     1     -41.809 -51.579  12.583  1.00  0.00     0.128 C 
BRANCH  15  16
HETATM   16  C   UNL     1     -42.948 -52.575  12.369  1.00  0.00     0.076 C 
BRANCH  16  17
HETATM   17  C   UNL     1     -44.235 -52.131  13.023  1.00  0.00     0.010 A 
HETATM   18  C   UNL     1     -44.237 -51.634  14.325  1.00  0.00     0.025 A 
HETATM   19  C   UNL     1     -45.451 -51.269  14.908  1.00  0.00     0.003 A 
HETATM   20  C   UNL     1     -46.624 -51.402  14.177  1.00  0.00     0.017 A 
HETATM   21  C   UNL     1     -46.535 -51.889  12.885  1.00  0.00     0.088 A 
HETATM   22  N   UNL     1     -45.372 -52.253  12.295  1.00  0.00    -0.369 N 
ATOM     23  HN  UNL     1     -45.352 -52.606  11.339  1.00  0.00     0.165 HD
ENDBRANCH  16  17
ENDBRANCH  15  16
ENDBRANCH   3  15
TORSDOF 5
ENDMDL
MODEL 7
REMARK VINA RESULT:      -5.5      3.622      5.086
REMARK  5 active torsions:
REMARK  status: ('A' for Active; 'I' for Inactive)
REMARK    1  A    between atoms: S_2  and  N_5 
REMARK    2  A    between atoms: C_10  and  C_11 
REMARK       I    between atoms: C_11  and  N_13 
REMARK    3  A    between atoms: N_13  and  C_14 
REMARK    4  A    between atoms: C_14  and  C_15 
REMARK    5  A    between atoms: C_15  and  C_16 
ROOT
HETATM    1  C   UNL     1     -41.054 -53.709  13.167  1.00  0.00     0.241 C 
HETATM    2  O   UNL     1     -40.487 -53.340  12.141  1.00  0.00    -0.271 OA
HETATM    3  N   UNL     1     -40.414 -53.795  14.395  1.00  0.00    -0.359 N 
HETATM    4  H   UNL     1     -40.779 -54.526  14.999  1.00  0.00     0.162 HD
ENDROOT
BRANCH   1   5
HETATM    5  C   UNL     1     -42.558 -53.998  13.219  1.00  0.00     0.187 C 
HETATM    6  N   UNL     1     -43.502 -52.857  13.059  1.00  0.00    -0.297 N 
HETATM    7  C   UNL     1     -44.904 -53.311  12.880  1.00  0.00     0.136 C 
HETATM    8  C   UNL     1     -45.373 -54.147  14.064  1.00  0.00     0.021 C 
HETATM    9  C   UNL     1     -44.402 -55.274  14.411  1.00  0.00     0.004 C 
HETATM   10  C   UNL     1     -42.947 -54.807  14.466  1.00  0.00     0.036 C 
BRANCH   6  11
HETATM   11  S   UNL     1     -43.212 -51.339  13.722  1.00  0.00     0.225 S 
HETATM   12  C   UNL     1     -44.792 -50.766  14.323  1.00  0.00     0.186 C 
HETATM   13  O   UNL     1     -42.819 -50.461  12.639  1.00  0.00    -0.206 OA
HETATM   14  O   UNL     1     -42.335 -51.513  14.860  1.00  0.00    -0.206 OA
ENDBRANCH   6  11
ENDBRANCH   1   5
BRANCH   3  15
HETATM   15  C   UNL     1     -38.992 -53.482  14.493  1.00  0.00     0.128 C 
BRANCH  15  16
HETATM   16  C   UNL     1     -38.726 -52.030  14.887  1.00  0.00     0.076 C 
BRANCH  16  17
HETATM   17  C   UNL     1     -38.611 -51.117  13.690  1.00  0.00     0.010 A 
HETATM   18  C   UNL     1     -37.428 -51.051  12.956  1.00  0.00     0.025 A 
HETATM   19  C   UNL     1     -37.348 -50.169  11.879  1.00  0.00     0.003 A 
HETATM   20  C   UNL     1     -38.448 -49.384  11.558  1.00  0.00     0.017 A 
HETATM   21  C   UNL     1     -39.590 -49.520  12.327  1.00  0.00     0.088 A 
HETATM   22  N   UNL     1     -39.695 -50.365  13.379  1.00  0.00    -0.369 N 
ATOM     23  HN  UNL     1     -40.558 -50.434  13.918  1.00  0.00     0.165 HD
ENDBRANCH  16  17
ENDBRANCH  15  16
ENDBRANCH   3  15
TORSDOF 5
ENDMDL
MODEL 8
REMARK VINA RESULT:      -5.5      3.046      5.507
REMARK  5 active torsions:
REMARK  status: ('A' for Active; 'I' for Inactive)
REMARK    1  A    between atoms: S_2  and  N_5 
REMARK    2  A    between atoms: C_10  and  C_11 
REMARK       I    between atoms: C_11  and  N_13 
REMARK    3  A    between atoms: N_13  and  C_14 
REMARK    4  A    between atoms: C_14  and  C_15 
REMARK    5  A    between atoms: C_15  and  C_16 
ROOT
HETATM    1  C   UNL     1     -40.382 -52.559  13.633  1.00  0.00     0.241 C 
HETATM    2  O   UNL     1     -39.895 -53.410  12.891  1.00  0.00    -0.271 OA
HETATM    3  N   UNL     1     -41.567 -52.752  14.329  1.00  0.00    -0.359 N 
HETATM    4  H   UNL     1     -42.098 -51.900  14.480  1.00  0.00     0.162 HD
ENDROOT
BRANCH   1   5
HETATM    5  C   UNL     1     -39.668 -51.243  13.958  1.00  0.00     0.187 C 
HETATM    6  N   UNL     1     -40.350 -49.966  13.608  1.00  0.00    -0.297 N 
HETATM    7  C   UNL     1     -39.667 -48.787  14.199  1.00  0.00     0.136 C 
HETATM    8  C   UNL     1     -38.220 -48.690  13.733  1.00  0.00     0.021 C 
HETATM    9  C   UNL     1     -37.455 -49.999  13.916  1.00  0.00     0.004 C 
HETATM   10  C   UNL     1     -38.231 -51.217  13.413  1.00  0.00     0.036 C 
BRANCH   6  11
HETATM   11  S   UNL     1     -41.246 -49.771  12.198  1.00  0.00     0.225 S 
HETATM   12  C   UNL     1     -41.585 -48.022  12.082  1.00  0.00     0.186 C 
HETATM   13  O   UNL     1     -42.513 -50.443  12.393  1.00  0.00    -0.206 OA
HETATM   14  O   UNL     1     -40.401 -50.139  11.083  1.00  0.00    -0.206 OA
ENDBRANCH   6  11
ENDBRANCH   1   5
BRANCH   3  15
HETATM   15  C   UNL     1     -42.312 -53.995  14.157  1.00  0.00     0.128 C 
BRANCH  15  16
HETATM   16  C   UNL     1     -43.377 -53.906  13.064  1.00  0.00     0.076 C 
BRANCH  16  17
HETATM   17  C   UNL     1     -44.544 -53.036  13.463  1.00  0.00     0.010 A 
HETATM   18  C   UNL     1     -45.058 -53.083  14.758  1.00  0.00     0.025 A 
HETATM   19  C   UNL     1     -46.161 -52.291  15.078  1.00  0.00     0.003 A 
HETATM   20  C   UNL     1     -46.716 -51.471  14.104  1.00  0.00     0.017 A 
HETATM   21  C   UNL     1     -46.137 -51.471  12.847  1.00  0.00     0.088 A 
HETATM   22  N   UNL     1     -45.070 -52.230  12.508  1.00  0.00    -0.369 N 
ATOM     23  HN  UNL     1     -44.674 -52.197  11.569  1.00  0.00     0.165 HD
ENDBRANCH  16  17
ENDBRANCH  15  16
ENDBRANCH   3  15
TORSDOF 5
ENDMDL
MODEL 9
REMARK VINA RESULT:      -5.4      2.338      3.233
REMARK  5 active torsions:
REMARK  status: ('A' for Active; 'I' for Inactive)
REMARK    1  A    between atoms: S_2  and  N_5 
REMARK    2  A    between atoms: C_10  and  C_11 
REMARK       I    between atoms: C_11  and  N_13 
REMARK    3  A    between atoms: N_13  and  C_14 
REMARK    4  A    between atoms: C_14  and  C_15 
REMARK    5  A    between atoms: C_15  and  C_16 
ROOT
HETATM    1  C   UNL     1     -41.516 -51.489  12.957  1.00  0.00     0.241 C 
HETATM    2  O   UNL     1     -40.738 -51.059  13.806  1.00  0.00    -0.271 OA
HETATM    3  N   UNL     1     -41.625 -50.944  11.686  1.00  0.00    -0.359 N 
HETATM    4  H   UNL     1     -42.556 -51.018  11.285  1.00  0.00     0.162 HD
ENDROOT
BRANCH   1   5
HETATM    5  C   UNL     1     -42.361 -52.749  13.177  1.00  0.00     0.187 C 
HETATM    6  N   UNL     1     -43.844 -52.623  13.116  1.00  0.00    -0.297 N 
HETATM    7  C   UNL     1     -44.517 -53.946  13.096  1.00  0.00     0.136 C 
HETATM    8  C   UNL     1     -44.166 -54.767  14.329  1.00  0.00     0.021 C 
HETATM    9  C   UNL     1     -42.661 -54.849  14.573  1.00  0.00     0.004 C 
HETATM   10  C   UNL     1     -41.968 -53.490  14.464  1.00  0.00     0.036 C 
BRANCH   6  11
HETATM   11  S   UNL     1     -44.669 -51.293  13.733  1.00  0.00     0.225 S 
HETATM   12  C   UNL     1     -46.396 -51.605  13.405  1.00  0.00     0.186 C 
HETATM   13  O   UNL     1     -44.283 -50.140  12.947  1.00  0.00    -0.206 OA
HETATM   14  O   UNL     1     -44.479 -51.282  15.167  1.00  0.00    -0.206 OA
ENDBRANCH   6  11
ENDBRANCH   1   5
BRANCH   3  15
HETATM   15  C   UNL     1     -40.823 -49.778  11.328  1.00  0.00     0.128 C 
BRANCH  15  16
HETATM   16  C   UNL     1     -41.668 -48.537  11.041  1.00  0.00     0.076 C 
BRANCH  16  17
HETATM   17  C   UNL     1     -40.922 -47.254  11.313  1.00  0.00     0.010 A 
HETATM   18  C   UNL     1     -40.621 -46.868  12.618  1.00  0.00     0.025 A 
HETATM   19  C   UNL     1     -39.963 -45.656  12.831  1.00  0.00     0.003 A 
HETATM   20  C   UNL     1     -39.618 -44.868  11.742  1.00  0.00     0.017 A 
HETATM   21  C   UNL     1     -39.939 -45.329  10.478  1.00  0.00     0.088 A 
HETATM   22  N   UNL     1     -40.578 -46.498  10.241  1.00  0.00    -0.369 N 
ATOM     23  HN  UNL     1     -40.795 -46.800   9.291  1.00  0.00     0.165 HD
ENDBRANCH  16  17
ENDBRANCH  15  16
ENDBRANCH   3  15
TORSDOF 5
ENDMDL
