MODEL 1
REMARK VINA RESULT:      -6.8      0.000      0.000
REMARK  4 active torsions:
REMARK  status: ('A' for Active; 'I' for Inactive)
REMARK    1  A    between atoms: C_8  and  N_9 
REMARK       I    between atoms: N_9  and  C_10 
REMARK       I    between atoms: C_10  and  N_12 
REMARK    2  A    between atoms: N_12  and  C_13 
REMARK    3  A    between atoms: C_16  and  C_17 
REMARK    4  A    between atoms: C_17  and  O_18 
ROOT
HETATM    1  N   UNL     1     -42.940 -52.419  12.817  1.00  0.00    -0.295 N 
HETATM    2  C   UNL     1     -41.981 -51.600  12.281  1.00  0.00     0.322 C 
HETATM    3  O   UNL     1     -40.867 -52.051  12.023  1.00  0.00    -0.247 OA
HETATM    4  N   UNL     1     -42.351 -50.309  12.067  1.00  0.00    -0.338 N 
HETATM    5  H   UNL     1     -42.622 -53.364  12.967  1.00  0.00     0.172 HD
HETATM    6  H   UNL     1     -43.319 -50.111  12.307  1.00  0.00     0.164 HD
ENDROOT
BRANCH   1   7
HETATM    7  C   UNL     1     -44.263 -52.094  13.149  1.00  0.00     0.109 A 
HETATM    8  N   UNL     1     -45.199 -52.087  12.175  1.00  0.00    -0.346 N 
HETATM    9  C   UNL     1     -46.476 -51.783  12.487  1.00  0.00     0.007 A 
ATOM     10  HN  UNL     1     -44.943 -52.310  11.212  1.00  0.00     0.167 HD
HETATM   11  C   UNL     1     -46.864 -51.474  13.782  1.00  0.00     0.031 A 
HETATM   12  C   UNL     1     -47.446 -51.792  11.346  1.00  0.00     0.068 C 
HETATM   13  C   UNL     1     -45.901 -51.486  14.795  1.00  0.00    -0.057 A 
HETATM   14  C   UNL     1     -46.276 -51.164  16.211  1.00  0.00     0.048 C 
HETATM   15  C   UNL     1     -44.574 -51.798  14.468  1.00  0.00     0.055 A 
ENDBRANCH   1   7
BRANCH   4  16
HETATM   16  C   UNL     1     -41.571 -49.234  11.498  1.00  0.00     0.086 C 
HETATM   17  C   UNL     1     -42.443 -48.138  10.881  1.00  0.00     0.026 C 
HETATM   18  C   UNL     1     -41.597 -47.017  10.278  1.00  0.00     0.009 C 
HETATM   19  C   UNL     1     -40.584 -46.467  11.296  1.00  0.00     0.009 C 
HETATM   20  C   UNL     1     -39.691 -47.598  11.820  1.00  0.00     0.009 C 
HETATM   21  C   UNL     1     -40.540 -48.681  12.484  1.00  0.00     0.026 C 
BRANCH  19  22
HETATM   22  C   UNL     1     -39.740 -45.336  10.706  1.00  0.00     0.168 C 
BRANCH  22  23
HETATM   23  O   UNL     1     -40.151 -45.048   9.376  1.00  0.00    -0.400 OA
HETATM   24  H   UNL     1     -39.499 -45.448   8.775  1.00  0.00     0.209 HD
ENDBRANCH  22  23
ENDBRANCH  19  22
ENDBRANCH   4  16
TORSDOF 4
ENDMDL
MODEL 2
REMARK VINA RESULT:      -6.6      2.368      7.001
REMARK  4 active torsions:
REMARK  status: ('A' for Active; 'I' for Inactive)
REMARK    1  A    between atoms: C_8  and  N_9 
REMARK       I    between atoms: N_9  and  C_10 
REMARK       I    between atoms: C_10  and  N_12 
REMARK    2  A    between atoms: N_12  and  C_13 
REMARK    3  A    between atoms: C_16  and  C_17 
REMARK    4  A    between atoms: C_17  and  O_18 
ROOT
HETATM    1  N   UNL     1     -40.438 -50.559  11.210  1.00  0.00    -0.295 N 
HETATM    2  C   UNL     1     -41.108 -51.551  11.876  1.00  0.00     0.322 C 
HETATM    3  O   UNL     1     -40.631 -52.683  11.927  1.00  0.00    -0.247 OA
HETATM    4  N   UNL     1     -42.287 -51.192  12.451  1.00  0.00    -0.338 N 
HETATM    5  H   UNL     1     -39.575 -50.869  10.792  1.00  0.00     0.172 HD
HETATM    6  H   UNL     1     -42.518 -50.209  12.341  1.00  0.00     0.164 HD
ENDROOT
BRANCH   1   7
HETATM    7  C   UNL     1     -40.808 -49.214  11.069  1.00  0.00     0.109 A 
HETATM    8  N   UNL     1     -41.832 -48.900  10.245  1.00  0.00    -0.346 N 
HETATM    9  C   UNL     1     -42.199 -47.609  10.108  1.00  0.00     0.007 A 
ATOM     10  HN  UNL     1     -42.322 -49.632   9.730  1.00  0.00     0.167 HD
HETATM   11  C   UNL     1     -41.557 -46.586  10.789  1.00  0.00     0.031 A 
HETATM   12  C   UNL     1     -43.337 -47.350   9.171  1.00  0.00     0.068 C 
HETATM   13  C   UNL     1     -40.501 -46.905  11.648  1.00  0.00    -0.057 A 
HETATM   14  C   UNL     1     -39.782 -45.831  12.408  1.00  0.00     0.048 C 
HETATM   15  C   UNL     1     -40.118 -48.246  11.784  1.00  0.00     0.055 A 
ENDBRANCH   1   7
BRANCH   4  16
HETATM   16  C   UNL     1     -43.191 -52.008  13.229  1.00  0.00     0.086 C 
HETATM   17  C   UNL     1     -44.215 -51.174  14.002  1.00  0.00     0.026 C 
HETATM   18  C   UNL     1     -45.155 -52.055  14.826  1.00  0.00     0.009 C 
HETATM   19  C   UNL     1     -45.808 -53.145  13.958  1.00  0.00     0.009 C 
HETATM   20  C   UNL     1     -44.731 -53.992  13.271  1.00  0.00     0.009 C 
HETATM   21  C   UNL     1     -43.841 -53.113  12.395  1.00  0.00     0.026 C 
BRANCH  19  22
HETATM   22  C   UNL     1     -46.760 -54.025  14.769  1.00  0.00     0.168 C 
BRANCH  22  23
HETATM   23  O   UNL     1     -46.637 -55.386  14.377  1.00  0.00    -0.400 OA
HETATM   24  H   UNL     1     -47.536 -55.733  14.238  1.00  0.00     0.209 HD
ENDBRANCH  22  23
ENDBRANCH  19  22
ENDBRANCH   4  16
TORSDOF 4
ENDMDL
MODEL 3
REMARK VINA RESULT:      -6.2      3.349      7.408
REMARK  4 active torsions:
REMARK  status: ('A' for Active; 'I' for Inactive)
REMARK    1  A    between atoms: C_8  and  N_9 
REMARK       I    between atoms: N_9  and  C_10 
REMARK       I    between atoms: C_10  and  N_12 
REMARK    2  A    between atoms: N_12  and  C_13 
REMARK    3  A    between atoms: C_16  and  C_17 
REMARK    4  A    between atoms: C_17  and  O_18 
ROOT
HETATM    1  N   UNL     1     -43.538 -53.098  12.030  1.00  0.00    -0.295 N 
HETATM    2  C   UNL     1     -44.635 -53.066  12.851  1.00  0.00     0.322 C 
HETATM    3  O   UNL     1     -45.701 -53.543  12.466  1.00  0.00    -0.247 OA
HETATM    4  N   UNL     1     -44.451 -52.492  14.069  1.00  0.00    -0.338 N 
HETATM    5  H   UNL     1     -43.720 -53.524  11.134  1.00  0.00     0.172 HD
HETATM    6  H   UNL     1     -43.499 -52.177  14.239  1.00  0.00     0.164 HD
ENDROOT
BRANCH   1   7
HETATM    7  C   UNL     1     -42.244 -52.633  12.302  1.00  0.00     0.109 A 
HETATM    8  N   UNL     1     -41.862 -51.435  11.806  1.00  0.00    -0.346 N 
HETATM    9  C   UNL     1     -40.621 -50.977  12.069  1.00  0.00     0.007 A 
ATOM     10  HN  UNL     1     -42.505 -50.884  11.237  1.00  0.00     0.167 HD
HETATM   11  C   UNL     1     -39.717 -51.697  12.835  1.00  0.00     0.031 A 
HETATM   12  C   UNL     1     -40.278 -49.646  11.475  1.00  0.00     0.068 C 
HETATM   13  C   UNL     1     -40.109 -52.933  13.357  1.00  0.00    -0.057 A 
HETATM   14  C   UNL     1     -39.167 -53.743  14.196  1.00  0.00     0.048 C 
HETATM   15  C   UNL     1     -41.397 -53.410  13.079  1.00  0.00     0.055 A 
ENDBRANCH   1   7
BRANCH   4  16
HETATM   16  C   UNL     1     -45.406 -52.336  15.143  1.00  0.00     0.086 C 
HETATM   17  C   UNL     1     -44.749 -51.905  16.456  1.00  0.00     0.026 C 
HETATM   18  C   UNL     1     -45.775 -51.757  17.579  1.00  0.00     0.009 C 
HETATM   19  C   UNL     1     -46.934 -50.835  17.162  1.00  0.00     0.009 C 
HETATM   20  C   UNL     1     -47.599 -51.361  15.885  1.00  0.00     0.009 C 
HETATM   21  C   UNL     1     -46.581 -51.439  14.750  1.00  0.00     0.026 C 
BRANCH  19  22
HETATM   22  C   UNL     1     -47.962 -50.669  18.283  1.00  0.00     0.168 C 
BRANCH  22  23
HETATM   23  O   UNL     1     -48.603 -51.908  18.560  1.00  0.00    -0.400 OA
HETATM   24  H   UNL     1     -48.716 -52.374  17.713  1.00  0.00     0.209 HD
ENDBRANCH  22  23
ENDBRANCH  19  22
ENDBRANCH   4  16
TORSDOF 4
ENDMDL
MODEL 4
REMARK VINA RESULT:      -6.1      2.879      7.203
REMARK  4 active torsions:
REMARK  status: ('A' for Active; 'I' for Inactive)
REMARK    1  A    between atoms: C_8  and  N_9 
REMARK       I    between atoms: N_9  and  C_10 
REMARK       I    between atoms: C_10  and  N_12 
REMARK    2  A    between atoms: N_12  and  C_13 
REMARK    3  A    between atoms: C_16  and  C_17 
REMARK    4  A    between atoms: C_17  and  O_18 
ROOT
HETATM    1  N   UNL     1     -42.605 -52.668  11.805  1.00  0.00    -0.295 N 
HETATM    2  C   UNL     1     -43.692 -52.887  12.612  1.00  0.00     0.322 C 
HETATM    3  O   UNL     1     -44.479 -53.792  12.343  1.00  0.00    -0.247 OA
HETATM    4  N   UNL     1     -43.815 -52.059  13.683  1.00  0.00    -0.338 N 
HETATM    5  H   UNL     1     -42.556 -53.297  11.019  1.00  0.00     0.172 HD
HETATM    6  H   UNL     1     -43.059 -51.386  13.775  1.00  0.00     0.164 HD
ENDROOT
BRANCH   1   7
HETATM    7  C   UNL     1     -41.593 -51.710  11.964  1.00  0.00     0.109 A 
HETATM    8  N   UNL     1     -41.778 -50.473  11.452  1.00  0.00    -0.346 N 
HETATM    9  C   UNL     1     -40.812 -49.544  11.606  1.00  0.00     0.007 A 
ATOM     10  HN  UNL     1     -42.638 -50.245  10.954  1.00  0.00     0.167 HD
HETATM   11  C   UNL     1     -39.629 -49.815  12.276  1.00  0.00     0.031 A 
HETATM   12  C   UNL     1     -41.096 -48.203  11.003  1.00  0.00     0.068 C 
HETATM   13  C   UNL     1     -39.436 -51.091  12.813  1.00  0.00    -0.057 A 
HETATM   14  C   UNL     1     -38.174 -51.428  13.550  1.00  0.00     0.048 C 
HETATM   15  C   UNL     1     -40.437 -52.057  12.648  1.00  0.00     0.055 A 
ENDBRANCH   1   7
BRANCH   4  16
HETATM   16  C   UNL     1     -44.833 -52.064  14.709  1.00  0.00     0.086 C 
HETATM   17  C   UNL     1     -44.343 -51.456  16.025  1.00  0.00     0.026 C 
HETATM   18  C   UNL     1     -45.431 -51.481  17.098  1.00  0.00     0.009 C 
HETATM   19  C   UNL     1     -46.733 -50.837  16.593  1.00  0.00     0.009 C 
HETATM   20  C   UNL     1     -47.213 -51.539  15.317  1.00  0.00     0.009 C 
HETATM   21  C   UNL     1     -46.147 -51.447  14.228  1.00  0.00     0.026 C 
BRANCH  19  22
HETATM   22  C   UNL     1     -47.826 -50.845  17.664  1.00  0.00     0.168 C 
BRANCH  22  23
HETATM   23  O   UNL     1     -48.009 -52.158  18.180  1.00  0.00    -0.400 OA
HETATM   24  H   UNL     1     -48.965 -52.298  18.290  1.00  0.00     0.209 HD
ENDBRANCH  22  23
ENDBRANCH  19  22
ENDBRANCH   4  16
TORSDOF 4
ENDMDL
MODEL 5
REMARK VINA RESULT:      -5.7      2.418      2.857
REMARK  4 active torsions:
REMARK  status: ('A' for Active; 'I' for Inactive)
REMARK    1  A    between atoms: C_8  and  N_9 
REMARK       I    between atoms: N_9  and  C_10 
REMARK       I    between atoms: C_10  and  N_12 
REMARK    2  A    between atoms: N_12  and  C_13 
REMARK    3  A    between atoms: C_16  and  C_17 
REMARK    4  A    between atoms: C_17  and  O_18 
ROOT
HETATM    1  N   UNL     1     -43.464 -53.748  13.046  1.00  0.00    -0.295 N 
HETATM    2  C   UNL     1     -42.157 -53.335  13.006  1.00  0.00     0.322 C 
HETATM    3  O   UNL     1     -41.264 -54.154  12.797  1.00  0.00    -0.247 OA
HETATM    4  N   UNL     1     -41.945 -52.008  13.204  1.00  0.00    -0.338 N 
HETATM    5  H   UNL     1     -43.575 -54.740  12.902  1.00  0.00     0.172 HD
HETATM    6  H   UNL     1     -42.797 -51.467  13.331  1.00  0.00     0.164 HD
ENDROOT
BRANCH   1   7
HETATM    7  C   UNL     1     -44.609 -52.964  13.243  1.00  0.00     0.109 A 
HETATM    8  N   UNL     1     -45.394 -52.676  12.181  1.00  0.00    -0.346 N 
HETATM    9  C   UNL     1     -46.502 -51.928  12.363  1.00  0.00     0.007 A 
ATOM     10  HN  UNL     1     -45.151 -53.019  11.252  1.00  0.00     0.167 HD
HETATM   11  C   UNL     1     -46.866 -51.442  13.609  1.00  0.00     0.031 A 
HETATM   12  C   UNL     1     -47.311 -51.651  11.134  1.00  0.00     0.068 C 
HETATM   13  C   UNL     1     -46.061 -51.743  14.712  1.00  0.00    -0.057 A 
HETATM   14  C   UNL     1     -46.418 -51.242  16.080  1.00  0.00     0.048 C 
HETATM   15  C   UNL     1     -44.908 -52.515  14.521  1.00  0.00     0.055 A 
ENDBRANCH   1   7
BRANCH   4  16
HETATM   16  C   UNL     1     -40.693 -51.287  13.195  1.00  0.00     0.086 C 
HETATM   17  C   UNL     1     -40.830 -49.878  12.613  1.00  0.00     0.026 C 
HETATM   18  C   UNL     1     -39.492 -49.138  12.604  1.00  0.00     0.009 C 
HETATM   19  C   UNL     1     -38.837 -49.146  13.996  1.00  0.00     0.009 C 
HETATM   20  C   UNL     1     -38.658 -50.586  14.490  1.00  0.00     0.009 C 
HETATM   21  C   UNL     1     -40.008 -51.295  14.563  1.00  0.00     0.026 C 
BRANCH  19  22
HETATM   22  C   UNL     1     -37.503 -48.397  14.001  1.00  0.00     0.168 C 
BRANCH  22  23
HETATM   23  O   UNL     1     -37.513 -47.366  14.980  1.00  0.00    -0.400 OA
HETATM   24  H   UNL     1     -37.202 -47.753  15.816  1.00  0.00     0.209 HD
ENDBRANCH  22  23
ENDBRANCH  19  22
ENDBRANCH   4  16
TORSDOF 4
ENDMDL
MODEL 6
REMARK VINA RESULT:      -5.6      3.724      5.504
REMARK  4 active torsions:
REMARK  status: ('A' for Active; 'I' for Inactive)
REMARK    1  A    between atoms: C_8  and  N_9 
REMARK       I    between atoms: N_9  and  C_10 
REMARK       I    between atoms: C_10  and  N_12 
REMARK    2  A    between atoms: N_12  and  C_13 
REMARK    3  A    between atoms: C_16  and  C_17 
REMARK    4  A    between atoms: C_17  and  O_18 
ROOT
HETATM    1  N   UNL     1     -41.651 -48.945  10.323  1.00  0.00    -0.295 N 
HETATM    2  C   UNL     1     -41.851 -47.589  10.366  1.00  0.00     0.322 C 
HETATM    3  O   UNL     1     -42.596 -47.056   9.546  1.00  0.00    -0.247 OA
HETATM    4  N   UNL     1     -41.191 -46.920  11.347  1.00  0.00    -0.338 N 
HETATM    5  H   UNL     1     -42.152 -49.400   9.576  1.00  0.00     0.172 HD
HETATM    6  H   UNL     1     -40.642 -47.518  11.959  1.00  0.00     0.164 HD
ENDROOT
BRANCH   1   7
HETATM    7  C   UNL     1     -40.867 -49.727  11.182  1.00  0.00     0.109 A 
HETATM    8  N   UNL     1     -39.525 -49.733  11.020  1.00  0.00    -0.346 N 
HETATM    9  C   UNL     1     -38.763 -50.478  11.847  1.00  0.00     0.007 A 
ATOM     10  HN  UNL     1     -39.093 -49.181  10.279  1.00  0.00     0.167 HD
HETATM   11  C   UNL     1     -39.311 -51.243  12.864  1.00  0.00     0.031 A 
HETATM   12  C   UNL     1     -37.288 -50.432  11.592  1.00  0.00     0.068 C 
HETATM   13  C   UNL     1     -40.698 -51.236  13.042  1.00  0.00    -0.057 A 
HETATM   14  C   UNL     1     -41.334 -52.044  14.133  1.00  0.00     0.048 C 
HETATM   15  C   UNL     1     -41.489 -50.466  12.179  1.00  0.00     0.055 A 
ENDBRANCH   1   7
BRANCH   4  16
HETATM   16  C   UNL     1     -41.225 -45.507  11.651  1.00  0.00     0.086 C 
HETATM   17  C   UNL     1     -41.086 -45.225  13.148  1.00  0.00     0.026 C 
HETATM   18  C   UNL     1     -41.134 -43.726  13.447  1.00  0.00     0.009 C 
HETATM   19  C   UNL     1     -40.113 -42.951  12.598  1.00  0.00     0.009 C 
HETATM   20  C   UNL     1     -40.352 -43.216  11.106  1.00  0.00     0.009 C 
HETATM   21  C   UNL     1     -40.232 -44.708  10.806  1.00  0.00     0.026 C 
BRANCH  19  22
HETATM   22  C   UNL     1     -40.144 -41.451  12.897  1.00  0.00     0.168 C 
BRANCH  22  23
HETATM   23  O   UNL     1     -38.887 -41.016  13.398  1.00  0.00    -0.400 OA
HETATM   24  H   UNL     1     -39.061 -40.372  14.106  1.00  0.00     0.209 HD
ENDBRANCH  22  23
ENDBRANCH  19  22
ENDBRANCH   4  16
TORSDOF 4
ENDMDL
MODEL 7
REMARK VINA RESULT:      -5.6      0.977      2.051
REMARK  4 active torsions:
REMARK  status: ('A' for Active; 'I' for Inactive)
REMARK    1  A    between atoms: C_8  and  N_9 
REMARK       I    between atoms: N_9  and  C_10 
REMARK       I    between atoms: C_10  and  N_12 
REMARK    2  A    between atoms: N_12  and  C_13 
REMARK    3  A    between atoms: C_16  and  C_17 
REMARK    4  A    between atoms: C_17  and  O_18 
ROOT
HETATM    1  N   UNL     1     -42.617 -51.851  13.634  1.00  0.00    -0.295 N 
HETATM    2  C   UNL     1     -41.735 -50.980  13.050  1.00  0.00     0.322 C 
HETATM    3  O   UNL     1     -40.549 -51.287  12.950  1.00  0.00    -0.247 OA
HETATM    4  N   UNL     1     -42.260 -49.806  12.610  1.00  0.00    -0.338 N 
HETATM    5  H   UNL     1     -42.185 -52.705  13.953  1.00  0.00     0.172 HD
HETATM    6  H   UNL     1     -43.264 -49.726  12.743  1.00  0.00     0.164 HD
ENDROOT
BRANCH   1   7
HETATM    7  C   UNL     1     -43.998 -51.689  13.811  1.00  0.00     0.109 A 
HETATM    8  N   UNL     1     -44.470 -51.411  15.046  1.00  0.00    -0.346 N 
HETATM    9  C   UNL     1     -45.798 -51.246  15.224  1.00  0.00     0.007 A 
ATOM     10  HN  UNL     1     -43.830 -51.325  15.836  1.00  0.00     0.167 HD
HETATM   11  C   UNL     1     -46.700 -51.355  14.178  1.00  0.00     0.031 A 
HETATM   12  C   UNL     1     -46.235 -50.946  16.625  1.00  0.00     0.068 C 
HETATM   13  C   UNL     1     -46.217 -51.637  12.896  1.00  0.00    -0.057 A 
HETATM   14  C   UNL     1     -47.155 -51.758  11.734  1.00  0.00     0.048 C 
HETATM   15  C   UNL     1     -44.838 -51.812  12.714  1.00  0.00     0.055 A 
ENDBRANCH   1   7
BRANCH   4  16
HETATM   16  C   UNL     1     -41.587 -48.716  11.941  1.00  0.00     0.086 C 
HETATM   17  C   UNL     1     -42.551 -47.825  11.154  1.00  0.00     0.026 C 
HETATM   18  C   UNL     1     -41.817 -46.686  10.447  1.00  0.00     0.009 C 
HETATM   19  C   UNL     1     -40.938 -45.890  11.427  1.00  0.00     0.009 C 
HETATM   20  C   UNL     1     -39.944 -46.824  12.127  1.00  0.00     0.009 C 
HETATM   21  C   UNL     1     -40.689 -47.918  12.889  1.00  0.00     0.026 C 
BRANCH  19  22
HETATM   22  C   UNL     1     -40.208 -44.739  10.732  1.00  0.00     0.168 C 
BRANCH  22  23
HETATM   23  O   UNL     1     -39.913 -45.077   9.383  1.00  0.00    -0.400 OA
HETATM   24  H   UNL     1     -40.618 -45.670   9.069  1.00  0.00     0.209 HD
ENDBRANCH  22  23
ENDBRANCH  19  22
ENDBRANCH   4  16
TORSDOF 4
ENDMDL
MODEL 8
REMARK VINA RESULT:      -5.6      3.725      4.238
REMARK  4 active torsions:
REMARK  status: ('A' for Active; 'I' for Inactive)
REMARK    1  A    between atoms: C_8  and  N_9 
REMARK       I    between atoms: N_9  and  C_10 
REMARK       I    between atoms: C_10  and  N_12 
REMARK    2  A    between atoms: N_12  and  C_13 
REMARK    3  A    between atoms: C_16  and  C_17 
REMARK    4  A    between atoms: C_17  and  O_18 
ROOT
HETATM    1  N   UNL     1     -44.351 -54.458  15.285  1.00  0.00    -0.295 N 
HETATM    2  C   UNL     1     -43.001 -54.431  15.052  1.00  0.00     0.322 C 
HETATM    3  O   UNL     1     -42.318 -55.423  15.300  1.00  0.00    -0.247 OA
HETATM    4  N   UNL     1     -42.507 -53.271  14.544  1.00  0.00    -0.338 N 
HETATM    5  H   UNL     1     -44.674 -55.332  15.669  1.00  0.00     0.172 HD
HETATM    6  H   UNL     1     -43.213 -52.562  14.369  1.00  0.00     0.164 HD
ENDROOT
BRANCH   1   7
HETATM    7  C   UNL     1     -45.288 -53.443  15.042  1.00  0.00     0.109 A 
HETATM    8  N   UNL     1     -45.569 -53.105  13.765  1.00  0.00    -0.346 N 
HETATM    9  C   UNL     1     -46.474 -52.135  13.522  1.00  0.00     0.007 A 
ATOM     10  HN  UNL     1     -45.101 -53.579  12.991  1.00  0.00     0.167 HD
HETATM   11  C   UNL     1     -47.130 -51.468  14.544  1.00  0.00     0.031 A 
HETATM   12  C   UNL     1     -46.720 -51.819  12.079  1.00  0.00     0.068 C 
HETATM   13  C   UNL     1     -46.848 -51.818  15.868  1.00  0.00    -0.057 A 
HETATM   14  C   UNL     1     -47.538 -51.126  17.006  1.00  0.00     0.048 C 
HETATM   15  C   UNL     1     -45.904 -52.822  16.119  1.00  0.00     0.055 A 
ENDBRANCH   1   7
BRANCH   4  16
HETATM   16  C   UNL     1     -41.143 -52.959  14.179  1.00  0.00     0.086 C 
HETATM   17  C   UNL     1     -41.059 -51.968  13.017  1.00  0.00     0.026 C 
HETATM   18  C   UNL     1     -39.610 -51.660  12.641  1.00  0.00     0.009 C 
HETATM   19  C   UNL     1     -38.795 -51.212  13.866  1.00  0.00     0.009 C 
HETATM   20  C   UNL     1     -38.856 -52.280  14.964  1.00  0.00     0.009 C 
HETATM   21  C   UNL     1     -40.303 -52.529  15.382  1.00  0.00     0.026 C 
BRANCH  19  22
HETATM   22  C   UNL     1     -37.345 -50.890  13.499  1.00  0.00     0.168 C 
BRANCH  22  23
HETATM   23  O   UNL     1     -36.951 -51.612  12.340  1.00  0.00    -0.400 OA
HETATM   24  H   UNL     1     -37.602 -52.322  12.202  1.00  0.00     0.209 HD
ENDBRANCH  22  23
ENDBRANCH  19  22
ENDBRANCH   4  16
TORSDOF 4
ENDMDL
MODEL 9
REMARK VINA RESULT:      -5.6      2.340      2.989
REMARK  4 active torsions:
REMARK  status: ('A' for Active; 'I' for Inactive)
REMARK    1  A    between atoms: C_8  and  N_9 
REMARK       I    between atoms: N_9  and  C_10 
REMARK       I    between atoms: C_10  and  N_12 
REMARK    2  A    between atoms: N_12  and  C_13 
REMARK    3  A    between atoms: C_16  and  C_17 
REMARK    4  A    between atoms: C_17  and  O_18 
ROOT
HETATM    1  N   UNL     1     -43.744 -53.726  13.333  1.00  0.00    -0.295 N 
HETATM    2  C   UNL     1     -42.457 -53.281  13.173  1.00  0.00     0.322 C 
HETATM    3  O   UNL     1     -41.538 -54.092  13.082  1.00  0.00    -0.247 OA
HETATM    4  N   UNL     1     -42.295 -51.933  13.124  1.00  0.00    -0.338 N 
HETATM    5  H   UNL     1     -43.819 -54.730  13.373  1.00  0.00     0.172 HD
HETATM    6  H   UNL     1     -43.163 -51.409  13.182  1.00  0.00     0.164 HD
ENDROOT
BRANCH   1   7
HETATM    7  C   UNL     1     -44.915 -52.960  13.427  1.00  0.00     0.109 A 
HETATM    8  N   UNL     1     -45.568 -52.622  12.293  1.00  0.00    -0.346 N 
HETATM    9  C   UNL     1     -46.700 -51.891  12.376  1.00  0.00     0.007 A 
ATOM     10  HN  UNL     1     -45.210 -52.916  11.384  1.00  0.00     0.167 HD
HETATM   11  C   UNL     1     -47.218 -51.472  13.591  1.00  0.00     0.031 A 
HETATM   12  C   UNL     1     -47.355 -51.556  11.072  1.00  0.00     0.068 C 
HETATM   13  C   UNL     1     -46.550 -51.824  14.767  1.00  0.00    -0.057 A 
HETATM   14  C   UNL     1     -47.077 -51.397  16.104  1.00  0.00     0.048 C 
HETATM   15  C   UNL     1     -45.373 -52.579  14.680  1.00  0.00     0.055 A 
ENDBRANCH   1   7
BRANCH   4  16
HETATM   16  C   UNL     1     -41.073 -51.182  12.941  1.00  0.00     0.086 C 
HETATM   17  C   UNL     1     -39.824 -52.005  13.262  1.00  0.00     0.026 C 
HETATM   18  C   UNL     1     -38.546 -51.189  13.072  1.00  0.00     0.009 C 
HETATM   19  C   UNL     1     -38.492 -50.545  11.676  1.00  0.00     0.009 C 
HETATM   20  C   UNL     1     -39.733 -49.674  11.445  1.00  0.00     0.009 C 
HETATM   21  C   UNL     1     -41.002 -50.513  11.567  1.00  0.00     0.026 C 
BRANCH  19  22
HETATM   22  C   UNL     1     -37.211 -49.735  11.470  1.00  0.00     0.168 C 
BRANCH  22  23
HETATM   23  O   UNL     1     -36.828 -49.746  10.101  1.00  0.00    -0.400 OA
HETATM   24  H   UNL     1     -36.080 -50.362  10.011  1.00  0.00     0.209 HD
ENDBRANCH  22  23
ENDBRANCH  19  22
ENDBRANCH   4  16
TORSDOF 4
ENDMDL
