MODEL 1
REMARK VINA RESULT:      -6.4      0.000      0.000
REMARK  7 active torsions:
REMARK  status: ('A' for Active; 'I' for Inactive)
REMARK    1  A    between atoms: O_1  and  C_2 
REMARK    2  A    between atoms: C_2  and  C_3 
REMARK    3  A    between atoms: C_2  and  C_10 
REMARK    4  A    between atoms: C_3  and  N_4 
REMARK    5  A    between atoms: C_10  and  N_11 
REMARK    6  A    between atoms: C_14  and  C_23 
REMARK    7  A    between atoms: C_16  and  C_19 
ROOT
HETATM    1  N   UNL     1     -41.828 -51.719  12.561  1.00  0.00    -0.254 N 
HETATM    2  N   UNL     1     -43.101 -52.256  12.477  1.00  0.00    -0.299 N 
ATOM      3  HN  UNL     1     -43.875 -51.742  12.056  1.00  0.00     0.187 HD
HETATM    4  C   UNL     1     -43.256 -53.443  12.961  1.00  0.00     0.031 C 
HETATM    5  C   UNL     1     -42.223 -54.214  13.661  1.00  0.00     0.049 C 
HETATM    6  C   UNL     1     -40.980 -53.716  13.638  1.00  0.00     0.119 C 
HETATM    7  C   UNL     1     -40.705 -52.474  12.891  1.00  0.00     0.277 C 
HETATM    8  O   UNL     1     -39.559 -52.147  12.606  1.00  0.00    -0.266 OA
ENDROOT
BRANCH   1   9
HETATM    9  C   UNL     1     -41.657 -50.349  12.088  1.00  0.00     0.186 C 
BRANCH   9  10
HETATM   10  C   UNL     1     -42.855 -49.452  12.438  1.00  0.00     0.166 C 
BRANCH  10  11
HETATM   11  O   UNL     1     -43.132 -49.491  13.847  1.00  0.00    -0.392 OA
HETATM   12  H   UNL     1     -43.174 -48.553  14.122  1.00  0.00     0.210 HD
ENDBRANCH  10  11
BRANCH  10  13
HETATM   13  C   UNL     1     -42.548 -47.989  12.045  1.00  0.00     0.305 C 
BRANCH  13  14
HETATM   14  N   UNL     1     -41.791 -47.860  10.775  1.00  0.00     0.095 N 
HETATM   15  C   UNL     1     -40.873 -46.696  10.750  1.00  0.00     0.298 C 
HETATM   16  C   UNL     1     -41.589 -45.336  10.699  1.00  0.00     0.198 C 
HETATM   17  O   UNL     1     -42.474 -45.255   9.575  1.00  0.00    -0.388 OA
HETATM   18  C   UNL     1     -43.425 -46.327   9.585  1.00  0.00     0.198 C 
HETATM   19  C   UNL     1     -42.726 -47.699   9.629  1.00  0.00     0.298 C 
ENDBRANCH  13  14
ENDBRANCH  10  13
ENDBRANCH   9  10
ENDBRANCH   1   9
BRANCH   4  20
HETATM   20  C   UNL     1     -44.575 -54.100  12.794  1.00  0.00     0.037 A 
HETATM   21  C   UNL     1     -45.743 -53.683  13.658  1.00  0.00     0.011 A 
HETATM   22  C   UNL     1     -45.141 -55.042  13.828  1.00  0.00     0.011 A 
ENDBRANCH   4  20
BRANCH   6  23
HETATM   23  C   UNL     1     -39.852 -54.322  14.379  1.00  0.00     0.422 C 
HETATM   24  F   UNL     1     -39.049 -53.477  15.068  1.00  0.00    -0.166 F 
HETATM   25  F   UNL     1     -40.316 -55.220  15.294  1.00  0.00    -0.166 F 
HETATM   26  F   UNL     1     -39.044 -55.033  13.547  1.00  0.00    -0.166 F 
ENDBRANCH   6  23
TORSDOF 7
ENDMDL
MODEL 2
REMARK VINA RESULT:      -6.2      4.329      7.721
REMARK  7 active torsions:
REMARK  status: ('A' for Active; 'I' for Inactive)
REMARK    1  A    between atoms: O_1  and  C_2 
REMARK    2  A    between atoms: C_2  and  C_3 
REMARK    3  A    between atoms: C_2  and  C_10 
REMARK    4  A    between atoms: C_3  and  N_4 
REMARK    5  A    between atoms: C_10  and  N_11 
REMARK    6  A    between atoms: C_14  and  C_23 
REMARK    7  A    between atoms: C_16  and  C_19 
ROOT
HETATM    1  N   UNL     1     -41.025 -48.580  10.941  1.00  0.00    -0.254 N 
HETATM    2  N   UNL     1     -42.334 -48.565  10.494  1.00  0.00    -0.299 N 
ATOM      3  HN  UNL     1     -42.877 -49.422  10.390  1.00  0.00     0.187 HD
HETATM    4  C   UNL     1     -42.832 -47.407  10.215  1.00  0.00     0.031 C 
HETATM    5  C   UNL     1     -42.097 -46.138  10.250  1.00  0.00     0.049 C 
HETATM    6  C   UNL     1     -40.867 -46.168  10.781  1.00  0.00     0.119 C 
HETATM    7  C   UNL     1     -40.343 -47.431  11.334  1.00  0.00     0.277 C 
HETATM    8  O   UNL     1     -39.365 -47.441  12.074  1.00  0.00    -0.266 OA
ENDROOT
BRANCH   1   9
HETATM    9  C   UNL     1     -40.426 -49.888  11.186  1.00  0.00     0.186 C 
BRANCH   9  10
HETATM   10  C   UNL     1     -41.125 -50.651  12.323  1.00  0.00     0.166 C 
BRANCH  10  11
HETATM   11  O   UNL     1     -42.486 -50.951  11.979  1.00  0.00    -0.392 OA
HETATM   12  H   UNL     1     -42.715 -51.737  12.514  1.00  0.00     0.210 HD
ENDBRANCH  10  11
BRANCH  10  13
HETATM   13  C   UNL     1     -40.388 -51.983  12.592  1.00  0.00     0.305 C 
BRANCH  13  14
HETATM   14  N   UNL     1     -41.130 -52.905  13.487  1.00  0.00     0.095 N 
HETATM   15  C   UNL     1     -41.088 -52.506  14.913  1.00  0.00     0.298 C 
HETATM   16  C   UNL     1     -39.704 -52.660  15.565  1.00  0.00     0.198 C 
HETATM   17  O   UNL     1     -39.217 -54.003  15.444  1.00  0.00    -0.388 OA
HETATM   18  C   UNL     1     -39.180 -54.418  14.073  1.00  0.00     0.198 C 
HETATM   19  C   UNL     1     -40.560 -54.277  13.404  1.00  0.00     0.298 C 
ENDBRANCH  13  14
ENDBRANCH  10  13
ENDBRANCH   9  10
ENDBRANCH   1   9
BRANCH   4  20
HETATM   20  C   UNL     1     -44.264 -47.333   9.837  1.00  0.00     0.037 A 
HETATM   21  C   UNL     1     -44.693 -47.669   8.427  1.00  0.00     0.011 A 
HETATM   22  C   UNL     1     -44.801 -46.261   8.921  1.00  0.00     0.011 A 
ENDBRANCH   4  20
BRANCH   6  23
HETATM   23  C   UNL     1     -39.964 -44.997  10.798  1.00  0.00     0.422 C 
HETATM   24  F   UNL     1     -39.305 -44.750  11.956  1.00  0.00    -0.166 F 
HETATM   25  F   UNL     1     -38.999 -45.131   9.844  1.00  0.00    -0.166 F 
HETATM   26  F   UNL     1     -40.634 -43.856  10.483  1.00  0.00    -0.166 F 
ENDBRANCH   6  23
TORSDOF 7
ENDMDL
MODEL 3
REMARK VINA RESULT:      -6.2      2.948      6.451
REMARK  7 active torsions:
REMARK  status: ('A' for Active; 'I' for Inactive)
REMARK    1  A    between atoms: O_1  and  C_2 
REMARK    2  A    between atoms: C_2  and  C_3 
REMARK    3  A    between atoms: C_2  and  C_10 
REMARK    4  A    between atoms: C_3  and  N_4 
REMARK    5  A    between atoms: C_10  and  N_11 
REMARK    6  A    between atoms: C_14  and  C_23 
REMARK    7  A    between atoms: C_16  and  C_19 
ROOT
HETATM    1  N   UNL     1     -41.457 -50.574  12.746  1.00  0.00    -0.254 N 
HETATM    2  N   UNL     1     -42.120 -49.769  11.836  1.00  0.00    -0.299 N 
ATOM      3  HN  UNL     1     -43.135 -49.790  11.739  1.00  0.00     0.187 HD
HETATM    4  C   UNL     1     -41.384 -48.991  11.116  1.00  0.00     0.031 C 
HETATM    5  C   UNL     1     -39.917 -48.961  11.129  1.00  0.00     0.049 C 
HETATM    6  C   UNL     1     -39.308 -49.672  12.086  1.00  0.00     0.119 C 
HETATM    7  C   UNL     1     -40.118 -50.394  13.085  1.00  0.00     0.277 C 
HETATM    8  O   UNL     1     -39.619 -50.808  14.126  1.00  0.00    -0.266 OA
ENDROOT
BRANCH   1   9
HETATM    9  C   UNL     1     -42.270 -51.514  13.512  1.00  0.00     0.186 C 
BRANCH   9  10
HETATM   10  C   UNL     1     -43.218 -52.331  12.621  1.00  0.00     0.166 C 
BRANCH  10  11
HETATM   11  O   UNL     1     -42.536 -52.818  11.455  1.00  0.00    -0.392 OA
HETATM   12  H   UNL     1     -42.303 -53.744  11.666  1.00  0.00     0.210 HD
ENDBRANCH  10  11
BRANCH  10  13
HETATM   13  C   UNL     1     -43.760 -53.547  13.408  1.00  0.00     0.305 C 
BRANCH  13  14
HETATM   14  N   UNL     1     -45.143 -53.933  13.030  1.00  0.00     0.095 N 
HETATM   15  C   UNL     1     -46.060 -52.778  12.882  1.00  0.00     0.298 C 
HETATM   16  C   UNL     1     -46.400 -52.075  14.206  1.00  0.00     0.198 C 
HETATM   17  O   UNL     1     -46.958 -52.992  15.155  1.00  0.00    -0.388 OA
HETATM   18  C   UNL     1     -46.079 -54.101  15.382  1.00  0.00     0.198 C 
HETATM   19  C   UNL     1     -45.732 -54.824  14.067  1.00  0.00     0.298 C 
ENDBRANCH  13  14
ENDBRANCH  10  13
ENDBRANCH   9  10
ENDBRANCH   1   9
BRANCH   4  20
HETATM   20  C   UNL     1     -42.059 -48.034  10.207  1.00  0.00     0.037 A 
HETATM   21  C   UNL     1     -42.353 -46.626  10.671  1.00  0.00     0.011 A 
HETATM   22  C   UNL     1     -43.481 -47.579  10.427  1.00  0.00     0.011 A 
ENDBRANCH   4  20
BRANCH   6  23
HETATM   23  C   UNL     1     -37.839 -49.823  12.171  1.00  0.00     0.422 C 
HETATM   24  F   UNL     1     -37.367 -51.064  12.442  1.00  0.00    -0.166 F 
HETATM   25  F   UNL     1     -37.258 -49.456  10.993  1.00  0.00    -0.166 F 
HETATM   26  F   UNL     1     -37.313 -48.994  13.112  1.00  0.00    -0.166 F 
ENDBRANCH   6  23
TORSDOF 7
ENDMDL
MODEL 4
REMARK VINA RESULT:      -6.2      1.818      2.353
REMARK  7 active torsions:
REMARK  status: ('A' for Active; 'I' for Inactive)
REMARK    1  A    between atoms: O_1  and  C_2 
REMARK    2  A    between atoms: C_2  and  C_3 
REMARK    3  A    between atoms: C_2  and  C_10 
REMARK    4  A    between atoms: C_3  and  N_4 
REMARK    5  A    between atoms: C_10  and  N_11 
REMARK    6  A    between atoms: C_14  and  C_23 
REMARK    7  A    between atoms: C_16  and  C_19 
ROOT
HETATM    1  N   UNL     1     -42.573 -50.343  12.647  1.00  0.00    -0.254 N 
HETATM    2  N   UNL     1     -43.943 -50.350  12.842  1.00  0.00    -0.299 N 
ATOM      3  HN  UNL     1     -44.509 -49.511  12.719  1.00  0.00     0.187 HD
HETATM    4  C   UNL     1     -44.467 -51.478  13.190  1.00  0.00     0.031 C 
HETATM    5  C   UNL     1     -43.719 -52.708  13.475  1.00  0.00     0.049 C 
HETATM    6  C   UNL     1     -42.412 -52.700  13.181  1.00  0.00     0.119 C 
HETATM    7  C   UNL     1     -41.812 -51.506  12.556  1.00  0.00     0.277 C 
HETATM    8  O   UNL     1     -40.713 -51.558  12.015  1.00  0.00    -0.266 OA
ENDROOT
BRANCH   1   9
HETATM    9  C   UNL     1     -41.959 -49.057  12.329  1.00  0.00     0.186 C 
BRANCH   9  10
HETATM   10  C   UNL     1     -42.366 -48.539  10.940  1.00  0.00     0.166 C 
BRANCH  10  11
HETATM   11  O   UNL     1     -43.766 -48.222  10.900  1.00  0.00    -0.392 OA
HETATM   12  H   UNL     1     -44.104 -48.671  10.100  1.00  0.00     0.210 HD
ENDBRANCH  10  11
BRANCH  10  13
HETATM   13  C   UNL     1     -41.569 -47.258  10.605  1.00  0.00     0.305 C 
BRANCH  13  14
HETATM   14  N   UNL     1     -41.264 -46.417  11.789  1.00  0.00     0.095 N 
HETATM   15  C   UNL     1     -42.276 -45.364  12.043  1.00  0.00     0.298 C 
HETATM   16  C   UNL     1     -42.286 -44.241  10.993  1.00  0.00     0.198 C 
HETATM   17  O   UNL     1     -40.996 -43.627  10.875  1.00  0.00    -0.388 OA
HETATM   18  C   UNL     1     -39.987 -44.597  10.568  1.00  0.00     0.198 C 
HETATM   19  C   UNL     1     -39.957 -45.728  11.613  1.00  0.00     0.298 C 
ENDBRANCH  13  14
ENDBRANCH  10  13
ENDBRANCH   9  10
ENDBRANCH   1   9
BRANCH   4  20
HETATM   20  C   UNL     1     -45.943 -51.559  13.304  1.00  0.00     0.037 A 
HETATM   21  C   UNL     1     -46.614 -51.313  14.637  1.00  0.00     0.011 A 
HETATM   22  C   UNL     1     -46.633 -52.684  14.036  1.00  0.00     0.011 A 
ENDBRANCH   4  20
BRANCH   6  23
HETATM   23  C   UNL     1     -41.504 -53.823  13.500  1.00  0.00     0.422 C 
HETATM   24  F   UNL     1     -40.391 -53.526  14.212  1.00  0.00    -0.166 F 
HETATM   25  F   UNL     1     -42.164 -54.772  14.224  1.00  0.00    -0.166 F 
HETATM   26  F   UNL     1     -41.084 -54.452  12.369  1.00  0.00    -0.166 F 
ENDBRANCH   6  23
TORSDOF 7
ENDMDL
MODEL 5
REMARK VINA RESULT:      -6.0      2.742      4.141
REMARK  7 active torsions:
REMARK  status: ('A' for Active; 'I' for Inactive)
REMARK    1  A    between atoms: O_1  and  C_2 
REMARK    2  A    between atoms: C_2  and  C_3 
REMARK    3  A    between atoms: C_2  and  C_10 
REMARK    4  A    between atoms: C_3  and  N_4 
REMARK    5  A    between atoms: C_10  and  N_11 
REMARK    6  A    between atoms: C_14  and  C_23 
REMARK    7  A    between atoms: C_16  and  C_19 
ROOT
HETATM    1  N   UNL     1     -42.197 -51.151  12.603  1.00  0.00    -0.254 N 
HETATM    2  N   UNL     1     -41.150 -52.037  12.790  1.00  0.00    -0.299 N 
ATOM      3  HN  UNL     1     -40.178 -51.751  12.681  1.00  0.00     0.187 HD
HETATM    4  C   UNL     1     -41.472 -53.245  13.111  1.00  0.00     0.031 C 
HETATM    5  C   UNL     1     -42.842 -53.762  13.203  1.00  0.00     0.049 C 
HETATM    6  C   UNL     1     -43.832 -52.863  13.117  1.00  0.00     0.119 C 
HETATM    7  C   UNL     1     -43.507 -51.430  12.986  1.00  0.00     0.277 C 
HETATM    8  O   UNL     1     -44.353 -50.567  13.193  1.00  0.00    -0.266 OA
ENDROOT
BRANCH   1   9
HETATM    9  C   UNL     1     -41.851 -49.803  12.164  1.00  0.00     0.186 C 
BRANCH   9  10
HETATM   10  C   UNL     1     -40.412 -49.709  11.631  1.00  0.00     0.166 C 
BRANCH  10  11
HETATM   11  O   UNL     1     -40.356 -50.061  10.240  1.00  0.00    -0.392 OA
HETATM   12  H   UNL     1     -40.495 -49.219   9.761  1.00  0.00     0.210 HD
ENDBRANCH  10  11
BRANCH  10  13
HETATM   13  C   UNL     1     -39.887 -48.264  11.788  1.00  0.00     0.305 C 
BRANCH  13  14
HETATM   14  N   UNL     1     -40.964 -47.248  11.900  1.00  0.00     0.095 N 
HETATM   15  C   UNL     1     -41.086 -46.383  10.702  1.00  0.00     0.298 C 
HETATM   16  C   UNL     1     -39.909 -45.413  10.508  1.00  0.00     0.198 C 
HETATM   17  O   UNL     1     -39.721 -44.584  11.662  1.00  0.00    -0.388 OA
HETATM   18  C   UNL     1     -39.535 -45.375  12.843  1.00  0.00     0.198 C 
HETATM   19  C   UNL     1     -40.709 -46.349  13.058  1.00  0.00     0.298 C 
ENDBRANCH  13  14
ENDBRANCH  10  13
ENDBRANCH   9  10
ENDBRANCH   1   9
BRANCH   4  20
HETATM   20  C   UNL     1     -40.382 -54.199  13.429  1.00  0.00     0.037 A 
HETATM   21  C   UNL     1     -40.070 -54.541  14.868  1.00  0.00     0.011 A 
HETATM   22  C   UNL     1     -39.084 -53.757  14.060  1.00  0.00     0.011 A 
ENDBRANCH   4  20
BRANCH   6  23
HETATM   23  C   UNL     1     -45.263 -53.236  13.091  1.00  0.00     0.422 C 
HETATM   24  F   UNL     1     -46.038 -52.755  14.093  1.00  0.00    -0.166 F 
HETATM   25  F   UNL     1     -45.843 -52.802  11.936  1.00  0.00    -0.166 F 
HETATM   26  F   UNL     1     -45.419 -54.587  13.094  1.00  0.00    -0.166 F 
ENDBRANCH   6  23
TORSDOF 7
ENDMDL
MODEL 6
REMARK VINA RESULT:      -5.9      1.942      2.827
REMARK  7 active torsions:
REMARK  status: ('A' for Active; 'I' for Inactive)
REMARK    1  A    between atoms: O_1  and  C_2 
REMARK    2  A    between atoms: C_2  and  C_3 
REMARK    3  A    between atoms: C_2  and  C_10 
REMARK    4  A    between atoms: C_3  and  N_4 
REMARK    5  A    between atoms: C_10  and  N_11 
REMARK    6  A    between atoms: C_14  and  C_23 
REMARK    7  A    between atoms: C_16  and  C_19 
ROOT
HETATM    1  N   UNL     1     -42.211 -52.451  12.649  1.00  0.00    -0.254 N 
HETATM    2  N   UNL     1     -43.362 -51.684  12.694  1.00  0.00    -0.299 N 
ATOM      3  HN  UNL     1     -43.521 -50.914  12.044  1.00  0.00     0.187 HD
HETATM    4  C   UNL     1     -44.222 -51.994  13.605  1.00  0.00     0.031 C 
HETATM    5  C   UNL     1     -44.034 -53.023  14.634  1.00  0.00     0.049 C 
HETATM    6  C   UNL     1     -42.962 -53.815  14.504  1.00  0.00     0.119 C 
HETATM    7  C   UNL     1     -42.071 -53.652  13.340  1.00  0.00     0.277 C 
HETATM    8  O   UNL     1     -41.263 -54.522  13.033  1.00  0.00    -0.266 OA
ENDROOT
BRANCH   1   9
HETATM    9  C   UNL     1     -41.196 -52.062  11.675  1.00  0.00     0.186 C 
BRANCH   9  10
HETATM   10  C   UNL     1     -40.194 -51.046  12.244  1.00  0.00     0.166 C 
BRANCH  10  11
HETATM   11  O   UNL     1     -38.846 -51.520  12.103  1.00  0.00    -0.392 OA
HETATM   12  H   UNL     1     -38.861 -52.435  12.449  1.00  0.00     0.210 HD
ENDBRANCH  10  11
BRANCH  10  13
HETATM   13  C   UNL     1     -40.318 -49.705  11.486  1.00  0.00     0.305 C 
BRANCH  13  14
HETATM   14  N   UNL     1     -41.191 -48.715  12.164  1.00  0.00     0.095 N 
HETATM   15  C   UNL     1     -42.457 -48.449  11.440  1.00  0.00     0.298 C 
HETATM   16  C   UNL     1     -42.272 -47.686  10.118  1.00  0.00     0.198 C 
HETATM   17  O   UNL     1     -41.585 -46.445  10.324  1.00  0.00    -0.388 OA
HETATM   18  C   UNL     1     -40.322 -46.653  10.968  1.00  0.00     0.198 C 
HETATM   19  C   UNL     1     -40.487 -47.411  12.299  1.00  0.00     0.298 C 
ENDBRANCH  13  14
ENDBRANCH  10  13
ENDBRANCH   9  10
ENDBRANCH   1   9
BRANCH   4  20
HETATM   20  C   UNL     1     -45.516 -51.270  13.621  1.00  0.00     0.037 A 
HETATM   21  C   UNL     1     -46.777 -51.980  14.059  1.00  0.00     0.011 A 
HETATM   22  C   UNL     1     -46.616 -51.564  12.631  1.00  0.00     0.011 A 
ENDBRANCH   4  20
BRANCH   6  23
HETATM   23  C   UNL     1     -42.581 -54.832  15.509  1.00  0.00     0.422 C 
HETATM   24  F   UNL     1     -41.263 -54.936  15.804  1.00  0.00    -0.166 F 
HETATM   25  F   UNL     1     -43.206 -54.580  16.695  1.00  0.00    -0.166 F 
HETATM   26  F   UNL     1     -42.993 -56.073  15.134  1.00  0.00    -0.166 F 
ENDBRANCH   6  23
TORSDOF 7
ENDMDL
MODEL 7
REMARK VINA RESULT:      -5.9      3.780      7.344
REMARK  7 active torsions:
REMARK  status: ('A' for Active; 'I' for Inactive)
REMARK    1  A    between atoms: O_1  and  C_2 
REMARK    2  A    between atoms: C_2  and  C_3 
REMARK    3  A    between atoms: C_2  and  C_10 
REMARK    4  A    between atoms: C_3  and  N_4 
REMARK    5  A    between atoms: C_10  and  N_11 
REMARK    6  A    between atoms: C_14  and  C_23 
REMARK    7  A    between atoms: C_16  and  C_19 
ROOT
HETATM    1  N   UNL     1     -42.958 -48.101  11.957  1.00  0.00    -0.254 N 
HETATM    2  N   UNL     1     -43.858 -48.181  10.908  1.00  0.00    -0.299 N 
ATOM      3  HN  UNL     1     -44.619 -48.860  10.902  1.00  0.00     0.187 HD
HETATM    4  C   UNL     1     -43.681 -47.350   9.936  1.00  0.00     0.031 C 
HETATM    5  C   UNL     1     -42.564 -46.404   9.823  1.00  0.00     0.049 C 
HETATM    6  C   UNL     1     -41.770 -46.278  10.894  1.00  0.00     0.119 C 
HETATM    7  C   UNL     1     -42.074 -47.037  12.121  1.00  0.00     0.277 C 
HETATM    8  O   UNL     1     -41.561 -46.740  13.194  1.00  0.00    -0.266 OA
ENDROOT
BRANCH   1   9
HETATM    9  C   UNL     1     -43.100 -49.086  13.025  1.00  0.00     0.186 C 
BRANCH   9  10
HETATM   10  C   UNL     1     -42.413 -50.419  12.690  1.00  0.00     0.166 C 
BRANCH  10  11
HETATM   11  O   UNL     1     -41.769 -50.358  11.409  1.00  0.00    -0.392 OA
HETATM   12  H   UNL     1     -40.830 -50.166  11.606  1.00  0.00     0.210 HD
ENDBRANCH  10  11
BRANCH  10  13
HETATM   13  C   UNL     1     -41.340 -50.738  13.757  1.00  0.00     0.305 C 
BRANCH  13  14
HETATM   14  N   UNL     1     -41.568 -52.021  14.467  1.00  0.00     0.095 N 
HETATM   15  C   UNL     1     -40.375 -52.514  15.195  1.00  0.00     0.298 C 
HETATM   16  C   UNL     1     -39.235 -52.988  14.279  1.00  0.00     0.198 C 
HETATM   17  O   UNL     1     -39.682 -54.007  13.376  1.00  0.00    -0.388 OA
HETATM   18  C   UNL     1     -40.800 -53.558  12.600  1.00  0.00     0.198 C 
HETATM   19  C   UNL     1     -41.956 -53.085  13.501  1.00  0.00     0.298 C 
ENDBRANCH  13  14
ENDBRANCH  10  13
ENDBRANCH   9  10
ENDBRANCH   1   9
BRANCH   4  20
HETATM   20  C   UNL     1     -44.683 -47.326   8.844  1.00  0.00     0.037 A 
HETATM   21  C   UNL     1     -46.014 -46.640   9.053  1.00  0.00     0.011 A 
HETATM   22  C   UNL     1     -45.960 -48.128   8.906  1.00  0.00     0.011 A 
ENDBRANCH   4  20
BRANCH   6  23
HETATM   23  C   UNL     1     -40.549 -45.443  10.902  1.00  0.00     0.422 C 
HETATM   24  F   UNL     1     -40.560 -44.351  11.704  1.00  0.00    -0.166 F 
HETATM   25  F   UNL     1     -39.475 -46.183  11.299  1.00  0.00    -0.166 F 
HETATM   26  F   UNL     1     -40.247 -45.002   9.651  1.00  0.00    -0.166 F 
ENDBRANCH   6  23
TORSDOF 7
ENDMDL
MODEL 8
REMARK VINA RESULT:      -5.9      3.784      7.529
REMARK  7 active torsions:
REMARK  status: ('A' for Active; 'I' for Inactive)
REMARK    1  A    between atoms: O_1  and  C_2 
REMARK    2  A    between atoms: C_2  and  C_3 
REMARK    3  A    between atoms: C_2  and  C_10 
REMARK    4  A    between atoms: C_3  and  N_4 
REMARK    5  A    between atoms: C_10  and  N_11 
REMARK    6  A    between atoms: C_14  and  C_23 
REMARK    7  A    between atoms: C_16  and  C_19 
ROOT
HETATM    1  N   UNL     1     -43.058 -48.276  11.800  1.00  0.00    -0.254 N 
HETATM    2  N   UNL     1     -43.982 -48.257  10.770  1.00  0.00    -0.299 N 
ATOM      3  HN  UNL     1     -44.779 -48.893  10.751  1.00  0.00     0.187 HD
HETATM    4  C   UNL     1     -43.779 -47.391   9.835  1.00  0.00     0.031 C 
HETATM    5  C   UNL     1     -42.615 -46.503   9.739  1.00  0.00     0.049 C 
HETATM    6  C   UNL     1     -41.793 -46.471  10.796  1.00  0.00     0.119 C 
HETATM    7  C   UNL     1     -42.113 -47.271  11.993  1.00  0.00     0.277 C 
HETATM    8  O   UNL     1     -41.561 -47.054  13.066  1.00  0.00    -0.266 OA
ENDROOT
BRANCH   1   9
HETATM    9  C   UNL     1     -43.232 -49.302  12.824  1.00  0.00     0.186 C 
BRANCH   9  10
HETATM   10  C   UNL     1     -42.314 -50.515  12.603  1.00  0.00     0.166 C 
BRANCH  10  11
HETATM   11  O   UNL     1     -40.974 -50.231  13.035  1.00  0.00    -0.392 OA
HETATM   12  H   UNL     1     -40.911 -50.614  13.933  1.00  0.00     0.210 HD
ENDBRANCH  10  11
BRANCH  10  13
HETATM   13  C   UNL     1     -42.838 -51.724  13.412  1.00  0.00     0.305 C 
BRANCH  13  14
HETATM   14  N   UNL     1     -42.837 -52.997  12.649  1.00  0.00     0.095 N 
HETATM   15  C   UNL     1     -44.188 -53.582  12.474  1.00  0.00     0.298 C 
HETATM   16  C   UNL     1     -44.808 -54.123  13.773  1.00  0.00     0.198 C 
HETATM   17  O   UNL     1     -43.957 -55.096  14.391  1.00  0.00    -0.388 OA
HETATM   18  C   UNL     1     -42.651 -54.559  14.639  1.00  0.00     0.198 C 
HETATM   19  C   UNL     1     -42.010 -54.018  13.348  1.00  0.00     0.298 C 
ENDBRANCH  13  14
ENDBRANCH  10  13
ENDBRANCH   9  10
ENDBRANCH   1   9
BRANCH   4  20
HETATM   20  C   UNL     1     -44.802 -47.261   8.769  1.00  0.00     0.037 A 
HETATM   21  C   UNL     1     -46.175 -46.721   9.098  1.00  0.00     0.011 A 
HETATM   22  C   UNL     1     -46.015 -48.156   8.704  1.00  0.00     0.011 A 
ENDBRANCH   4  20
BRANCH   6  23
HETATM   23  C   UNL     1     -40.528 -45.705  10.814  1.00  0.00     0.422 C 
HETATM   24  F   UNL     1     -40.157 -45.110   9.655  1.00  0.00    -0.166 F 
HETATM   25  F   UNL     1     -40.596 -44.704  11.738  1.00  0.00    -0.166 F 
HETATM   26  F   UNL     1     -39.485 -46.488  11.199  1.00  0.00    -0.166 F 
ENDBRANCH   6  23
TORSDOF 7
ENDMDL
MODEL 9
REMARK VINA RESULT:      -5.8      4.413      7.037
REMARK  7 active torsions:
REMARK  status: ('A' for Active; 'I' for Inactive)
REMARK    1  A    between atoms: O_1  and  C_2 
REMARK    2  A    between atoms: C_2  and  C_3 
REMARK    3  A    between atoms: C_2  and  C_10 
REMARK    4  A    between atoms: C_3  and  N_4 
REMARK    5  A    between atoms: C_10  and  N_11 
REMARK    6  A    between atoms: C_14  and  C_23 
REMARK    7  A    between atoms: C_16  and  C_19 
ROOT
HETATM    1  N   UNL     1     -42.995 -48.064  11.939  1.00  0.00    -0.254 N 
HETATM    2  N   UNL     1     -43.913 -48.197  10.912  1.00  0.00    -0.299 N 
ATOM      3  HN  UNL     1     -44.648 -48.904  10.936  1.00  0.00     0.187 HD
HETATM    4  C   UNL     1     -43.789 -47.378   9.922  1.00  0.00     0.031 C 
HETATM    5  C   UNL     1     -42.711 -46.394   9.766  1.00  0.00     0.049 C 
HETATM    6  C   UNL     1     -41.900 -46.218  10.817  1.00  0.00     0.119 C 
HETATM    7  C   UNL     1     -42.148 -46.965  12.064  1.00  0.00     0.277 C 
HETATM    8  O   UNL     1     -41.623 -46.629  13.120  1.00  0.00    -0.266 OA
ENDROOT
BRANCH   1   9
HETATM    9  C   UNL     1     -43.077 -49.033  13.027  1.00  0.00     0.186 C 
BRANCH   9  10
HETATM   10  C   UNL     1     -42.192 -50.266  12.784  1.00  0.00     0.166 C 
BRANCH  10  11
HETATM   11  O   UNL     1     -41.886 -50.412  11.389  1.00  0.00    -0.392 OA
HETATM   12  H   UNL     1     -41.131 -51.033  11.359  1.00  0.00     0.210 HD
ENDBRANCH  10  11
BRANCH  10  13
HETATM   13  C   UNL     1     -40.863 -50.119  13.559  1.00  0.00     0.305 C 
BRANCH  13  14
HETATM   14  N   UNL     1     -39.713 -49.734  12.703  1.00  0.00     0.095 N 
HETATM   15  C   UNL     1     -38.746 -50.835  12.481  1.00  0.00     0.298 C 
HETATM   16  C   UNL     1     -37.945 -51.227  13.734  1.00  0.00     0.198 C 
HETATM   17  O   UNL     1     -37.249 -50.100  14.280  1.00  0.00    -0.388 OA
HETATM   18  C   UNL     1     -38.150 -49.024  14.571  1.00  0.00     0.198 C 
HETATM   19  C   UNL     1     -38.957 -48.613  13.325  1.00  0.00     0.298 C 
ENDBRANCH  13  14
ENDBRANCH  10  13
ENDBRANCH   9  10
ENDBRANCH   1   9
BRANCH   4  20
HETATM   20  C   UNL     1     -44.815 -47.412   8.852  1.00  0.00     0.037 A 
HETATM   21  C   UNL     1     -46.140 -46.713   9.052  1.00  0.00     0.011 A 
HETATM   22  C   UNL     1     -46.091 -48.207   8.986  1.00  0.00     0.011 A 
ENDBRANCH   4  20
BRANCH   6  23
HETATM   23  C   UNL     1     -40.711 -45.338  10.782  1.00  0.00     0.422 C 
HETATM   24  F   UNL     1     -40.750 -44.228  11.558  1.00  0.00    -0.166 F 
HETATM   25  F   UNL     1     -39.603 -46.027  11.179  1.00  0.00    -0.166 F 
HETATM   26  F   UNL     1     -40.447 -44.918   9.516  1.00  0.00    -0.166 F 
ENDBRANCH   6  23
TORSDOF 7
ENDMDL
