MODEL 1
REMARK VINA RESULT:      -6.2      0.000      0.000
REMARK  4 active torsions:
REMARK  status: ('A' for Active; 'I' for Inactive)
REMARK       I    between atoms: N_2  and  C_3 
REMARK    1  A    between atoms: C_3  and  C_5 
REMARK    2  A    between atoms: C_5  and  N_6 
REMARK    3  A    between atoms: C_8  and  S_13 
REMARK    4  A    between atoms: S_13  and  N_16 
ROOT
HETATM    1  N   UNL     1     -40.994 -52.291  12.710  1.00  0.00    -0.314 N 
HETATM    2  C   UNL     1     -42.309 -52.722  12.847  1.00  0.00     0.119 A 
HETATM    3  C   UNL     1     -42.620 -53.764  13.636  1.00  0.00     0.090 A 
HETATM    4  C   UNL     1     -41.569 -54.448  14.362  1.00  0.00     0.032 A 
HETATM    5  C   UNL     1     -40.300 -54.026  14.284  1.00  0.00     0.076 A 
HETATM    6  C   UNL     1     -39.948 -52.852  13.439  1.00  0.00     0.247 A 
HETATM    7  O   UNL     1     -38.796 -52.429  13.425  1.00  0.00    -0.268 OA
ENDROOT
BRANCH   3   8
HETATM    8  S   UNL     1     -44.292 -54.273  13.759  1.00  0.00     0.245 S 
HETATM    9  O   UNL     1     -44.830 -54.434  12.421  1.00  0.00    -0.206 OA
HETATM   10  O   UNL     1     -44.408 -55.362  14.709  1.00  0.00    -0.206 OA
BRANCH   8  11
HETATM   11  N   UNL     1     -45.129 -52.954  14.445  1.00  0.00    -0.206 NA
HETATM   12  C   UNL     1     -45.978 -53.224  15.635  1.00  0.00     0.107 C 
HETATM   13  C   UNL     1     -47.182 -52.291  15.513  1.00  0.00     0.017 C 
HETATM   14  C   UNL     1     -46.823 -51.326  14.398  1.00  0.00     0.017 C 
HETATM   15  C   UNL     1     -45.940 -52.163  13.490  1.00  0.00     0.107 C 
ENDBRANCH   8  11
ENDBRANCH   3   8
BRANCH   1  16
HETATM   16  C   UNL     1     -40.691 -51.195  11.785  1.00  0.00     0.234 C 
BRANCH  16  17
HETATM   17  C   UNL     1     -41.323 -49.873  12.214  1.00  0.00     0.235 C 
HETATM   18  N   UNL     1     -42.249 -49.358  11.333  1.00  0.00    -0.364 N 
HETATM   19  C   UNL     1     -42.957 -48.141  11.628  1.00  0.00     0.149 C 
HETATM   20  H   UNL     1     -42.488 -49.895  10.501  1.00  0.00     0.161 HD
HETATM   21  O   UNL     1     -41.062 -49.353  13.296  1.00  0.00    -0.272 OA
ENDBRANCH  16  17
ENDBRANCH   1  16
TORSDOF 4
ENDMDL
MODEL 2
REMARK VINA RESULT:      -6.0      2.708      4.692
REMARK  4 active torsions:
REMARK  status: ('A' for Active; 'I' for Inactive)
REMARK       I    between atoms: N_2  and  C_3 
REMARK    1  A    between atoms: C_3  and  C_5 
REMARK    2  A    between atoms: C_5  and  N_6 
REMARK    3  A    between atoms: C_8  and  S_13 
REMARK    4  A    between atoms: S_13  and  N_16 
ROOT
HETATM    1  N   UNL     1     -40.418 -54.282  15.258  1.00  0.00    -0.314 N 
HETATM    2  C   UNL     1     -41.771 -54.401  15.555  1.00  0.00     0.119 A 
HETATM    3  C   UNL     1     -42.706 -54.279  14.597  1.00  0.00     0.090 A 
HETATM    4  C   UNL     1     -42.298 -54.025  13.230  1.00  0.00     0.032 A 
HETATM    5  C   UNL     1     -41.000 -53.952  12.907  1.00  0.00     0.076 A 
HETATM    6  C   UNL     1     -39.954 -54.119  13.954  1.00  0.00     0.247 A 
HETATM    7  O   UNL     1     -38.767 -54.118  13.642  1.00  0.00    -0.268 OA
ENDROOT
BRANCH   3   8
HETATM    8  S   UNL     1     -44.397 -54.422  15.032  1.00  0.00     0.245 S 
HETATM    9  O   UNL     1     -45.036 -55.351  14.118  1.00  0.00    -0.206 OA
HETATM   10  O   UNL     1     -44.524 -54.629  16.461  1.00  0.00    -0.206 OA
BRANCH   8  11
HETATM   11  N   UNL     1     -45.090 -52.897  14.710  1.00  0.00    -0.206 NA
HETATM   12  C   UNL     1     -45.593 -52.113  15.867  1.00  0.00     0.107 C 
HETATM   13  C   UNL     1     -46.829 -51.368  15.366  1.00  0.00     0.017 C 
HETATM   14  C   UNL     1     -46.812 -51.543  13.858  1.00  0.00     0.017 C 
HETATM   15  C   UNL     1     -46.153 -52.899  13.677  1.00  0.00     0.107 C 
ENDBRANCH   8  11
ENDBRANCH   3   8
BRANCH   1  16
HETATM   16  C   UNL     1     -39.437 -54.353  16.344  1.00  0.00     0.234 C 
BRANCH  16  17
HETATM   17  C   UNL     1     -38.912 -55.769  16.571  1.00  0.00     0.235 C 
HETATM   18  N   UNL     1     -39.685 -56.549  17.403  1.00  0.00    -0.364 N 
HETATM   19  C   UNL     1     -39.337 -57.919  17.672  1.00  0.00     0.149 C 
HETATM   20  H   UNL     1     -40.558 -56.168  17.765  1.00  0.00     0.161 HD
HETATM   21  O   UNL     1     -37.909 -56.186  15.997  1.00  0.00    -0.272 OA
ENDBRANCH  16  17
ENDBRANCH   1  16
TORSDOF 4
ENDMDL
MODEL 3
REMARK VINA RESULT:      -5.8      1.525      2.135
REMARK  4 active torsions:
REMARK  status: ('A' for Active; 'I' for Inactive)
REMARK       I    between atoms: N_2  and  C_3 
REMARK    1  A    between atoms: C_3  and  C_5 
REMARK    2  A    between atoms: C_5  and  N_6 
REMARK    3  A    between atoms: C_8  and  S_13 
REMARK    4  A    between atoms: S_13  and  N_16 
ROOT
HETATM    1  N   UNL     1     -40.892 -54.047  14.139  1.00  0.00    -0.314 N 
HETATM    2  C   UNL     1     -42.211 -53.996  13.700  1.00  0.00     0.119 A 
HETATM    3  C   UNL     1     -43.196 -54.600  14.386  1.00  0.00     0.090 A 
HETATM    4  C   UNL     1     -42.880 -55.311  15.609  1.00  0.00     0.032 A 
HETATM    5  C   UNL     1     -41.627 -55.337  16.080  1.00  0.00     0.076 A 
HETATM    6  C   UNL     1     -40.532 -54.644  15.345  1.00  0.00     0.247 A 
HETATM    7  O   UNL     1     -39.399 -54.615  15.816  1.00  0.00    -0.268 OA
ENDROOT
BRANCH   3   8
HETATM    8  S   UNL     1     -44.836 -54.516  13.777  1.00  0.00     0.245 S 
HETATM    9  O   UNL     1     -44.808 -53.960  12.437  1.00  0.00    -0.206 OA
HETATM   10  O   UNL     1     -45.514 -55.777  14.011  1.00  0.00    -0.206 OA
BRANCH   8  11
HETATM   11  N   UNL     1     -45.633 -53.362  14.748  1.00  0.00    -0.206 NA
HETATM   12  C   UNL     1     -46.903 -52.790  14.231  1.00  0.00     0.107 C 
HETATM   13  C   UNL     1     -46.930 -51.336  14.699  1.00  0.00     0.017 C 
HETATM   14  C   UNL     1     -45.800 -51.223  15.705  1.00  0.00     0.017 C 
HETATM   15  C   UNL     1     -44.786 -52.233  15.199  1.00  0.00     0.107 C 
ENDBRANCH   8  11
ENDBRANCH   3   8
BRANCH   1  16
HETATM   16  C   UNL     1     -39.841 -53.434  13.323  1.00  0.00     0.234 C 
BRANCH  16  17
HETATM   17  C   UNL     1     -40.043 -51.933  13.133  1.00  0.00     0.235 C 
HETATM   18  N   UNL     1     -40.261 -51.534  11.832  1.00  0.00    -0.364 N 
HETATM   19  C   UNL     1     -40.512 -50.155  11.510  1.00  0.00     0.149 C 
HETATM   20  H   UNL     1     -40.322 -52.245  11.104  1.00  0.00     0.161 HD
HETATM   21  O   UNL     1     -40.072 -51.159  14.087  1.00  0.00    -0.272 OA
ENDBRANCH  16  17
ENDBRANCH   1  16
TORSDOF 4
ENDMDL
MODEL 4
REMARK VINA RESULT:      -5.5      3.160      7.386
REMARK  4 active torsions:
REMARK  status: ('A' for Active; 'I' for Inactive)
REMARK       I    between atoms: N_2  and  C_3 
REMARK    1  A    between atoms: C_3  and  C_5 
REMARK    2  A    between atoms: C_5  and  N_6 
REMARK    3  A    between atoms: C_8  and  S_13 
REMARK    4  A    between atoms: S_13  and  N_16 
ROOT
HETATM    1  N   UNL     1     -46.209 -53.101  17.614  1.00  0.00    -0.314 N 
HETATM    2  C   UNL     1     -45.608 -53.687  16.505  1.00  0.00     0.119 A 
HETATM    3  C   UNL     1     -45.918 -53.295  15.258  1.00  0.00     0.090 A 
HETATM    4  C   UNL     1     -46.890 -52.238  15.064  1.00  0.00     0.032 A 
HETATM    5  C   UNL     1     -47.450 -51.623  16.114  1.00  0.00     0.076 A 
HETATM    6  C   UNL     1     -47.090 -52.027  17.502  1.00  0.00     0.247 A 
HETATM    7  O   UNL     1     -47.554 -51.416  18.459  1.00  0.00    -0.268 OA
ENDROOT
BRANCH   3   8
HETATM    8  S   UNL     1     -45.142 -54.081  13.898  1.00  0.00     0.245 S 
HETATM    9  O   UNL     1     -45.228 -55.518  14.079  1.00  0.00    -0.206 OA
HETATM   10  O   UNL     1     -45.606 -53.491  12.657  1.00  0.00    -0.206 OA
BRANCH   8  11
HETATM   11  N   UNL     1     -43.486 -53.691  14.020  1.00  0.00    -0.206 NA
HETATM   12  C   UNL     1     -42.801 -53.215  12.790  1.00  0.00     0.107 C 
HETATM   13  C   UNL     1     -41.377 -53.763  12.864  1.00  0.00     0.017 C 
HETATM   14  C   UNL     1     -41.230 -54.296  14.277  1.00  0.00     0.017 C 
HETATM   15  C   UNL     1     -42.638 -54.746  14.623  1.00  0.00     0.107 C 
ENDBRANCH   8  11
ENDBRANCH   3   8
BRANCH   1  16
HETATM   16  C   UNL     1     -45.892 -53.606  18.952  1.00  0.00     0.234 C 
BRANCH  16  17
HETATM   17  C   UNL     1     -46.826 -54.732  19.392  1.00  0.00     0.235 C 
HETATM   18  N   UNL     1     -47.906 -54.331  20.147  1.00  0.00    -0.364 N 
HETATM   19  C   UNL     1     -48.893 -55.278  20.593  1.00  0.00     0.149 C 
HETATM   20  H   UNL     1     -48.043 -53.336  20.321  1.00  0.00     0.161 HD
HETATM   21  O   UNL     1     -46.648 -55.894  19.036  1.00  0.00    -0.272 OA
ENDBRANCH  16  17
ENDBRANCH   1  16
TORSDOF 4
ENDMDL
MODEL 5
REMARK VINA RESULT:      -5.4      2.603      5.723
REMARK  4 active torsions:
REMARK  status: ('A' for Active; 'I' for Inactive)
REMARK       I    between atoms: N_2  and  C_3 
REMARK    1  A    between atoms: C_3  and  C_5 
REMARK    2  A    between atoms: C_5  and  N_6 
REMARK    3  A    between atoms: C_8  and  S_13 
REMARK    4  A    between atoms: S_13  and  N_16 
ROOT
HETATM    1  N   UNL     1     -43.943 -53.128  14.556  1.00  0.00    -0.314 N 
HETATM    2  C   UNL     1     -42.731 -52.836  13.939  1.00  0.00     0.119 A 
HETATM    3  C   UNL     1     -41.628 -53.558  14.198  1.00  0.00     0.090 A 
HETATM    4  C   UNL     1     -41.702 -54.664  15.132  1.00  0.00     0.032 A 
HETATM    5  C   UNL     1     -42.866 -54.996  15.705  1.00  0.00     0.076 A 
HETATM    6  C   UNL     1     -44.103 -54.224  15.400  1.00  0.00     0.247 A 
HETATM    7  O   UNL     1     -45.178 -54.575  15.876  1.00  0.00    -0.268 OA
ENDROOT
BRANCH   3   8
HETATM    8  S   UNL     1     -40.125 -53.135  13.404  1.00  0.00     0.245 S 
HETATM    9  O   UNL     1     -39.164 -54.200  13.627  1.00  0.00    -0.206 OA
HETATM   10  O   UNL     1     -40.391 -52.688  12.050  1.00  0.00    -0.206 OA
BRANCH   8  11
HETATM   11  N   UNL     1     -39.523 -51.777  14.243  1.00  0.00    -0.206 NA
HETATM   12  C   UNL     1     -38.521 -50.929  13.547  1.00  0.00     0.107 C 
HETATM   13  C   UNL     1     -37.562 -50.437  14.629  1.00  0.00     0.017 C 
HETATM   14  C   UNL     1     -38.228 -50.800  15.943  1.00  0.00     0.017 C 
HETATM   15  C   UNL     1     -39.000 -52.062  15.600  1.00  0.00     0.107 C 
ENDBRANCH   8  11
ENDBRANCH   3   8
BRANCH   1  16
HETATM   16  C   UNL     1     -45.104 -52.272  14.297  1.00  0.00     0.234 C 
BRANCH  16  17
HETATM   17  C   UNL     1     -45.760 -52.562  12.948  1.00  0.00     0.235 C 
HETATM   18  N   UNL     1     -46.521 -51.534  12.438  1.00  0.00    -0.364 N 
HETATM   19  C   UNL     1     -47.161 -51.649  11.155  1.00  0.00     0.149 C 
HETATM   20  H   UNL     1     -46.561 -50.652  12.947  1.00  0.00     0.161 HD
HETATM   21  O   UNL     1     -45.560 -53.615  12.346  1.00  0.00    -0.272 OA
ENDBRANCH  16  17
ENDBRANCH   1  16
TORSDOF 4
ENDMDL
MODEL 6
REMARK VINA RESULT:      -5.3      3.394      5.832
REMARK  4 active torsions:
REMARK  status: ('A' for Active; 'I' for Inactive)
REMARK       I    between atoms: N_2  and  C_3 
REMARK    1  A    between atoms: C_3  and  C_5 
REMARK    2  A    between atoms: C_5  and  N_6 
REMARK    3  A    between atoms: C_8  and  S_13 
REMARK    4  A    between atoms: S_13  and  N_16 
ROOT
HETATM    1  N   UNL     1     -45.691 -53.688  14.244  1.00  0.00    -0.314 N 
HETATM    2  C   UNL     1     -46.063 -53.330  15.536  1.00  0.00     0.119 A 
HETATM    3  C   UNL     1     -46.595 -52.123  15.796  1.00  0.00     0.090 A 
HETATM    4  C   UNL     1     -46.791 -51.182  14.712  1.00  0.00     0.032 A 
HETATM    5  C   UNL     1     -46.486 -51.517  13.452  1.00  0.00     0.076 A 
HETATM    6  C   UNL     1     -45.925 -52.863  13.146  1.00  0.00     0.247 A 
HETATM    7  O   UNL     1     -45.711 -53.189  11.983  1.00  0.00    -0.268 OA
ENDROOT
BRANCH   3   8
HETATM    8  S   UNL     1     -47.030 -51.720  17.444  1.00  0.00     0.245 S 
HETATM    9  O   UNL     1     -48.477 -51.700  17.553  1.00  0.00    -0.206 OA
HETATM   10  O   UNL     1     -46.257 -52.526  18.370  1.00  0.00    -0.206 OA
BRANCH   8  11
HETATM   11  N   UNL     1     -46.519 -50.109  17.678  1.00  0.00    -0.206 NA
HETATM   12  C   UNL     1     -45.084 -49.881  17.987  1.00  0.00     0.107 C 
HETATM   13  C   UNL     1     -45.044 -48.697  18.950  1.00  0.00     0.017 C 
HETATM   14  C   UNL     1     -46.448 -48.120  18.928  1.00  0.00     0.017 C 
HETATM   15  C   UNL     1     -47.315 -49.338  18.662  1.00  0.00     0.107 C 
ENDBRANCH   8  11
ENDBRANCH   3   8
BRANCH   1  16
HETATM   16  C   UNL     1     -45.051 -54.986  14.017  1.00  0.00     0.234 C 
BRANCH  16  17
HETATM   17  C   UNL     1     -43.634 -55.051  14.582  1.00  0.00     0.235 C 
HETATM   18  N   UNL     1     -42.701 -54.298  13.902  1.00  0.00    -0.364 N 
HETATM   19  C   UNL     1     -41.335 -54.228  14.348  1.00  0.00     0.149 C 
HETATM   20  H   UNL     1     -43.009 -53.722  13.120  1.00  0.00     0.161 HD
HETATM   21  O   UNL     1     -43.374 -55.680  15.605  1.00  0.00    -0.272 OA
ENDBRANCH  16  17
ENDBRANCH   1  16
TORSDOF 4
ENDMDL
MODEL 7
REMARK VINA RESULT:      -5.3      1.628      3.669
REMARK  4 active torsions:
REMARK  status: ('A' for Active; 'I' for Inactive)
REMARK       I    between atoms: N_2  and  C_3 
REMARK    1  A    between atoms: C_3  and  C_5 
REMARK    2  A    between atoms: C_5  and  N_6 
REMARK    3  A    between atoms: C_8  and  S_13 
REMARK    4  A    between atoms: S_13  and  N_16 
ROOT
HETATM    1  N   UNL     1     -41.560 -52.041  13.083  1.00  0.00    -0.314 N 
HETATM    2  C   UNL     1     -42.739 -52.768  12.958  1.00  0.00     0.119 A 
HETATM    3  C   UNL     1     -43.938 -52.172  13.075  1.00  0.00     0.090 A 
HETATM    4  C   UNL     1     -44.005 -50.746  13.328  1.00  0.00     0.032 A 
HETATM    5  C   UNL     1     -42.886 -50.014  13.406  1.00  0.00     0.076 A 
HETATM    6  C   UNL     1     -41.552 -50.657  13.246  1.00  0.00     0.247 A 
HETATM    7  O   UNL     1     -40.535 -49.971  13.252  1.00  0.00    -0.268 OA
ENDROOT
BRANCH   3   8
HETATM    8  S   UNL     1     -45.391 -53.140  12.924  1.00  0.00     0.245 S 
HETATM    9  O   UNL     1     -46.225 -52.569  11.884  1.00  0.00    -0.206 OA
HETATM   10  O   UNL     1     -45.042 -54.547  12.866  1.00  0.00    -0.206 OA
BRANCH   8  11
HETATM   11  N   UNL     1     -46.246 -52.923  14.384  1.00  0.00    -0.206 NA
HETATM   12  C   UNL     1     -46.914 -51.613  14.600  1.00  0.00     0.107 C 
HETATM   13  C   UNL     1     -46.805 -51.327  16.097  1.00  0.00     0.017 C 
HETATM   14  C   UNL     1     -46.324 -52.628  16.714  1.00  0.00     0.017 C 
HETATM   15  C   UNL     1     -45.478 -53.239  15.612  1.00  0.00     0.107 C 
ENDBRANCH   8  11
ENDBRANCH   3   8
BRANCH   1  16
HETATM   16  C   UNL     1     -40.275 -52.742  13.018  1.00  0.00     0.234 C 
BRANCH  16  17
HETATM   17  C   UNL     1     -39.907 -53.419  14.336  1.00  0.00     0.235 C 
HETATM   18  N   UNL     1     -39.121 -54.543  14.214  1.00  0.00    -0.364 N 
HETATM   19  C   UNL     1     -38.659 -55.257  15.375  1.00  0.00     0.149 C 
HETATM   20  H   UNL     1     -38.800 -54.821  13.287  1.00  0.00     0.161 HD
HETATM   21  O   UNL     1     -40.240 -52.945  15.420  1.00  0.00    -0.272 OA
ENDBRANCH  16  17
ENDBRANCH   1  16
TORSDOF 4
ENDMDL
MODEL 8
REMARK VINA RESULT:      -5.1      2.495      5.902
REMARK  4 active torsions:
REMARK  status: ('A' for Active; 'I' for Inactive)
REMARK       I    between atoms: N_2  and  C_3 
REMARK    1  A    between atoms: C_3  and  C_5 
REMARK    2  A    between atoms: C_5  and  N_6 
REMARK    3  A    between atoms: C_8  and  S_13 
REMARK    4  A    between atoms: S_13  and  N_16 
ROOT
HETATM    1  N   UNL     1     -43.439 -52.013  13.395  1.00  0.00    -0.314 N 
HETATM    2  C   UNL     1     -42.121 -51.762  13.761  1.00  0.00     0.119 A 
HETATM    3  C   UNL     1     -41.204 -52.745  13.773  1.00  0.00     0.090 A 
HETATM    4  C   UNL     1     -41.593 -54.088  13.391  1.00  0.00     0.032 A 
HETATM    5  C   UNL     1     -42.844 -54.348  12.989  1.00  0.00     0.076 A 
HETATM    6  C   UNL     1     -43.860 -53.261  12.941  1.00  0.00     0.247 A 
HETATM    7  O   UNL     1     -44.985 -53.492  12.509  1.00  0.00    -0.268 OA
ENDROOT
BRANCH   3   8
HETATM    8  S   UNL     1     -39.562 -52.374  14.258  1.00  0.00     0.245 S 
HETATM    9  O   UNL     1     -39.531 -52.194  15.698  1.00  0.00    -0.206 OA
HETATM   10  O   UNL     1     -38.642 -53.307  13.638  1.00  0.00    -0.206 OA
BRANCH   8  11
HETATM   11  N   UNL     1     -39.213 -50.846  13.587  1.00  0.00    -0.206 NA
HETATM   12  C   UNL     1     -38.875 -50.792  12.141  1.00  0.00     0.107 C 
HETATM   13  C   UNL     1     -37.831 -49.686  11.994  1.00  0.00     0.017 C 
HETATM   14  C   UNL     1     -37.829 -48.964  13.329  1.00  0.00     0.017 C 
HETATM   15  C   UNL     1     -38.186 -50.063  14.314  1.00  0.00     0.107 C 
ENDBRANCH   8  11
ENDBRANCH   3   8
BRANCH   1  16
HETATM   16  C   UNL     1     -44.421 -50.928  13.463  1.00  0.00     0.234 C 
BRANCH  16  17
HETATM   17  C   UNL     1     -45.199 -50.920  14.777  1.00  0.00     0.235 C 
HETATM   18  N   UNL     1     -46.442 -51.511  14.720  1.00  0.00    -0.364 N 
HETATM   19  C   UNL     1     -47.269 -51.617  15.894  1.00  0.00     0.149 C 
HETATM   20  H   UNL     1     -46.740 -51.949  13.850  1.00  0.00     0.161 HD
HETATM   21  O   UNL     1     -44.713 -50.474  15.813  1.00  0.00    -0.272 OA
ENDBRANCH  16  17
ENDBRANCH   1  16
TORSDOF 4
ENDMDL
MODEL 9
REMARK VINA RESULT:      -5.0      2.176      5.589
REMARK  4 active torsions:
REMARK  status: ('A' for Active; 'I' for Inactive)
REMARK       I    between atoms: N_2  and  C_3 
REMARK    1  A    between atoms: C_3  and  C_5 
REMARK    2  A    between atoms: C_5  and  N_6 
REMARK    3  A    between atoms: C_8  and  S_13 
REMARK    4  A    between atoms: S_13  and  N_16 
ROOT
HETATM    1  N   UNL     1     -44.043 -53.621  13.375  1.00  0.00    -0.314 N 
HETATM    2  C   UNL     1     -43.011 -52.788  12.957  1.00  0.00     0.119 A 
HETATM    3  C   UNL     1     -41.771 -52.909  13.462  1.00  0.00     0.090 A 
HETATM    4  C   UNL     1     -41.502 -53.932  14.453  1.00  0.00     0.032 A 
HETATM    5  C   UNL     1     -42.465 -54.778  14.840  1.00  0.00     0.076 A 
HETATM    6  C   UNL     1     -43.835 -54.674  14.263  1.00  0.00     0.247 A 
HETATM    7  O   UNL     1     -44.694 -55.494  14.571  1.00  0.00    -0.268 OA
ENDROOT
BRANCH   3   8
HETATM    8  S   UNL     1     -40.514 -51.821  12.911  1.00  0.00     0.245 S 
HETATM    9  O   UNL     1     -39.235 -52.499  13.008  1.00  0.00    -0.206 OA
HETATM   10  O   UNL     1     -40.904 -51.214  11.653  1.00  0.00    -0.206 OA
BRANCH   8  11
HETATM   11  N   UNL     1     -40.462 -50.555  14.053  1.00  0.00    -0.206 NA
HETATM   12  C   UNL     1     -40.767 -49.183  13.571  1.00  0.00     0.107 C 
HETATM   13  C   UNL     1     -39.870 -48.245  14.377  1.00  0.00     0.017 C 
HETATM   14  C   UNL     1     -39.293 -49.106  15.486  1.00  0.00     0.017 C 
HETATM   15  C   UNL     1     -39.214 -50.481  14.848  1.00  0.00     0.107 C 
ENDBRANCH   8  11
ENDBRANCH   3   8
BRANCH   1  16
HETATM   16  C   UNL     1     -45.394 -53.408  12.850  1.00  0.00     0.234 C 
BRANCH  16  17
HETATM   17  C   UNL     1     -46.186 -52.387  13.662  1.00  0.00     0.235 C 
HETATM   18  N   UNL     1     -46.565 -52.809  14.918  1.00  0.00    -0.364 N 
HETATM   19  C   UNL     1     -47.278 -51.935  15.811  1.00  0.00     0.149 C 
HETATM   20  H   UNL     1     -46.262 -53.727  15.240  1.00  0.00     0.161 HD
HETATM   21  O   UNL     1     -46.406 -51.254  13.239  1.00  0.00    -0.272 OA
ENDBRANCH  16  17
ENDBRANCH   1  16
TORSDOF 4
ENDMDL
