MODEL 1
REMARK VINA RESULT:      -6.6      0.000      0.000
REMARK  4 active torsions:
REMARK  status: ('A' for Active; 'I' for Inactive)
REMARK    1  A    between atoms: C_2  and  N_3 
REMARK    2  A    between atoms: C_7  and  C_8 
REMARK    3  A    between atoms: C_8  and  N_9 
REMARK       I    between atoms: N_9  and  C_10 
REMARK       I    between atoms: C_10  and  N_12 
REMARK    4  A    between atoms: N_12  and  C_13 
ROOT
HETATM    1  N   UNL     1     -41.120 -52.969  11.840  1.00  0.00    -0.342 N 
HETATM    2  C   UNL     1     -40.955 -51.660  12.173  1.00  0.00     0.321 C 
HETATM    3  O   UNL     1     -40.973 -51.197  13.295  1.00  0.00    -0.247 OA
HETATM    4  N   UNL     1     -40.809 -50.852  11.012  1.00  0.00    -0.293 N 
HETATM    5  H   UNL     1     -41.007 -53.293  10.893  1.00  0.00     0.164 HD
HETATM    6  H   UNL     1     -40.943 -51.269  10.106  1.00  0.00     0.172 HD
ENDROOT
BRANCH   1   7
HETATM    7  C   UNL     1     -41.383 -53.960  12.872  1.00  0.00     0.130 C 
BRANCH   7   8
HETATM    8  C   UNL     1     -42.751 -53.759  13.543  1.00  0.00     0.032 C 
HETATM    9  C   UNL     1     -43.005 -54.810  14.636  1.00  0.00     0.010 C 
HETATM   10  C   UNL     1     -44.421 -54.686  15.187  1.00  0.00     0.031 C 
HETATM   11  C   UNL     1     -45.454 -54.744  14.058  1.00  0.00     0.272 C 
HETATM   12  N   UNL     1     -45.229 -53.738  13.007  1.00  0.00     0.088 N 
HETATM   13  C   UNL     1     -43.863 -53.827  12.478  1.00  0.00     0.278 C 
BRANCH  12  14
HETATM   14  C   UNL     1     -45.669 -52.406  13.442  1.00  0.00     0.268 C 
HETATM   15  C   UNL     1     -46.591 -51.683  12.465  1.00  0.00     0.037 C 
ENDBRANCH  12  14
ENDBRANCH   7   8
ENDBRANCH   1   7
BRANCH   4  16
HETATM   16  C   UNL     1     -40.596 -49.478  11.088  1.00  0.00     0.127 A 
HETATM   17  C   UNL     1     -41.497 -48.468  10.832  1.00  0.00     0.076 A 
HETATM   18  C   UNL     1     -40.781 -47.265  10.997  1.00  0.00     0.025 A 
HETATM   19  C   UNL     1     -41.276 -45.884  10.776  1.00  0.00     0.070 C 
HETATM   20  N   UNL     1     -39.521 -47.491  11.383  1.00  0.00    -0.302 N 
HETATM   21  N   UNL     1     -39.431 -48.834  11.438  1.00  0.00    -0.281 N 
ATOM     22  HN  UNL     1     -38.795 -46.805  11.590  1.00  0.00     0.186 HD
HETATM   23  C   UNL     1     -38.160 -49.438  11.750  1.00  0.00     0.179 C 
ENDBRANCH   4  16
TORSDOF 4
ENDMDL
MODEL 2
REMARK VINA RESULT:      -6.4      1.803      6.954
REMARK  4 active torsions:
REMARK  status: ('A' for Active; 'I' for Inactive)
REMARK    1  A    between atoms: C_2  and  N_3 
REMARK    2  A    between atoms: C_7  and  C_8 
REMARK    3  A    between atoms: C_8  and  N_9 
REMARK       I    between atoms: N_9  and  C_10 
REMARK       I    between atoms: C_10  and  N_12 
REMARK    4  A    between atoms: N_12  and  C_13 
ROOT
HETATM    1  N   UNL     1     -40.963 -50.474  11.211  1.00  0.00    -0.342 N 
HETATM    2  C   UNL     1     -41.622 -51.148  12.192  1.00  0.00     0.321 C 
HETATM    3  O   UNL     1     -41.785 -50.774  13.335  1.00  0.00    -0.247 OA
HETATM    4  N   UNL     1     -42.070 -52.416  11.728  1.00  0.00    -0.293 N 
HETATM    5  H   UNL     1     -40.943 -50.807  10.261  1.00  0.00     0.164 HD
HETATM    6  H   UNL     1     -41.786 -52.731  10.816  1.00  0.00     0.172 HD
ENDROOT
BRANCH   1   7
HETATM    7  C   UNL     1     -40.338 -49.192  11.497  1.00  0.00     0.130 C 
BRANCH   7   8
HETATM    8  C   UNL     1     -40.991 -48.036  10.723  1.00  0.00     0.032 C 
HETATM    9  C   UNL     1     -40.294 -46.696  11.012  1.00  0.00     0.010 C 
HETATM   10  C   UNL     1     -41.044 -45.544  10.353  1.00  0.00     0.031 C 
HETATM   11  C   UNL     1     -42.519 -45.545  10.764  1.00  0.00     0.272 C 
HETATM   12  N   UNL     1     -43.202 -46.819  10.486  1.00  0.00     0.088 N 
HETATM   13  C   UNL     1     -42.485 -47.944  11.094  1.00  0.00     0.278 C 
BRANCH  12  14
HETATM   14  C   UNL     1     -43.523 -46.951   9.059  1.00  0.00     0.268 C 
HETATM   15  C   UNL     1     -44.928 -47.464   8.760  1.00  0.00     0.037 C 
ENDBRANCH  12  14
ENDBRANCH   7   8
ENDBRANCH   1   7
BRANCH   4  16
HETATM   16  C   UNL     1     -42.798 -53.285  12.537  1.00  0.00     0.127 A 
HETATM   17  C   UNL     1     -44.156 -53.512  12.525  1.00  0.00     0.076 A 
HETATM   18  C   UNL     1     -44.400 -54.432  13.565  1.00  0.00     0.025 A 
HETATM   19  C   UNL     1     -45.712 -54.957  14.014  1.00  0.00     0.070 C 
HETATM   20  N   UNL     1     -43.266 -54.806  14.168  1.00  0.00    -0.302 N 
HETATM   21  N   UNL     1     -42.309 -54.105  13.528  1.00  0.00    -0.281 N 
ATOM     22  HN  UNL     1     -43.151 -55.468  14.935  1.00  0.00     0.186 HD
HETATM   23  C   UNL     1     -40.945 -54.207  13.984  1.00  0.00     0.179 C 
ENDBRANCH   4  16
TORSDOF 4
ENDMDL
MODEL 3
REMARK VINA RESULT:      -6.2      1.372      1.943
REMARK  4 active torsions:
REMARK  status: ('A' for Active; 'I' for Inactive)
REMARK    1  A    between atoms: C_2  and  N_3 
REMARK    2  A    between atoms: C_7  and  C_8 
REMARK    3  A    between atoms: C_8  and  N_9 
REMARK       I    between atoms: N_9  and  C_10 
REMARK       I    between atoms: C_10  and  N_12 
REMARK    4  A    between atoms: N_12  and  C_13 
ROOT
HETATM    1  N   UNL     1     -41.154 -51.785  11.468  1.00  0.00    -0.342 N 
HETATM    2  C   UNL     1     -41.034 -50.500  11.898  1.00  0.00     0.321 C 
HETATM    3  O   UNL     1     -40.797 -50.143  13.034  1.00  0.00    -0.247 OA
HETATM    4  N   UNL     1     -41.283 -49.582  10.841  1.00  0.00    -0.293 N 
HETATM    5  H   UNL     1     -41.266 -52.008  10.492  1.00  0.00     0.164 HD
HETATM    6  H   UNL     1     -41.612 -49.931   9.957  1.00  0.00     0.172 HD
ENDROOT
BRANCH   1   7
HETATM    7  C   UNL     1     -41.033 -52.888  12.409  1.00  0.00     0.130 C 
BRANCH   7   8
HETATM    8  C   UNL     1     -42.327 -53.123  13.204  1.00  0.00     0.032 C 
HETATM    9  C   UNL     1     -42.257 -54.421  14.027  1.00  0.00     0.010 C 
HETATM   10  C   UNL     1     -43.598 -54.713  14.690  1.00  0.00     0.031 C 
HETATM   11  C   UNL     1     -44.727 -54.728  13.657  1.00  0.00     0.272 C 
HETATM   12  N   UNL     1     -44.813 -53.489  12.866  1.00  0.00     0.088 N 
HETATM   13  C   UNL     1     -43.525 -53.179  12.235  1.00  0.00     0.278 C 
BRANCH  12  14
HETATM   14  C   UNL     1     -45.434 -52.405  13.638  1.00  0.00     0.268 C 
HETATM   15  C   UNL     1     -46.464 -51.580  12.875  1.00  0.00     0.037 C 
ENDBRANCH  12  14
ENDBRANCH   7   8
ENDBRANCH   1   7
BRANCH   4  16
HETATM   16  C   UNL     1     -41.193 -48.203  11.022  1.00  0.00     0.127 A 
HETATM   17  C   UNL     1     -40.067 -47.460  11.297  1.00  0.00     0.076 A 
HETATM   18  C   UNL     1     -40.512 -46.130  11.441  1.00  0.00     0.025 A 
HETATM   19  C   UNL     1     -39.700 -44.943  11.804  1.00  0.00     0.070 C 
HETATM   20  N   UNL     1     -41.827 -46.024  11.222  1.00  0.00    -0.302 N 
HETATM   21  N   UNL     1     -42.218 -47.288  10.965  1.00  0.00    -0.281 N 
ATOM     22  HN  UNL     1     -42.401 -45.182  11.243  1.00  0.00     0.186 HD
HETATM   23  C   UNL     1     -43.619 -47.558  10.759  1.00  0.00     0.179 C 
ENDBRANCH   4  16
TORSDOF 4
ENDMDL
MODEL 4
REMARK VINA RESULT:      -6.1      1.541      7.198
REMARK  4 active torsions:
REMARK  status: ('A' for Active; 'I' for Inactive)
REMARK    1  A    between atoms: C_2  and  N_3 
REMARK    2  A    between atoms: C_7  and  C_8 
REMARK    3  A    between atoms: C_8  and  N_9 
REMARK       I    between atoms: N_9  and  C_10 
REMARK       I    between atoms: C_10  and  N_12 
REMARK    4  A    between atoms: N_12  and  C_13 
ROOT
HETATM    1  N   UNL     1     -40.782 -50.533  11.094  1.00  0.00    -0.342 N 
HETATM    2  C   UNL     1     -41.407 -51.202  12.100  1.00  0.00     0.321 C 
HETATM    3  O   UNL     1     -41.433 -50.879  13.269  1.00  0.00    -0.247 OA
HETATM    4  N   UNL     1     -42.005 -52.401  11.622  1.00  0.00    -0.293 N 
HETATM    5  H   UNL     1     -40.876 -50.815  10.131  1.00  0.00     0.164 HD
HETATM    6  H   UNL     1     -41.832 -52.689  10.673  1.00  0.00     0.172 HD
ENDROOT
BRANCH   1   7
HETATM    7  C   UNL     1     -40.022 -49.325  11.378  1.00  0.00     0.130 C 
BRANCH   7   8
HETATM    8  C   UNL     1     -40.912 -48.074  11.437  1.00  0.00     0.032 C 
HETATM    9  C   UNL     1     -42.022 -48.119  10.373  1.00  0.00     0.010 C 
HETATM   10  C   UNL     1     -42.801 -46.808  10.350  1.00  0.00     0.031 C 
HETATM   11  C   UNL     1     -41.859 -45.616  10.171  1.00  0.00     0.272 C 
HETATM   12  N   UNL     1     -40.794 -45.554  11.187  1.00  0.00     0.088 N 
HETATM   13  C   UNL     1     -40.046 -46.814  11.241  1.00  0.00     0.278 C 
BRANCH  12  14
HETATM   14  C   UNL     1     -41.309 -45.051  12.468  1.00  0.00     0.268 C 
HETATM   15  C   UNL     1     -40.298 -45.049  13.610  1.00  0.00     0.037 C 
ENDBRANCH  12  14
ENDBRANCH   7   8
ENDBRANCH   1   7
BRANCH   4  16
HETATM   16  C   UNL     1     -42.731 -53.249  12.454  1.00  0.00     0.127 A 
HETATM   17  C   UNL     1     -44.097 -53.423  12.498  1.00  0.00     0.076 A 
HETATM   18  C   UNL     1     -44.332 -54.342  13.541  1.00  0.00     0.025 A 
HETATM   19  C   UNL     1     -45.644 -54.820  14.041  1.00  0.00     0.070 C 
HETATM   20  N   UNL     1     -43.190 -54.764  14.093  1.00  0.00    -0.302 N 
HETATM   21  N   UNL     1     -42.234 -54.096  13.418  1.00  0.00    -0.281 N 
ATOM     22  HN  UNL     1     -43.069 -55.437  14.849  1.00  0.00     0.186 HD
HETATM   23  C   UNL     1     -40.857 -54.254  13.815  1.00  0.00     0.179 C 
ENDBRANCH   4  16
TORSDOF 4
ENDMDL
MODEL 5
REMARK VINA RESULT:      -5.8      2.010      7.120
REMARK  4 active torsions:
REMARK  status: ('A' for Active; 'I' for Inactive)
REMARK    1  A    between atoms: C_2  and  N_3 
REMARK    2  A    between atoms: C_7  and  C_8 
REMARK    3  A    between atoms: C_8  and  N_9 
REMARK       I    between atoms: N_9  and  C_10 
REMARK       I    between atoms: C_10  and  N_12 
REMARK    4  A    between atoms: N_12  and  C_13 
ROOT
HETATM    1  N   UNL     1     -41.561 -50.243  11.383  1.00  0.00    -0.342 N 
HETATM    2  C   UNL     1     -42.245 -50.963  12.313  1.00  0.00     0.321 C 
HETATM    3  O   UNL     1     -42.649 -50.554  13.382  1.00  0.00    -0.247 OA
HETATM    4  N   UNL     1     -42.393 -52.317  11.904  1.00  0.00    -0.293 N 
HETATM    5  H   UNL     1     -41.333 -50.626  10.479  1.00  0.00     0.164 HD
HETATM    6  H   UNL     1     -41.918 -52.632  11.076  1.00  0.00     0.172 HD
ENDROOT
BRANCH   1   7
HETATM    7  C   UNL     1     -41.214 -48.854  11.641  1.00  0.00     0.130 C 
BRANCH   7   8
HETATM    8  C   UNL     1     -39.782 -48.698  12.175  1.00  0.00     0.032 C 
HETATM    9  C   UNL     1     -38.854 -49.801  11.638  1.00  0.00     0.010 C 
HETATM   10  C   UNL     1     -37.479 -49.716  12.291  1.00  0.00     0.031 C 
HETATM   11  C   UNL     1     -37.597 -49.733  13.817  1.00  0.00     0.272 C 
HETATM   12  N   UNL     1     -38.476 -48.678  14.348  1.00  0.00     0.088 N 
HETATM   13  C   UNL     1     -39.799 -48.729  13.717  1.00  0.00     0.278 C 
BRANCH  12  14
HETATM   14  C   UNL     1     -37.805 -47.372  14.341  1.00  0.00     0.268 C 
HETATM   15  C   UNL     1     -38.713 -46.180  14.625  1.00  0.00     0.037 C 
ENDBRANCH  12  14
ENDBRANCH   7   8
ENDBRANCH   1   7
BRANCH   4  16
HETATM   16  C   UNL     1     -43.084 -53.251  12.673  1.00  0.00     0.127 A 
HETATM   17  C   UNL     1     -44.429 -53.545  12.637  1.00  0.00     0.076 A 
HETATM   18  C   UNL     1     -44.636 -54.513  13.640  1.00  0.00     0.025 A 
HETATM   19  C   UNL     1     -45.925 -55.119  14.054  1.00  0.00     0.070 C 
HETATM   20  N   UNL     1     -43.491 -54.852  14.241  1.00  0.00    -0.302 N 
HETATM   21  N   UNL     1     -42.565 -54.082  13.638  1.00  0.00    -0.281 N 
ATOM     22  HN  UNL     1     -43.351 -55.536  14.984  1.00  0.00     0.186 HD
HETATM   23  C   UNL     1     -41.201 -54.133  14.105  1.00  0.00     0.179 C 
ENDBRANCH   4  16
TORSDOF 4
ENDMDL
MODEL 6
REMARK VINA RESULT:      -5.6      1.939      3.031
REMARK  4 active torsions:
REMARK  status: ('A' for Active; 'I' for Inactive)
REMARK    1  A    between atoms: C_2  and  N_3 
REMARK    2  A    between atoms: C_7  and  C_8 
REMARK    3  A    between atoms: C_8  and  N_9 
REMARK       I    between atoms: N_9  and  C_10 
REMARK       I    between atoms: C_10  and  N_12 
REMARK    4  A    between atoms: N_12  and  C_13 
ROOT
HETATM    1  N   UNL     1     -41.872 -51.772  11.774  1.00  0.00    -0.342 N 
HETATM    2  C   UNL     1     -41.345 -50.539  12.005  1.00  0.00     0.321 C 
HETATM    3  O   UNL     1     -40.313 -50.300  12.598  1.00  0.00    -0.247 OA
HETATM    4  N   UNL     1     -42.198 -49.517  11.505  1.00  0.00    -0.293 N 
HETATM    5  H   UNL     1     -42.689 -51.899  11.198  1.00  0.00     0.164 HD
HETATM    6  H   UNL     1     -43.105 -49.767  11.149  1.00  0.00     0.172 HD
ENDROOT
BRANCH   1   7
HETATM    7  C   UNL     1     -41.209 -52.961  12.286  1.00  0.00     0.130 C 
BRANCH   7   8
HETATM    8  C   UNL     1     -42.130 -53.806  13.180  1.00  0.00     0.032 C 
HETATM    9  C   UNL     1     -43.593 -53.733  12.713  1.00  0.00     0.010 C 
HETATM   10  C   UNL     1     -44.510 -54.456  13.693  1.00  0.00     0.031 C 
HETATM   11  C   UNL     1     -44.316 -53.926  15.116  1.00  0.00     0.272 C 
HETATM   12  N   UNL     1     -42.921 -53.996  15.581  1.00  0.00     0.088 N 
HETATM   13  C   UNL     1     -42.019 -53.324  14.640  1.00  0.00     0.278 C 
BRANCH  12  14
HETATM   14  C   UNL     1     -42.555 -55.367  15.962  1.00  0.00     0.268 C 
HETATM   15  C   UNL     1     -41.095 -55.555  16.361  1.00  0.00     0.037 C 
ENDBRANCH  12  14
ENDBRANCH   7   8
ENDBRANCH   1   7
BRANCH   4  16
HETATM   16  C   UNL     1     -41.866 -48.167  11.594  1.00  0.00     0.127 A 
HETATM   17  C   UNL     1     -41.171 -47.407  10.679  1.00  0.00     0.076 A 
HETATM   18  C   UNL     1     -41.051 -46.127  11.258  1.00  0.00     0.025 A 
HETATM   19  C   UNL     1     -40.332 -44.953  10.706  1.00  0.00     0.070 C 
HETATM   20  N   UNL     1     -41.671 -46.061  12.440  1.00  0.00    -0.302 N 
HETATM   21  N   UNL     1     -42.161 -47.303  12.622  1.00  0.00    -0.281 N 
ATOM     22  HN  UNL     1     -41.755 -45.256  13.062  1.00  0.00     0.186 HD
HETATM   23  C   UNL     1     -42.834 -47.615  13.859  1.00  0.00     0.179 C 
ENDBRANCH   4  16
TORSDOF 4
ENDMDL
MODEL 7
REMARK VINA RESULT:      -5.5      2.356      2.850
REMARK  4 active torsions:
REMARK  status: ('A' for Active; 'I' for Inactive)
REMARK    1  A    between atoms: C_2  and  N_3 
REMARK    2  A    between atoms: C_7  and  C_8 
REMARK    3  A    between atoms: C_8  and  N_9 
REMARK       I    between atoms: N_9  and  C_10 
REMARK       I    between atoms: C_10  and  N_12 
REMARK    4  A    between atoms: N_12  and  C_13 
ROOT
HETATM    1  N   UNL     1     -42.347 -50.803  13.245  1.00  0.00    -0.342 N 
HETATM    2  C   UNL     1     -42.612 -49.530  12.844  1.00  0.00     0.321 C 
HETATM    3  O   UNL     1     -43.120 -48.657  13.517  1.00  0.00    -0.247 OA
HETATM    4  N   UNL     1     -42.265 -49.342  11.478  1.00  0.00    -0.293 N 
HETATM    5  H   UNL     1     -41.843 -51.449  12.659  1.00  0.00     0.164 HD
HETATM    6  H   UNL     1     -41.979 -50.137  10.932  1.00  0.00     0.172 HD
ENDROOT
BRANCH   1   7
HETATM    7  C   UNL     1     -42.713 -51.241  14.583  1.00  0.00     0.130 C 
BRANCH   7   8
HETATM    8  C   UNL     1     -43.999 -52.083  14.593  1.00  0.00     0.032 C 
HETATM    9  C   UNL     1     -43.961 -53.185  13.521  1.00  0.00     0.010 C 
HETATM   10  C   UNL     1     -45.299 -53.913  13.447  1.00  0.00     0.031 C 
HETATM   11  C   UNL     1     -46.448 -52.924  13.238  1.00  0.00     0.272 C 
HETATM   12  N   UNL     1     -46.503 -51.866  14.260  1.00  0.00     0.088 N 
HETATM   13  C   UNL     1     -45.218 -51.166  14.362  1.00  0.00     0.278 C 
BRANCH  12  14
HETATM   14  C   UNL     1     -47.068 -52.370  15.519  1.00  0.00     0.268 C 
HETATM   15  C   UNL     1     -47.454 -51.293  16.527  1.00  0.00     0.037 C 
ENDBRANCH  12  14
ENDBRANCH   7   8
ENDBRANCH   1   7
BRANCH   4  16
HETATM   16  C   UNL     1     -42.414 -48.113  10.839  1.00  0.00     0.127 A 
HETATM   17  C   UNL     1     -43.534 -47.620  10.208  1.00  0.00     0.076 A 
HETATM   18  C   UNL     1     -43.155 -46.369   9.679  1.00  0.00     0.025 A 
HETATM   19  C   UNL     1     -43.980 -45.454   8.853  1.00  0.00     0.070 C 
HETATM   20  N   UNL     1     -41.893 -46.062   9.995  1.00  0.00    -0.302 N 
HETATM   21  N   UNL     1     -41.465 -47.127  10.701  1.00  0.00    -0.281 N 
ATOM     22  HN  UNL     1     -41.374 -45.217   9.758  1.00  0.00     0.186 HD
HETATM   23  C   UNL     1     -40.092 -47.169  11.140  1.00  0.00     0.179 C 
ENDBRANCH   4  16
TORSDOF 4
ENDMDL
MODEL 8
REMARK VINA RESULT:      -5.5      2.040      3.708
REMARK  4 active torsions:
REMARK  status: ('A' for Active; 'I' for Inactive)
REMARK    1  A    between atoms: C_2  and  N_3 
REMARK    2  A    between atoms: C_7  and  C_8 
REMARK    3  A    between atoms: C_8  and  N_9 
REMARK       I    between atoms: N_9  and  C_10 
REMARK       I    between atoms: C_10  and  N_12 
REMARK    4  A    between atoms: N_12  and  C_13 
ROOT
HETATM    1  N   UNL     1     -39.080 -49.669  12.082  1.00  0.00    -0.342 N 
HETATM    2  C   UNL     1     -39.657 -48.456  12.297  1.00  0.00     0.321 C 
HETATM    3  O   UNL     1     -39.941 -47.978  13.376  1.00  0.00    -0.247 OA
HETATM    4  N   UNL     1     -39.954 -47.806  11.068  1.00  0.00    -0.293 N 
HETATM    5  H   UNL     1     -38.793 -49.964  11.162  1.00  0.00     0.164 HD
HETATM    6  H   UNL     1     -39.825 -48.308  10.206  1.00  0.00     0.172 HD
ENDROOT
BRANCH   1   7
HETATM    7  C   UNL     1     -38.779 -50.546  13.203  1.00  0.00     0.130 C 
BRANCH   7   8
HETATM    8  C   UNL     1     -39.909 -51.550  13.481  1.00  0.00     0.032 C 
HETATM    9  C   UNL     1     -39.383 -52.815  14.180  1.00  0.00     0.010 C 
HETATM   10  C   UNL     1     -40.488 -53.857  14.315  1.00  0.00     0.031 C 
HETATM   11  C   UNL     1     -41.128 -54.154  12.956  1.00  0.00     0.272 C 
HETATM   12  N   UNL     1     -41.644 -52.953  12.278  1.00  0.00     0.088 N 
HETATM   13  C   UNL     1     -40.601 -51.929  12.156  1.00  0.00     0.278 C 
BRANCH  12  14
HETATM   14  C   UNL     1     -42.917 -52.515  12.865  1.00  0.00     0.268 C 
HETATM   15  C   UNL     1     -44.125 -53.364  12.487  1.00  0.00     0.037 C 
ENDBRANCH  12  14
ENDBRANCH   7   8
ENDBRANCH   1   7
BRANCH   4  16
HETATM   16  C   UNL     1     -40.523 -46.536  11.021  1.00  0.00     0.127 A 
HETATM   17  C   UNL     1     -39.885 -45.320  11.132  1.00  0.00     0.076 A 
HETATM   18  C   UNL     1     -40.903 -44.347  11.076  1.00  0.00     0.025 A 
HETATM   19  C   UNL     1     -40.754 -42.878  11.214  1.00  0.00     0.070 C 
HETATM   20  N   UNL     1     -42.105 -44.902  10.890  1.00  0.00    -0.302 N 
HETATM   21  N   UNL     1     -41.853 -46.225  10.854  1.00  0.00    -0.281 N 
ATOM     22  HN  UNL     1     -43.006 -44.433  10.796  1.00  0.00     0.186 HD
HETATM   23  C   UNL     1     -42.957 -47.145  10.744  1.00  0.00     0.179 C 
ENDBRANCH   4  16
TORSDOF 4
ENDMDL
MODEL 9
REMARK VINA RESULT:      -5.5      1.867      7.223
REMARK  4 active torsions:
REMARK  status: ('A' for Active; 'I' for Inactive)
REMARK    1  A    between atoms: C_2  and  N_3 
REMARK    2  A    between atoms: C_7  and  C_8 
REMARK    3  A    between atoms: C_8  and  N_9 
REMARK       I    between atoms: N_9  and  C_10 
REMARK       I    between atoms: C_10  and  N_12 
REMARK    4  A    between atoms: N_12  and  C_13 
ROOT
HETATM    1  N   UNL     1     -41.112 -50.137  11.558  1.00  0.00    -0.342 N 
HETATM    2  C   UNL     1     -41.557 -51.127  12.379  1.00  0.00     0.321 C 
HETATM    3  O   UNL     1     -40.874 -51.808  13.116  1.00  0.00    -0.247 OA
HETATM    4  N   UNL     1     -42.957 -51.322  12.232  1.00  0.00    -0.293 N 
HETATM    5  H   UNL     1     -41.749 -49.555  11.038  1.00  0.00     0.164 HD
HETATM    6  H   UNL     1     -43.447 -50.826  11.507  1.00  0.00     0.172 HD
ENDROOT
BRANCH   1   7
HETATM    7  C   UNL     1     -39.691 -49.835  11.476  1.00  0.00     0.130 C 
BRANCH   7   8
HETATM    8  C   UNL     1     -39.358 -48.438  12.024  1.00  0.00     0.032 C 
HETATM    9  C   UNL     1     -38.857 -48.504  13.476  1.00  0.00     0.010 C 
HETATM   10  C   UNL     1     -38.672 -47.103  14.048  1.00  0.00     0.031 C 
HETATM   11  C   UNL     1     -39.953 -46.279  13.902  1.00  0.00     0.272 C 
HETATM   12  N   UNL     1     -40.442 -46.199  12.515  1.00  0.00     0.088 N 
HETATM   13  C   UNL     1     -40.607 -47.538  11.939  1.00  0.00     0.278 C 
BRANCH  12  14
HETATM   14  C   UNL     1     -39.651 -45.247  11.725  1.00  0.00     0.268 C 
HETATM   15  C   UNL     1     -40.104 -45.079  10.279  1.00  0.00     0.037 C 
ENDBRANCH  12  14
ENDBRANCH   7   8
ENDBRANCH   1   7
BRANCH   4  16
HETATM   16  C   UNL     1     -43.657 -52.261  12.987  1.00  0.00     0.127 A 
HETATM   17  C   UNL     1     -44.078 -53.513  12.599  1.00  0.00     0.076 A 
HETATM   18  C   UNL     1     -44.784 -54.038  13.701  1.00  0.00     0.025 A 
HETATM   19  C   UNL     1     -45.495 -55.337  13.778  1.00  0.00     0.070 C 
HETATM   20  N   UNL     1     -44.770 -53.198  14.740  1.00  0.00    -0.302 N 
HETATM   21  N   UNL     1     -44.079 -52.132  14.291  1.00  0.00    -0.281 N 
ATOM     22  HN  UNL     1     -45.185 -53.332  15.662  1.00  0.00     0.186 HD
HETATM   23  C   UNL     1     -43.938 -50.979  15.145  1.00  0.00     0.179 C 
ENDBRANCH   4  16
TORSDOF 4
ENDMDL
