MODEL 1
REMARK VINA RESULT:      -6.2      0.000      0.000
REMARK  4 active torsions:
REMARK  status: ('A' for Active; 'I' for Inactive)
REMARK    1  A    between atoms: C_8  and  C_9 
REMARK    2  A    between atoms: C_9  and  C_10 
REMARK    3  A    between atoms: C_10  and  N_11 
REMARK       I    between atoms: N_11  and  C_12 
REMARK       I    between atoms: C_12  and  N_14 
REMARK       I    between atoms: N_18  and  C_21 
REMARK    4  A    between atoms: C_21  and  C_23 
ROOT
HETATM    1  N   UNL     1     -42.478 -51.206  12.115  1.00  0.00    -0.343 N 
HETATM    2  C   UNL     1     -42.420 -50.184  13.037  1.00  0.00     0.318 C 
HETATM    3  O   UNL     1     -42.525 -50.418  14.241  1.00  0.00    -0.247 OA
HETATM    4  N   UNL     1     -42.239 -48.904  12.540  1.00  0.00    -0.333 N 
HETATM    5  C   UNL     1     -41.956 -48.552  11.145  1.00  0.00     0.129 C 
HETATM    6  C   UNL     1     -43.095 -47.737  10.535  1.00  0.00     0.040 C 
HETATM    7  C   UNL     1     -42.925 -46.232  10.755  1.00  0.00     0.127 C 
HETATM    8  N   UNL     1     -42.626 -45.808  12.121  1.00  0.00    -0.350 N 
HETATM    9  C   UNL     1     -43.112 -46.636  13.229  1.00  0.00     0.145 C 
HETATM   10  C   UNL     1     -42.161 -47.806  13.523  1.00  0.00     0.147 C 
HETATM   11  C   UNL     1     -41.872 -44.677  12.446  1.00  0.00     0.224 C 
HETATM   12  O   UNL     1     -41.628 -44.350  13.604  1.00  0.00    -0.273 OA
HETATM   13  H   UNL     1     -42.929 -50.966  11.246  1.00  0.00     0.164 HD
ENDROOT
BRANCH   1  14
HETATM   14  C   UNL     1     -42.718 -52.553  12.625  1.00  0.00     0.129 C 
BRANCH  14  15
HETATM   15  C   UNL     1     -44.046 -53.171  12.179  1.00  0.00     0.059 C 
BRANCH  15  16
HETATM   16  C   UNL     1     -45.140 -52.945  13.206  1.00  0.00    -0.048 A 
HETATM   17  C   UNL     1     -45.666 -53.965  14.019  1.00  0.00    -0.040 A 
HETATM   18  C   UNL     1     -45.183 -55.384  13.978  1.00  0.00     0.050 C 
HETATM   19  C   UNL     1     -46.699 -53.627  14.898  1.00  0.00     0.094 A 
HETATM   20  N   UNL     1     -47.232 -52.392  15.025  1.00  0.00    -0.375 N 
HETATM   21  C   UNL     1     -46.716 -51.437  14.230  1.00  0.00     0.088 A 
ATOM     22  HN  UNL     1     -47.983 -52.194  15.686  1.00  0.00     0.164 HD
HETATM   23  C   UNL     1     -45.690 -51.659  13.322  1.00  0.00     0.024 A 
ENDBRANCH  15  16
ENDBRANCH  14  15
ENDBRANCH   1  14
BRANCH  11  24
HETATM   24  C   UNL     1     -41.278 -43.882  11.328  1.00  0.00     0.078 A 
HETATM   25  C   UNL     1     -39.832 -44.156  10.966  1.00  0.00     0.015 A 
HETATM   26  C   UNL     1     -40.213 -42.837  11.567  1.00  0.00     0.015 A 
ENDBRANCH  11  24
TORSDOF 4
ENDMDL
MODEL 2
REMARK VINA RESULT:      -6.0      1.913      3.011
REMARK  4 active torsions:
REMARK  status: ('A' for Active; 'I' for Inactive)
REMARK    1  A    between atoms: C_8  and  C_9 
REMARK    2  A    between atoms: C_9  and  C_10 
REMARK    3  A    between atoms: C_10  and  N_11 
REMARK       I    between atoms: N_11  and  C_12 
REMARK       I    between atoms: C_12  and  N_14 
REMARK       I    between atoms: N_18  and  C_21 
REMARK    4  A    between atoms: C_21  and  C_23 
ROOT
HETATM    1  N   UNL     1     -42.467 -49.011  13.133  1.00  0.00    -0.343 N 
HETATM    2  C   UNL     1     -42.760 -48.047  12.192  1.00  0.00     0.318 C 
HETATM    3  O   UNL     1     -43.582 -48.265  11.304  1.00  0.00    -0.247 OA
HETATM    4  N   UNL     1     -42.086 -46.842  12.304  1.00  0.00    -0.333 N 
HETATM    5  C   UNL     1     -41.208 -46.443  13.408  1.00  0.00     0.129 C 
HETATM    6  C   UNL     1     -39.767 -46.257  12.934  1.00  0.00     0.040 C 
HETATM    7  C   UNL     1     -39.488 -44.835  12.444  1.00  0.00     0.127 C 
HETATM    8  N   UNL     1     -40.447 -44.279  11.492  1.00  0.00    -0.350 N 
HETATM    9  C   UNL     1     -41.170 -45.203  10.613  1.00  0.00     0.145 C 
HETATM   10  C   UNL     1     -42.404 -45.799  11.309  1.00  0.00     0.147 C 
HETATM   11  C   UNL     1     -40.751 -42.919  11.386  1.00  0.00     0.224 C 
HETATM   12  O   UNL     1     -41.570 -42.481  10.583  1.00  0.00    -0.273 OA
HETATM   13  H   UNL     1     -41.506 -49.030  13.434  1.00  0.00     0.164 HD
ENDROOT
BRANCH   1  14
HETATM   14  C   UNL     1     -43.135 -50.302  12.995  1.00  0.00     0.129 C 
BRANCH  14  15
HETATM   15  C   UNL     1     -44.307 -50.513  13.958  1.00  0.00     0.059 C 
BRANCH  15  16
HETATM   16  C   UNL     1     -44.871 -51.918  13.850  1.00  0.00    -0.048 A 
HETATM   17  C   UNL     1     -46.073 -52.322  14.458  1.00  0.00    -0.040 A 
HETATM   18  C   UNL     1     -46.944 -51.400  15.257  1.00  0.00     0.050 C 
HETATM   19  C   UNL     1     -46.458 -53.658  14.312  1.00  0.00     0.094 A 
HETATM   20  N   UNL     1     -45.760 -54.592  13.630  1.00  0.00    -0.375 N 
HETATM   21  C   UNL     1     -44.610 -54.181  13.065  1.00  0.00     0.088 A 
ATOM     22  HN  UNL     1     -46.086 -55.555  13.547  1.00  0.00     0.164 HD
HETATM   23  C   UNL     1     -44.132 -52.881  13.146  1.00  0.00     0.024 A 
ENDBRANCH  15  16
ENDBRANCH  14  15
ENDBRANCH   1  14
BRANCH  11  24
HETATM   24  C   UNL     1     -40.102 -41.975  12.347  1.00  0.00     0.078 A 
HETATM   25  C   UNL     1     -40.921 -41.516  13.537  1.00  0.00     0.015 A 
HETATM   26  C   UNL     1     -40.539 -40.534  12.471  1.00  0.00     0.015 A 
ENDBRANCH  11  24
TORSDOF 4
ENDMDL
MODEL 3
REMARK VINA RESULT:      -6.0      4.107      5.249
REMARK  4 active torsions:
REMARK  status: ('A' for Active; 'I' for Inactive)
REMARK    1  A    between atoms: C_8  and  C_9 
REMARK    2  A    between atoms: C_9  and  C_10 
REMARK    3  A    between atoms: C_10  and  N_11 
REMARK       I    between atoms: N_11  and  C_12 
REMARK       I    between atoms: C_12  and  N_14 
REMARK       I    between atoms: N_18  and  C_21 
REMARK    4  A    between atoms: C_21  and  C_23 
ROOT
HETATM    1  N   UNL     1     -44.315 -54.381  14.201  1.00  0.00    -0.343 N 
HETATM    2  C   UNL     1     -43.870 -53.554  13.192  1.00  0.00     0.318 C 
HETATM    3  O   UNL     1     -44.540 -53.389  12.174  1.00  0.00    -0.247 OA
HETATM    4  N   UNL     1     -42.647 -52.932  13.389  1.00  0.00    -0.333 N 
HETATM    5  C   UNL     1     -41.858 -52.952  14.624  1.00  0.00     0.129 C 
HETATM    6  C   UNL     1     -40.525 -53.672  14.421  1.00  0.00     0.040 C 
HETATM    7  C   UNL     1     -39.415 -52.731  13.946  1.00  0.00     0.127 C 
HETATM    8  N   UNL     1     -39.742 -51.865  12.816  1.00  0.00    -0.350 N 
HETATM    9  C   UNL     1     -40.739 -52.331  11.847  1.00  0.00     0.145 C 
HETATM   10  C   UNL     1     -42.171 -52.034  12.320  1.00  0.00     0.147 C 
HETATM   11  C   UNL     1     -39.190 -50.597  12.612  1.00  0.00     0.224 C 
HETATM   12  O   UNL     1     -39.491 -49.886  11.656  1.00  0.00    -0.273 OA
HETATM   13  H   UNL     1     -43.591 -54.896  14.676  1.00  0.00     0.164 HD
ENDROOT
BRANCH   1  14
HETATM   14  C   UNL     1     -45.578 -55.080  13.982  1.00  0.00     0.129 C 
BRANCH  14  15
HETATM   15  C   UNL     1     -46.768 -54.488  14.743  1.00  0.00     0.059 C 
BRANCH  15  16
HETATM   16  C   UNL     1     -46.321 -53.447  15.754  1.00  0.00    -0.048 A 
HETATM   17  C   UNL     1     -46.316 -52.064  15.496  1.00  0.00    -0.040 A 
HETATM   18  C   UNL     1     -46.779 -51.465  14.202  1.00  0.00     0.050 C 
HETATM   19  C   UNL     1     -45.843 -51.218  16.502  1.00  0.00     0.094 A 
HETATM   20  N   UNL     1     -45.388 -51.628  17.706  1.00  0.00    -0.375 N 
HETATM   21  C   UNL     1     -45.396 -52.956  17.923  1.00  0.00     0.088 A 
ATOM     22  HN  UNL     1     -45.057 -50.969  18.410  1.00  0.00     0.164 HD
HETATM   23  C   UNL     1     -45.843 -53.887  16.997  1.00  0.00     0.024 A 
ENDBRANCH  15  16
ENDBRANCH  14  15
ENDBRANCH   1  14
BRANCH  11  24
HETATM   24  C   UNL     1     -38.252 -50.063  13.646  1.00  0.00     0.078 A 
HETATM   25  C   UNL     1     -38.820 -49.107  14.676  1.00  0.00     0.015 A 
HETATM   26  C   UNL     1     -37.827 -48.612  13.667  1.00  0.00     0.015 A 
ENDBRANCH  11  24
TORSDOF 4
ENDMDL
MODEL 4
REMARK VINA RESULT:      -6.0      2.414      8.265
REMARK  4 active torsions:
REMARK  status: ('A' for Active; 'I' for Inactive)
REMARK    1  A    between atoms: C_8  and  C_9 
REMARK    2  A    between atoms: C_9  and  C_10 
REMARK    3  A    between atoms: C_10  and  N_11 
REMARK       I    between atoms: N_11  and  C_12 
REMARK       I    between atoms: C_12  and  N_14 
REMARK       I    between atoms: N_18  and  C_21 
REMARK    4  A    between atoms: C_21  and  C_23 
ROOT
HETATM    1  N   UNL     1     -42.166 -49.536  11.866  1.00  0.00    -0.343 N 
HETATM    2  C   UNL     1     -41.910 -50.799  12.353  1.00  0.00     0.318 C 
HETATM    3  O   UNL     1     -40.883 -51.398  12.038  1.00  0.00    -0.247 OA
HETATM    4  N   UNL     1     -42.860 -51.345  13.202  1.00  0.00    -0.333 N 
HETATM    5  C   UNL     1     -44.030 -50.651  13.747  1.00  0.00     0.129 C 
HETATM    6  C   UNL     1     -45.331 -51.271  13.238  1.00  0.00     0.040 C 
HETATM    7  C   UNL     1     -45.825 -52.413  14.129  1.00  0.00     0.127 C 
HETATM    8  N   UNL     1     -44.840 -53.433  14.478  1.00  0.00    -0.350 N 
HETATM    9  C   UNL     1     -43.740 -53.688  13.543  1.00  0.00     0.145 C 
HETATM   10  C   UNL     1     -42.586 -52.692  13.739  1.00  0.00     0.147 C 
HETATM   11  C   UNL     1     -44.853 -54.163  15.670  1.00  0.00     0.224 C 
HETATM   12  O   UNL     1     -44.005 -55.009  15.942  1.00  0.00    -0.273 OA
HETATM   13  H   UNL     1     -43.137 -49.343  11.679  1.00  0.00     0.164 HD
ENDROOT
BRANCH   1  14
HETATM   14  C   UNL     1     -41.196 -48.972  10.932  1.00  0.00     0.129 C 
BRANCH  14  15
HETATM   15  C   UNL     1     -41.183 -47.442  10.881  1.00  0.00     0.059 C 
BRANCH  15  16
HETATM   16  C   UNL     1     -42.351 -46.901  10.076  1.00  0.00    -0.048 A 
HETATM   17  C   UNL     1     -42.831 -45.584  10.192  1.00  0.00    -0.040 A 
HETATM   18  C   UNL     1     -42.223 -44.561  11.104  1.00  0.00     0.050 C 
HETATM   19  C   UNL     1     -43.940 -45.227   9.419  1.00  0.00     0.094 A 
HETATM   20  N   UNL     1     -44.587 -46.053   8.568  1.00  0.00    -0.375 N 
HETATM   21  C   UNL     1     -44.111 -47.310   8.483  1.00  0.00     0.088 A 
ATOM     22  HN  UNL     1     -45.389 -45.743   8.022  1.00  0.00     0.164 HD
HETATM   23  C   UNL     1     -43.019 -47.772   9.203  1.00  0.00     0.024 A 
ENDBRANCH  15  16
ENDBRANCH  14  15
ENDBRANCH   1  14
BRANCH  11  24
HETATM   24  C   UNL     1     -45.905 -53.841  16.682  1.00  0.00     0.078 A 
HETATM   25  C   UNL     1     -45.541 -52.865  17.782  1.00  0.00     0.015 A 
HETATM   26  C   UNL     1     -45.803 -54.302  18.118  1.00  0.00     0.015 A 
ENDBRANCH  11  24
TORSDOF 4
ENDMDL
MODEL 5
REMARK VINA RESULT:      -5.9      2.293      3.132
REMARK  4 active torsions:
REMARK  status: ('A' for Active; 'I' for Inactive)
REMARK    1  A    between atoms: C_8  and  C_9 
REMARK    2  A    between atoms: C_9  and  C_10 
REMARK    3  A    between atoms: C_10  and  N_11 
REMARK       I    between atoms: N_11  and  C_12 
REMARK       I    between atoms: C_12  and  N_14 
REMARK       I    between atoms: N_18  and  C_21 
REMARK    4  A    between atoms: C_21  and  C_23 
ROOT
HETATM    1  N   UNL     1     -42.270 -50.522  12.070  1.00  0.00    -0.343 N 
HETATM    2  C   UNL     1     -41.383 -49.603  11.553  1.00  0.00     0.318 C 
HETATM    3  O   UNL     1     -40.310 -49.967  11.072  1.00  0.00    -0.247 OA
HETATM    4  N   UNL     1     -41.762 -48.272  11.606  1.00  0.00    -0.333 N 
HETATM    5  C   UNL     1     -43.073 -47.763  12.021  1.00  0.00     0.129 C 
HETATM    6  C   UNL     1     -42.967 -46.927  13.295  1.00  0.00     0.040 C 
HETATM    7  C   UNL     1     -42.692 -45.449  13.008  1.00  0.00     0.127 C 
HETATM    8  N   UNL     1     -41.601 -45.164  12.080  1.00  0.00    -0.350 N 
HETATM    9  C   UNL     1     -40.494 -46.121  11.992  1.00  0.00     0.145 C 
HETATM   10  C   UNL     1     -40.823 -47.283  11.041  1.00  0.00     0.147 C 
HETATM   11  C   UNL     1     -41.556 -44.049  11.239  1.00  0.00     0.224 C 
HETATM   12  O   UNL     1     -40.629 -43.839  10.461  1.00  0.00    -0.273 OA
HETATM   13  H   UNL     1     -42.783 -50.206  12.877  1.00  0.00     0.164 HD
ENDROOT
BRANCH   1  14
HETATM   14  C   UNL     1     -41.859 -51.923  12.064  1.00  0.00     0.129 C 
BRANCH  14  15
HETATM   15  C   UNL     1     -42.964 -52.908  12.456  1.00  0.00     0.059 C 
BRANCH  15  16
HETATM   16  C   UNL     1     -42.553 -53.763  13.641  1.00  0.00    -0.048 A 
HETATM   17  C   UNL     1     -43.427 -54.642  14.305  1.00  0.00    -0.040 A 
HETATM   18  C   UNL     1     -44.855 -54.851  13.897  1.00  0.00     0.050 C 
HETATM   19  C   UNL     1     -42.930 -55.342  15.408  1.00  0.00     0.094 A 
HETATM   20  N   UNL     1     -41.671 -55.238  15.885  1.00  0.00    -0.375 N 
HETATM   21  C   UNL     1     -40.858 -54.384  15.236  1.00  0.00     0.088 A 
ATOM     22  HN  UNL     1     -41.354 -55.775  16.692  1.00  0.00     0.164 HD
HETATM   23  C   UNL     1     -41.245 -53.639  14.132  1.00  0.00     0.024 A 
ENDBRANCH  15  16
ENDBRANCH  14  15
ENDBRANCH   1  14
BRANCH  11  24
HETATM   24  C   UNL     1     -42.726 -43.119  11.239  1.00  0.00     0.078 A 
HETATM   25  C   UNL     1     -42.442 -41.637  11.092  1.00  0.00     0.015 A 
HETATM   26  C   UNL     1     -42.992 -42.166  12.382  1.00  0.00     0.015 A 
ENDBRANCH  11  24
TORSDOF 4
ENDMDL
MODEL 6
REMARK VINA RESULT:      -5.9      2.654      4.004
REMARK  4 active torsions:
REMARK  status: ('A' for Active; 'I' for Inactive)
REMARK    1  A    between atoms: C_8  and  C_9 
REMARK    2  A    between atoms: C_9  and  C_10 
REMARK    3  A    between atoms: C_10  and  N_11 
REMARK       I    between atoms: N_11  and  C_12 
REMARK       I    between atoms: C_12  and  N_14 
REMARK       I    between atoms: N_18  and  C_21 
REMARK    4  A    between atoms: C_21  and  C_23 
ROOT
HETATM    1  N   UNL     1     -42.652 -50.992  14.465  1.00  0.00    -0.343 N 
HETATM    2  C   UNL     1     -43.163 -50.240  13.429  1.00  0.00     0.318 C 
HETATM    3  O   UNL     1     -44.268 -50.495  12.954  1.00  0.00    -0.247 OA
HETATM    4  N   UNL     1     -42.373 -49.201  12.963  1.00  0.00    -0.333 N 
HETATM    5  C   UNL     1     -41.119 -48.735  13.562  1.00  0.00     0.129 C 
HETATM    6  C   UNL     1     -39.937 -48.957  12.621  1.00  0.00     0.040 C 
HETATM    7  C   UNL     1     -39.707 -47.776  11.675  1.00  0.00     0.127 C 
HETATM    8  N   UNL     1     -40.883 -47.283  10.961  1.00  0.00    -0.350 N 
HETATM    9  C   UNL     1     -41.966 -48.226  10.669  1.00  0.00     0.145 C 
HETATM   10  C   UNL     1     -42.920 -48.383  11.863  1.00  0.00     0.147 C 
HETATM   11  C   UNL     1     -41.062 -45.954  10.566  1.00  0.00     0.224 C 
HETATM   12  O   UNL     1     -42.066 -45.565   9.975  1.00  0.00    -0.273 OA
HETATM   13  H   UNL     1     -41.654 -51.130  14.435  1.00  0.00     0.164 HD
ENDROOT
BRANCH   1  14
HETATM   14  C   UNL     1     -43.454 -52.119  14.930  1.00  0.00     0.129 C 
BRANCH  14  15
HETATM   15  C   UNL     1     -43.183 -53.434  14.194  1.00  0.00     0.059 C 
BRANCH  15  16
HETATM   16  C   UNL     1     -41.778 -53.943  14.459  1.00  0.00    -0.048 A 
HETATM   17  C   UNL     1     -40.715 -53.800  13.549  1.00  0.00    -0.040 A 
HETATM   18  C   UNL     1     -40.847 -53.103  12.228  1.00  0.00     0.050 C 
HETATM   19  C   UNL     1     -39.479 -54.350  13.902  1.00  0.00     0.094 A 
HETATM   20  N   UNL     1     -39.230 -55.011  15.054  1.00  0.00    -0.375 N 
HETATM   21  C   UNL     1     -40.266 -55.141  15.902  1.00  0.00     0.088 A 
ATOM     22  HN  UNL     1     -38.308 -55.391  15.268  1.00  0.00     0.164 HD
HETATM   23  C   UNL     1     -41.534 -54.635  15.655  1.00  0.00     0.024 A 
ENDBRANCH  15  16
ENDBRANCH  14  15
ENDBRANCH   1  14
BRANCH  11  24
HETATM   24  C   UNL     1     -40.016 -44.958  10.950  1.00  0.00     0.078 A 
HETATM   25  C   UNL     1     -40.161 -44.275  12.296  1.00  0.00     0.015 A 
HETATM   26  C   UNL     1     -40.313 -43.478  11.036  1.00  0.00     0.015 A 
ENDBRANCH  11  24
TORSDOF 4
ENDMDL
MODEL 7
REMARK VINA RESULT:      -5.8      1.790      2.553
REMARK  4 active torsions:
REMARK  status: ('A' for Active; 'I' for Inactive)
REMARK    1  A    between atoms: C_8  and  C_9 
REMARK    2  A    between atoms: C_9  and  C_10 
REMARK    3  A    between atoms: C_10  and  N_11 
REMARK       I    between atoms: N_11  and  C_12 
REMARK       I    between atoms: C_12  and  N_14 
REMARK       I    between atoms: N_18  and  C_21 
REMARK    4  A    between atoms: C_21  and  C_23 
ROOT
HETATM    1  N   UNL     1     -42.855 -51.857  13.105  1.00  0.00    -0.343 N 
HETATM    2  C   UNL     1     -41.916 -51.275  12.282  1.00  0.00     0.318 C 
HETATM    3  O   UNL     1     -41.253 -51.959  11.503  1.00  0.00    -0.247 OA
HETATM    4  N   UNL     1     -41.766 -49.901  12.380  1.00  0.00    -0.333 N 
HETATM    5  C   UNL     1     -42.609 -48.995  13.164  1.00  0.00     0.129 C 
HETATM    6  C   UNL     1     -41.817 -48.331  14.289  1.00  0.00     0.040 C 
HETATM    7  C   UNL     1     -41.148 -47.027  13.848  1.00  0.00     0.127 C 
HETATM    8  N   UNL     1     -40.382 -47.083  12.605  1.00  0.00    -0.350 N 
HETATM    9  C   UNL     1     -39.772 -48.359  12.220  1.00  0.00     0.145 C 
HETATM   10  C   UNL     1     -40.772 -49.269  11.491  1.00  0.00     0.147 C 
HETATM   11  C   UNL     1     -40.219 -46.002  11.733  1.00  0.00     0.224 C 
HETATM   12  O   UNL     1     -39.577 -46.081  10.689  1.00  0.00    -0.273 OA
HETATM   13  H   UNL     1     -42.939 -51.434  14.016  1.00  0.00     0.164 HD
ENDROOT
BRANCH   1  14
HETATM   14  C   UNL     1     -42.987 -53.310  13.045  1.00  0.00     0.129 C 
BRANCH  14  15
HETATM   15  C   UNL     1     -44.427 -53.809  12.901  1.00  0.00     0.059 C 
BRANCH  15  16
HETATM   16  C   UNL     1     -45.299 -53.333  14.049  1.00  0.00    -0.048 A 
HETATM   17  C   UNL     1     -46.276 -52.329  13.919  1.00  0.00    -0.040 A 
HETATM   18  C   UNL     1     -46.581 -51.638  12.624  1.00  0.00     0.050 C 
HETATM   19  C   UNL     1     -46.983 -51.959  15.066  1.00  0.00     0.094 A 
HETATM   20  N   UNL     1     -46.798 -52.493  16.293  1.00  0.00    -0.375 N 
HETATM   21  C   UNL     1     -45.852 -53.446  16.391  1.00  0.00     0.088 A 
ATOM     22  HN  UNL     1     -47.344 -52.192  17.100  1.00  0.00     0.164 HD
HETATM   23  C   UNL     1     -45.092 -53.890  15.319  1.00  0.00     0.024 A 
ENDBRANCH  15  16
ENDBRANCH  14  15
ENDBRANCH   1  14
BRANCH  11  24
HETATM   24  C   UNL     1     -40.924 -44.724  12.057  1.00  0.00     0.078 A 
HETATM   25  C   UNL     1     -42.143 -44.369  11.229  1.00  0.00     0.015 A 
HETATM   26  C   UNL     1     -40.900 -43.538  11.120  1.00  0.00     0.015 A 
ENDBRANCH  11  24
TORSDOF 4
ENDMDL
MODEL 8
REMARK VINA RESULT:      -5.8      1.876      2.497
REMARK  4 active torsions:
REMARK  status: ('A' for Active; 'I' for Inactive)
REMARK    1  A    between atoms: C_8  and  C_9 
REMARK    2  A    between atoms: C_9  and  C_10 
REMARK    3  A    between atoms: C_10  and  N_11 
REMARK       I    between atoms: N_11  and  C_12 
REMARK       I    between atoms: C_12  and  N_14 
REMARK       I    between atoms: N_18  and  C_21 
REMARK    4  A    between atoms: C_21  and  C_23 
ROOT
HETATM    1  N   UNL     1     -42.157 -50.139  12.497  1.00  0.00    -0.343 N 
HETATM    2  C   UNL     1     -41.361 -49.324  11.722  1.00  0.00     0.318 C 
HETATM    3  O   UNL     1     -40.551 -49.806  10.932  1.00  0.00    -0.247 OA
HETATM    4  N   UNL     1     -41.524 -47.958  11.882  1.00  0.00    -0.333 N 
HETATM    5  C   UNL     1     -42.561 -47.300  12.683  1.00  0.00     0.129 C 
HETATM    6  C   UNL     1     -41.954 -46.529  13.853  1.00  0.00     0.040 C 
HETATM    7  C   UNL     1     -41.588 -45.090  13.484  1.00  0.00     0.127 C 
HETATM    8  N   UNL     1     -40.812 -44.915  12.259  1.00  0.00    -0.350 N 
HETATM    9  C   UNL     1     -39.925 -46.003  11.835  1.00  0.00     0.145 C 
HETATM   10  C   UNL     1     -40.686 -47.079  11.044  1.00  0.00     0.147 C 
HETATM   11  C   UNL     1     -40.883 -43.786  11.438  1.00  0.00     0.224 C 
HETATM   12  O   UNL     1     -40.225 -43.670  10.407  1.00  0.00    -0.273 OA
HETATM   13  H   UNL     1     -42.347 -49.788  13.422  1.00  0.00     0.164 HD
ENDROOT
BRANCH   1  14
HETATM   14  C   UNL     1     -41.959 -51.580  12.373  1.00  0.00     0.129 C 
BRANCH  14  15
HETATM   15  C   UNL     1     -42.200 -52.365  13.665  1.00  0.00     0.059 C 
BRANCH  15  16
HETATM   16  C   UNL     1     -43.578 -53.001  13.682  1.00  0.00    -0.048 A 
HETATM   17  C   UNL     1     -43.854 -54.245  14.278  1.00  0.00    -0.040 A 
HETATM   18  C   UNL     1     -42.819 -55.067  14.986  1.00  0.00     0.050 C 
HETATM   19  C   UNL     1     -45.160 -54.733  14.188  1.00  0.00     0.094 A 
HETATM   20  N   UNL     1     -46.181 -54.099  13.570  1.00  0.00    -0.375 N 
HETATM   21  C   UNL     1     -45.888 -52.915  13.001  1.00  0.00     0.088 A 
ATOM     22  HN  UNL     1     -47.119 -54.495  13.536  1.00  0.00     0.164 HD
HETATM   23  C   UNL     1     -44.628 -52.336  13.029  1.00  0.00     0.024 A 
ENDBRANCH  15  16
ENDBRANCH  14  15
ENDBRANCH   1  14
BRANCH  11  24
HETATM   24  C   UNL     1     -41.861 -42.714  11.798  1.00  0.00     0.078 A 
HETATM   25  C   UNL     1     -43.165 -42.670  11.027  1.00  0.00     0.015 A 
HETATM   26  C   UNL     1     -42.167 -41.564  10.865  1.00  0.00     0.015 A 
ENDBRANCH  11  24
TORSDOF 4
ENDMDL
MODEL 9
REMARK VINA RESULT:      -5.7      5.037      8.128
REMARK  4 active torsions:
REMARK  status: ('A' for Active; 'I' for Inactive)
REMARK    1  A    between atoms: C_8  and  C_9 
REMARK    2  A    between atoms: C_9  and  C_10 
REMARK    3  A    between atoms: C_10  and  N_11 
REMARK       I    between atoms: N_11  and  C_12 
REMARK       I    between atoms: C_12  and  N_14 
REMARK       I    between atoms: N_18  and  C_21 
REMARK    4  A    between atoms: C_21  and  C_23 
ROOT
HETATM    1  N   UNL     1     -44.223 -53.375  13.262  1.00  0.00    -0.343 N 
HETATM    2  C   UNL     1     -44.100 -54.347  14.231  1.00  0.00     0.318 C 
HETATM    3  O   UNL     1     -45.083 -54.976  14.617  1.00  0.00    -0.247 OA
HETATM    4  N   UNL     1     -42.828 -54.568  14.735  1.00  0.00    -0.333 N 
HETATM    5  C   UNL     1     -41.585 -53.976  14.232  1.00  0.00     0.129 C 
HETATM    6  C   UNL     1     -40.942 -53.063  15.275  1.00  0.00     0.040 C 
HETATM    7  C   UNL     1     -39.988 -53.815  16.207  1.00  0.00     0.127 C 
HETATM    8  N   UNL     1     -40.505 -55.043  16.806  1.00  0.00    -0.350 N 
HETATM    9  C   UNL     1     -41.950 -55.155  17.029  1.00  0.00     0.145 C 
HETATM   10  C   UNL     1     -42.686 -55.617  15.763  1.00  0.00     0.147 C 
HETATM   11  C   UNL     1     -39.714 -56.143  17.150  1.00  0.00     0.224 C 
HETATM   12  O   UNL     1     -40.178 -57.168  17.643  1.00  0.00    -0.273 OA
HETATM   13  H   UNL     1     -43.613 -52.581  13.379  1.00  0.00     0.164 HD
ENDROOT
BRANCH   1  14
HETATM   14  C   UNL     1     -45.566 -53.099  12.760  1.00  0.00     0.129 C 
BRANCH  14  15
HETATM   15  C   UNL     1     -46.063 -51.677  13.033  1.00  0.00     0.059 C 
BRANCH  15  16
HETATM   16  C   UNL     1     -46.086 -51.370  14.520  1.00  0.00    -0.048 A 
HETATM   17  C   UNL     1     -45.044 -50.706  15.192  1.00  0.00    -0.040 A 
HETATM   18  C   UNL     1     -43.809 -50.202  14.508  1.00  0.00     0.050 C 
HETATM   19  C   UNL     1     -45.175 -50.522  16.572  1.00  0.00     0.094 A 
HETATM   20  N   UNL     1     -46.229 -50.936  17.309  1.00  0.00    -0.375 N 
HETATM   21  C   UNL     1     -47.207 -51.576  16.642  1.00  0.00     0.088 A 
ATOM     22  HN  UNL     1     -46.280 -50.773  18.314  1.00  0.00     0.164 HD
HETATM   23  C   UNL     1     -47.182 -51.813  15.275  1.00  0.00     0.024 A 
ENDBRANCH  15  16
ENDBRANCH  14  15
ENDBRANCH   1  14
BRANCH  11  24
HETATM   24  C   UNL     1     -38.255 -56.089  16.830  1.00  0.00     0.078 A 
HETATM   25  C   UNL     1     -37.292 -56.647  17.859  1.00  0.00     0.015 A 
HETATM   26  C   UNL     1     -37.306 -55.176  17.571  1.00  0.00     0.015 A 
ENDBRANCH  11  24
TORSDOF 4
ENDMDL
