MODEL 1
REMARK VINA RESULT:      -6.0      0.000      0.000
REMARK  5 active torsions:
REMARK  status: ('A' for Active; 'I' for Inactive)
REMARK    1  A    between atoms: N_6  and  C_7 
REMARK    2  A    between atoms: C_7  and  C_8 
REMARK       I    between atoms: C_8  and  N_10 
REMARK    3  A    between atoms: N_10  and  C_11 
REMARK    4  A    between atoms: C_11  and  C_12 
REMARK    5  A    between atoms: C_12  and  C_13 
ROOT
HETATM    1  C   UNL     1     -42.544 -53.892  14.399  1.00  0.00     0.235 C 
HETATM    2  O   UNL     1     -41.763 -53.400  15.217  1.00  0.00    -0.272 OA
HETATM    3  N   UNL     1     -42.232 -54.022  13.057  1.00  0.00    -0.359 N 
HETATM    4  H   UNL     1     -42.845 -54.572  12.460  1.00  0.00     0.162 HD
ENDROOT
BRANCH   1   5
HETATM    5  C   UNL     1     -43.889 -54.458  14.817  1.00  0.00     0.234 C 
BRANCH   5   6
HETATM    6  N   UNL     1     -44.965 -53.477  14.724  1.00  0.00    -0.315 N 
HETATM    7  C   UNL     1     -45.368 -52.790  15.859  1.00  0.00     0.095 C 
HETATM    8  C   UNL     1     -46.299 -51.832  15.792  1.00  0.00     0.018 C 
HETATM    9  C   UNL     1     -46.808 -51.417  14.509  1.00  0.00     0.013 C 
HETATM   10  C   UNL     1     -46.460 -52.066  13.386  1.00  0.00     0.006 C 
HETATM   11  C   UNL     1     -46.826 -51.617  12.010  1.00  0.00     0.054 C 
HETATM   12  C   UNL     1     -45.574 -53.274  13.487  1.00  0.00     0.253 C 
HETATM   13  O   UNL     1     -45.380 -53.991  12.507  1.00  0.00    -0.267 OA
ENDBRANCH   5   6
ENDBRANCH   1   5
BRANCH   3  14
HETATM   14  C   UNL     1     -40.937 -53.588  12.589  1.00  0.00     0.127 C 
BRANCH  14  15
HETATM   15  C   UNL     1     -40.949 -52.209  11.931  1.00  0.00     0.053 C 
BRANCH  15  16
HETATM   16  C   UNL     1     -39.862 -51.295  12.471  1.00  0.00    -0.082 A 
HETATM   17  C   UNL     1     -39.179 -51.612  13.579  1.00  0.00    -0.024 A 
HETATM   18  C   UNL     1     -38.117 -50.772  14.199  1.00  0.00     0.027 A 
HETATM   19  C   UNL     1     -37.749 -49.474  13.488  1.00  0.00     0.004 A 
HETATM   20  C   UNL     1     -38.512 -49.093  12.223  1.00  0.00     0.005 A 
HETATM   21  C   UNL     1     -39.621 -50.017  11.721  1.00  0.00     0.034 A 
ENDBRANCH  15  16
ENDBRANCH  14  15
ENDBRANCH   3  14
TORSDOF 5
ENDMDL
MODEL 2
REMARK VINA RESULT:      -5.8      1.774      6.732
REMARK  5 active torsions:
REMARK  status: ('A' for Active; 'I' for Inactive)
REMARK    1  A    between atoms: N_6  and  C_7 
REMARK    2  A    between atoms: C_7  and  C_8 
REMARK       I    between atoms: C_8  and  N_10 
REMARK    3  A    between atoms: N_10  and  C_11 
REMARK    4  A    between atoms: C_11  and  C_12 
REMARK    5  A    between atoms: C_12  and  C_13 
ROOT
HETATM    1  C   UNL     1     -42.192 -52.723  12.749  1.00  0.00     0.235 C 
HETATM    2  O   UNL     1     -42.109 -52.778  13.978  1.00  0.00    -0.272 OA
HETATM    3  N   UNL     1     -43.399 -52.823  12.078  1.00  0.00    -0.359 N 
HETATM    4  H   UNL     1     -43.427 -52.616  11.083  1.00  0.00     0.162 HD
ENDROOT
BRANCH   1   5
HETATM    5  C   UNL     1     -40.976 -52.472  11.876  1.00  0.00     0.234 C 
BRANCH   5   6
HETATM    6  N   UNL     1     -40.347 -51.183  12.145  1.00  0.00    -0.315 N 
HETATM    7  C   UNL     1     -40.918 -50.023  11.644  1.00  0.00     0.095 C 
HETATM    8  C   UNL     1     -40.408 -48.821  11.936  1.00  0.00     0.018 C 
HETATM    9  C   UNL     1     -39.326 -48.713  12.882  1.00  0.00     0.013 C 
HETATM   10  C   UNL     1     -38.731 -49.810  13.377  1.00  0.00     0.006 C 
HETATM   11  C   UNL     1     -37.705 -49.790  14.462  1.00  0.00     0.054 C 
HETATM   12  C   UNL     1     -39.169 -51.161  12.889  1.00  0.00     0.253 C 
HETATM   13  O   UNL     1     -38.533 -52.170  13.187  1.00  0.00    -0.267 OA
ENDBRANCH   5   6
ENDBRANCH   1   5
BRANCH   3  14
HETATM   14  C   UNL     1     -44.616 -52.977  12.839  1.00  0.00     0.127 C 
BRANCH  14  15
HETATM   15  C   UNL     1     -45.429 -51.690  12.968  1.00  0.00     0.053 C 
BRANCH  15  16
HETATM   16  C   UNL     1     -45.760 -51.351  14.412  1.00  0.00    -0.082 A 
HETATM   17  C   UNL     1     -46.970 -51.614  14.924  1.00  0.00    -0.024 A 
HETATM   18  C   UNL     1     -47.397 -51.296  16.315  1.00  0.00     0.027 A 
HETATM   19  C   UNL     1     -46.358 -50.668  17.238  1.00  0.00     0.004 A 
HETATM   20  C   UNL     1     -44.973 -50.362  16.678  1.00  0.00     0.005 A 
HETATM   21  C   UNL     1     -44.679 -50.686  15.214  1.00  0.00     0.034 A 
ENDBRANCH  15  16
ENDBRANCH  14  15
ENDBRANCH   3  14
TORSDOF 5
ENDMDL
MODEL 3
REMARK VINA RESULT:      -5.7      1.632      6.173
REMARK  5 active torsions:
REMARK  status: ('A' for Active; 'I' for Inactive)
REMARK    1  A    between atoms: N_6  and  C_7 
REMARK    2  A    between atoms: C_7  and  C_8 
REMARK       I    between atoms: C_8  and  N_10 
REMARK    3  A    between atoms: N_10  and  C_11 
REMARK    4  A    between atoms: C_11  and  C_12 
REMARK    5  A    between atoms: C_12  and  C_13 
ROOT
HETATM    1  C   UNL     1     -42.674 -54.117  13.373  1.00  0.00     0.235 C 
HETATM    2  O   UNL     1     -43.005 -54.408  14.525  1.00  0.00    -0.272 OA
HETATM    3  N   UNL     1     -43.572 -53.627  12.441  1.00  0.00    -0.359 N 
HETATM    4  H   UNL     1     -43.218 -53.259  11.562  1.00  0.00     0.162 HD
ENDROOT
BRANCH   1   5
HETATM    5  C   UNL     1     -41.232 -54.207  12.908  1.00  0.00     0.234 C 
BRANCH   5   6
HETATM    6  N   UNL     1     -40.434 -53.057  13.321  1.00  0.00    -0.315 N 
HETATM    7  C   UNL     1     -39.715 -53.110  14.505  1.00  0.00     0.095 C 
HETATM    8  C   UNL     1     -38.916 -52.102  14.873  1.00  0.00     0.018 C 
HETATM    9  C   UNL     1     -38.699 -50.996  13.975  1.00  0.00     0.013 C 
HETATM   10  C   UNL     1     -39.390 -50.894  12.827  1.00  0.00     0.006 C 
HETATM   11  C   UNL     1     -39.127 -49.864  11.779  1.00  0.00     0.054 C 
HETATM   12  C   UNL     1     -40.438 -51.922  12.513  1.00  0.00     0.253 C 
HETATM   13  O   UNL     1     -41.204 -51.764  11.564  1.00  0.00    -0.267 OA
ENDBRANCH   5   6
ENDBRANCH   1   5
BRANCH   3  14
HETATM   14  C   UNL     1     -44.949 -53.428  12.827  1.00  0.00     0.127 C 
BRANCH  14  15
HETATM   15  C   UNL     1     -45.366 -51.959  12.888  1.00  0.00     0.053 C 
BRANCH  15  16
HETATM   16  C   UNL     1     -45.586 -51.473  14.311  1.00  0.00    -0.082 A 
HETATM   17  C   UNL     1     -44.600 -50.884  15.000  1.00  0.00    -0.024 A 
HETATM   18  C   UNL     1     -44.710 -50.399  16.405  1.00  0.00     0.027 A 
HETATM   19  C   UNL     1     -46.065 -50.543  17.089  1.00  0.00     0.004 A 
HETATM   20  C   UNL     1     -47.204 -51.208  16.322  1.00  0.00     0.005 A 
HETATM   21  C   UNL     1     -46.944 -51.714  14.904  1.00  0.00     0.034 A 
ENDBRANCH  15  16
ENDBRANCH  14  15
ENDBRANCH   3  14
TORSDOF 5
ENDMDL
MODEL 4
REMARK VINA RESULT:      -5.7      2.140      3.169
REMARK  5 active torsions:
REMARK  status: ('A' for Active; 'I' for Inactive)
REMARK    1  A    between atoms: N_6  and  C_7 
REMARK    2  A    between atoms: C_7  and  C_8 
REMARK       I    between atoms: C_8  and  N_10 
REMARK    3  A    between atoms: N_10  and  C_11 
REMARK    4  A    between atoms: C_11  and  C_12 
REMARK    5  A    between atoms: C_12  and  C_13 
ROOT
HETATM    1  C   UNL     1     -43.523 -55.060  14.468  1.00  0.00     0.235 C 
HETATM    2  O   UNL     1     -43.096 -55.761  15.389  1.00  0.00    -0.272 OA
HETATM    3  N   UNL     1     -42.692 -54.284  13.677  1.00  0.00    -0.359 N 
HETATM    4  H   UNL     1     -43.073 -53.852  12.839  1.00  0.00     0.162 HD
ENDROOT
BRANCH   1   5
HETATM    5  C   UNL     1     -44.991 -55.049  14.084  1.00  0.00     0.234 C 
BRANCH   5   6
HETATM    6  N   UNL     1     -45.561 -53.706  14.080  1.00  0.00    -0.315 N 
HETATM    7  C   UNL     1     -45.656 -53.003  12.889  1.00  0.00     0.095 C 
HETATM    8  C   UNL     1     -46.241 -51.802  12.841  1.00  0.00     0.018 C 
HETATM    9  C   UNL     1     -46.894 -51.276  14.014  1.00  0.00     0.013 C 
HETATM   10  C   UNL     1     -46.810 -51.913  15.193  1.00  0.00     0.006 C 
HETATM   11  C   UNL     1     -47.569 -51.515  16.416  1.00  0.00     0.054 C 
HETATM   12  C   UNL     1     -45.978 -53.158  15.292  1.00  0.00     0.253 C 
HETATM   13  O   UNL     1     -45.739 -53.665  16.386  1.00  0.00    -0.267 OA
ENDBRANCH   5   6
ENDBRANCH   1   5
BRANCH   3  14
HETATM   14  C   UNL     1     -41.269 -54.304  13.919  1.00  0.00     0.127 C 
BRANCH  14  15
HETATM   15  C   UNL     1     -40.728 -53.010  14.524  1.00  0.00     0.053 C 
BRANCH  15  16
HETATM   16  C   UNL     1     -41.583 -51.802  14.179  1.00  0.00    -0.082 A 
HETATM   17  C   UNL     1     -41.434 -51.159  13.013  1.00  0.00    -0.024 A 
HETATM   18  C   UNL     1     -42.203 -49.954  12.595  1.00  0.00     0.027 A 
HETATM   19  C   UNL     1     -43.278 -49.446  13.551  1.00  0.00     0.004 A 
HETATM   20  C   UNL     1     -43.469 -50.164  14.883  1.00  0.00     0.005 A 
HETATM   21  C   UNL     1     -42.573 -51.357  15.216  1.00  0.00     0.034 A 
ENDBRANCH  15  16
ENDBRANCH  14  15
ENDBRANCH   3  14
TORSDOF 5
ENDMDL
MODEL 5
REMARK VINA RESULT:      -5.6      1.439      2.198
REMARK  5 active torsions:
REMARK  status: ('A' for Active; 'I' for Inactive)
REMARK    1  A    between atoms: N_6  and  C_7 
REMARK    2  A    between atoms: C_7  and  C_8 
REMARK       I    between atoms: C_8  and  N_10 
REMARK    3  A    between atoms: N_10  and  C_11 
REMARK    4  A    between atoms: C_11  and  C_12 
REMARK    5  A    between atoms: C_12  and  C_13 
ROOT
HETATM    1  C   UNL     1     -43.462 -54.970  14.463  1.00  0.00     0.235 C 
HETATM    2  O   UNL     1     -43.021 -55.614  15.418  1.00  0.00    -0.272 OA
HETATM    3  N   UNL     1     -42.647 -54.230  13.624  1.00  0.00    -0.359 N 
HETATM    4  H   UNL     1     -43.040 -53.849  12.767  1.00  0.00     0.162 HD
ENDROOT
BRANCH   1   5
HETATM    5  C   UNL     1     -44.934 -54.996  14.092  1.00  0.00     0.234 C 
BRANCH   5   6
HETATM    6  N   UNL     1     -45.538 -53.668  14.097  1.00  0.00    -0.315 N 
HETATM    7  C   UNL     1     -45.677 -52.972  12.905  1.00  0.00     0.095 C 
HETATM    8  C   UNL     1     -46.294 -51.786  12.867  1.00  0.00     0.018 C 
HETATM    9  C   UNL     1     -46.934 -51.273  14.052  1.00  0.00     0.013 C 
HETATM   10  C   UNL     1     -46.809 -51.904  15.231  1.00  0.00     0.006 C 
HETATM   11  C   UNL     1     -47.552 -51.522  16.469  1.00  0.00     0.054 C 
HETATM   12  C   UNL     1     -45.943 -53.127  15.315  1.00  0.00     0.253 C 
HETATM   13  O   UNL     1     -45.667 -53.624  16.406  1.00  0.00    -0.267 OA
ENDBRANCH   5   6
ENDBRANCH   1   5
BRANCH   3  14
HETATM   14  C   UNL     1     -41.222 -54.221  13.855  1.00  0.00     0.127 C 
BRANCH  14  15
HETATM   15  C   UNL     1     -40.727 -52.988  14.610  1.00  0.00     0.053 C 
BRANCH  15  16
HETATM   16  C   UNL     1     -39.899 -52.062  13.735  1.00  0.00    -0.082 A 
HETATM   17  C   UNL     1     -38.575 -51.950  13.906  1.00  0.00    -0.024 A 
HETATM   18  C   UNL     1     -37.683 -51.053  13.119  1.00  0.00     0.027 A 
HETATM   19  C   UNL     1     -38.325 -50.237  12.002  1.00  0.00     0.004 A 
HETATM   20  C   UNL     1     -39.830 -50.350  11.787  1.00  0.00     0.005 A 
HETATM   21  C   UNL     1     -40.642 -51.266  12.702  1.00  0.00     0.034 A 
ENDBRANCH  15  16
ENDBRANCH  14  15
ENDBRANCH   3  14
TORSDOF 5
ENDMDL
MODEL 6
REMARK VINA RESULT:      -5.6      2.557      4.357
REMARK  5 active torsions:
REMARK  status: ('A' for Active; 'I' for Inactive)
REMARK    1  A    between atoms: N_6  and  C_7 
REMARK    2  A    between atoms: C_7  and  C_8 
REMARK       I    between atoms: C_8  and  N_10 
REMARK    3  A    between atoms: N_10  and  C_11 
REMARK    4  A    between atoms: C_11  and  C_12 
REMARK    5  A    between atoms: C_12  and  C_13 
ROOT
HETATM    1  C   UNL     1     -41.988 -50.525  15.792  1.00  0.00     0.235 C 
HETATM    2  O   UNL     1     -41.647 -50.716  16.962  1.00  0.00    -0.272 OA
HETATM    3  N   UNL     1     -41.360 -51.141  14.723  1.00  0.00    -0.359 N 
HETATM    4  H   UNL     1     -41.779 -51.069  13.799  1.00  0.00     0.162 HD
ENDROOT
BRANCH   1   5
HETATM    5  C   UNL     1     -43.174 -49.646  15.438  1.00  0.00     0.234 C 
BRANCH   5   6
HETATM    6  N   UNL     1     -44.409 -50.407  15.279  1.00  0.00    -0.315 N 
HETATM    7  C   UNL     1     -45.207 -50.657  16.384  1.00  0.00     0.095 C 
HETATM    8  C   UNL     1     -46.382 -51.286  16.259  1.00  0.00     0.018 C 
HETATM    9  C   UNL     1     -46.888 -51.602  14.947  1.00  0.00     0.013 C 
HETATM   10  C   UNL     1     -46.140 -51.394  13.851  1.00  0.00     0.006 C 
HETATM   11  C   UNL     1     -46.639 -51.559  12.453  1.00  0.00     0.054 C 
HETATM   12  C   UNL     1     -44.740 -50.879  14.011  1.00  0.00     0.253 C 
HETATM   13  O   UNL     1     -43.973 -50.844  13.050  1.00  0.00    -0.267 OA
ENDBRANCH   5   6
ENDBRANCH   1   5
BRANCH   3  14
HETATM   14  C   UNL     1     -40.277 -52.061  14.977  1.00  0.00     0.127 C 
BRANCH  14  15
HETATM   15  C   UNL     1     -40.461 -53.427  14.318  1.00  0.00     0.053 C 
BRANCH  15  16
HETATM   16  C   UNL     1     -41.919 -53.848  14.245  1.00  0.00    -0.082 A 
HETATM   17  C   UNL     1     -42.551 -53.950  13.068  1.00  0.00    -0.024 A 
HETATM   18  C   UNL     1     -43.981 -54.329  12.895  1.00  0.00     0.027 A 
HETATM   19  C   UNL     1     -44.769 -54.674  14.155  1.00  0.00     0.004 A 
HETATM   20  C   UNL     1     -44.069 -54.569  15.506  1.00  0.00     0.005 A 
HETATM   21  C   UNL     1     -42.611 -54.113  15.550  1.00  0.00     0.034 A 
ENDBRANCH  15  16
ENDBRANCH  14  15
ENDBRANCH   3  14
TORSDOF 5
ENDMDL
MODEL 7
REMARK VINA RESULT:      -5.5      2.192      6.686
REMARK  5 active torsions:
REMARK  status: ('A' for Active; 'I' for Inactive)
REMARK    1  A    between atoms: N_6  and  C_7 
REMARK    2  A    between atoms: C_7  and  C_8 
REMARK       I    between atoms: C_8  and  N_10 
REMARK    3  A    between atoms: N_10  and  C_11 
REMARK    4  A    between atoms: C_11  and  C_12 
REMARK    5  A    between atoms: C_12  and  C_13 
ROOT
HETATM    1  C   UNL     1     -39.723 -53.266  13.861  1.00  0.00     0.235 C 
HETATM    2  O   UNL     1     -39.214 -54.361  13.610  1.00  0.00    -0.272 OA
HETATM    3  N   UNL     1     -41.072 -53.013  13.683  1.00  0.00    -0.359 N 
HETATM    4  H   UNL     1     -41.464 -52.150  14.051  1.00  0.00     0.162 HD
ENDROOT
BRANCH   1   5
HETATM    5  C   UNL     1     -38.915 -52.125  14.453  1.00  0.00     0.234 C 
BRANCH   5   6
HETATM    6  N   UNL     1     -38.666 -51.055  13.493  1.00  0.00    -0.315 N 
HETATM    7  C   UNL     1     -37.555 -51.119  12.667  1.00  0.00     0.095 C 
HETATM    8  C   UNL     1     -37.340 -50.193  11.726  1.00  0.00     0.018 C 
HETATM    9  C   UNL     1     -38.334 -49.179  11.478  1.00  0.00     0.013 C 
HETATM   10  C   UNL     1     -39.416 -49.069  12.266  1.00  0.00     0.006 C 
HETATM   11  C   UNL     1     -40.559 -48.145  11.996  1.00  0.00     0.054 C 
HETATM   12  C   UNL     1     -39.553 -49.981  13.450  1.00  0.00     0.253 C 
HETATM   13  O   UNL     1     -40.435 -49.793  14.286  1.00  0.00    -0.267 OA
ENDBRANCH   5   6
ENDBRANCH   1   5
BRANCH   3  14
HETATM   14  C   UNL     1     -41.930 -54.072  13.206  1.00  0.00     0.127 C 
BRANCH  14  15
HETATM   15  C   UNL     1     -43.114 -54.369  14.125  1.00  0.00     0.053 C 
BRANCH  15  16
HETATM   16  C   UNL     1     -44.253 -53.379  13.948  1.00  0.00    -0.082 A 
HETATM   17  C   UNL     1     -44.994 -53.369  12.832  1.00  0.00    -0.024 A 
HETATM   18  C   UNL     1     -46.111 -52.423  12.556  1.00  0.00     0.027 A 
HETATM   19  C   UNL     1     -46.466 -51.423  13.651  1.00  0.00     0.004 A 
HETATM   20  C   UNL     1     -45.639 -51.418  14.932  1.00  0.00     0.005 A 
HETATM   21  C   UNL     1     -44.480 -52.405  15.068  1.00  0.00     0.034 A 
ENDBRANCH  15  16
ENDBRANCH  14  15
ENDBRANCH   3  14
TORSDOF 5
ENDMDL
MODEL 8
REMARK VINA RESULT:      -5.4      2.846      6.011
REMARK  5 active torsions:
REMARK  status: ('A' for Active; 'I' for Inactive)
REMARK    1  A    between atoms: N_6  and  C_7 
REMARK    2  A    between atoms: C_7  and  C_8 
REMARK       I    between atoms: C_8  and  N_10 
REMARK    3  A    between atoms: N_10  and  C_11 
REMARK    4  A    between atoms: C_11  and  C_12 
REMARK    5  A    between atoms: C_12  and  C_13 
ROOT
HETATM    1  C   UNL     1     -44.429 -54.051  17.286  1.00  0.00     0.235 C 
HETATM    2  O   UNL     1     -45.580 -54.474  17.154  1.00  0.00    -0.272 OA
HETATM    3  N   UNL     1     -44.152 -52.785  17.774  1.00  0.00    -0.359 N 
HETATM    4  H   UNL     1     -43.192 -52.547  18.007  1.00  0.00     0.162 HD
ENDROOT
BRANCH   1   5
HETATM    5  C   UNL     1     -43.219 -54.916  16.986  1.00  0.00     0.234 C 
BRANCH   5   6
HETATM    6  N   UNL     1     -42.678 -54.682  15.651  1.00  0.00    -0.315 N 
HETATM    7  C   UNL     1     -43.539 -54.407  14.600  1.00  0.00     0.095 C 
HETATM    8  C   UNL     1     -43.069 -54.114  13.382  1.00  0.00     0.018 C 
HETATM    9  C   UNL     1     -41.650 -53.961  13.179  1.00  0.00     0.013 C 
HETATM   10  C   UNL     1     -40.780 -54.236  14.164  1.00  0.00     0.006 C 
HETATM   11  C   UNL     1     -39.312 -53.970  14.085  1.00  0.00     0.054 C 
HETATM   12  C   UNL     1     -41.299 -54.764  15.470  1.00  0.00     0.253 C 
HETATM   13  O   UNL     1     -40.524 -55.190  16.325  1.00  0.00    -0.267 OA
ENDBRANCH   5   6
ENDBRANCH   1   5
BRANCH   3  14
HETATM   14  C   UNL     1     -45.245 -51.927  18.166  1.00  0.00     0.127 C 
BRANCH  14  15
HETATM   15  C   UNL     1     -45.321 -50.623  17.372  1.00  0.00     0.053 C 
BRANCH  15  16
HETATM   16  C   UNL     1     -45.372 -50.856  15.871  1.00  0.00    -0.082 A 
HETATM   17  C   UNL     1     -44.327 -50.554  15.089  1.00  0.00    -0.024 A 
HETATM   18  C   UNL     1     -44.290 -50.720  13.609  1.00  0.00     0.027 A 
HETATM   19  C   UNL     1     -45.521 -51.328  12.944  1.00  0.00     0.004 A 
HETATM   20  C   UNL     1     -46.721 -51.684  13.815  1.00  0.00     0.005 A 
HETATM   21  C   UNL     1     -46.652 -51.410  15.317  1.00  0.00     0.034 A 
ENDBRANCH  15  16
ENDBRANCH  14  15
ENDBRANCH   3  14
TORSDOF 5
ENDMDL
MODEL 9
REMARK VINA RESULT:      -5.4      2.064      2.887
REMARK  5 active torsions:
REMARK  status: ('A' for Active; 'I' for Inactive)
REMARK    1  A    between atoms: N_6  and  C_7 
REMARK    2  A    between atoms: C_7  and  C_8 
REMARK       I    between atoms: C_8  and  N_10 
REMARK    3  A    between atoms: N_10  and  C_11 
REMARK    4  A    between atoms: C_11  and  C_12 
REMARK    5  A    between atoms: C_12  and  C_13 
ROOT
HETATM    1  C   UNL     1     -40.923 -51.982  12.252  1.00  0.00     0.235 C 
HETATM    2  O   UNL     1     -39.751 -52.196  12.572  1.00  0.00    -0.272 OA
HETATM    3  N   UNL     1     -41.303 -50.876  11.513  1.00  0.00    -0.359 N 
HETATM    4  H   UNL     1     -42.251 -50.830  11.146  1.00  0.00     0.162 HD
ENDROOT
BRANCH   1   5
HETATM    5  C   UNL     1     -42.034 -52.960  12.588  1.00  0.00     0.234 C 
BRANCH   5   6
HETATM    6  N   UNL     1     -43.070 -52.367  13.428  1.00  0.00    -0.315 N 
HETATM    7  C   UNL     1     -42.710 -51.670  14.571  1.00  0.00     0.095 C 
HETATM    8  C   UNL     1     -43.630 -51.051  15.320  1.00  0.00     0.018 C 
HETATM    9  C   UNL     1     -45.000 -51.000  14.875  1.00  0.00     0.013 C 
HETATM   10  C   UNL     1     -45.396 -51.677  13.784  1.00  0.00     0.006 C 
HETATM   11  C   UNL     1     -46.755 -51.565  13.176  1.00  0.00     0.054 C 
HETATM   12  C   UNL     1     -44.403 -52.539  13.060  1.00  0.00     0.253 C 
HETATM   13  O   UNL     1     -44.770 -53.303  12.170  1.00  0.00    -0.267 OA
ENDBRANCH   5   6
ENDBRANCH   1   5
BRANCH   3  14
HETATM   14  C   UNL     1     -40.294 -49.939  11.077  1.00  0.00     0.127 C 
BRANCH  14  15
HETATM   15  C   UNL     1     -40.531 -48.509  11.561  1.00  0.00     0.053 C 
BRANCH  15  16
HETATM   16  C   UNL     1     -39.523 -48.074  12.612  1.00  0.00    -0.082 A 
HETATM   17  C   UNL     1     -38.576 -48.913  13.050  1.00  0.00    -0.024 A 
HETATM   18  C   UNL     1     -37.563 -48.590  14.094  1.00  0.00     0.027 A 
HETATM   19  C   UNL     1     -37.579 -47.177  14.669  1.00  0.00     0.004 A 
HETATM   20  C   UNL     1     -38.647 -46.203  14.182  1.00  0.00     0.005 A 
HETATM   21  C   UNL     1     -39.666 -46.679  13.147  1.00  0.00     0.034 A 
ENDBRANCH  15  16
ENDBRANCH  14  15
ENDBRANCH   3  14
TORSDOF 5
ENDMDL
