MODEL 1
REMARK VINA RESULT:      -7.3      0.000      0.000
REMARK  5 active torsions:
REMARK  status: ('A' for Active; 'I' for Inactive)
REMARK    1  A    between atoms: C_4  and  N_5 
REMARK       I    between atoms: N_5  and  C_6 
REMARK       I    between atoms: C_6  and  N_8 
REMARK    2  A    between atoms: N_8  and  C_9 
REMARK    3  A    between atoms: C_9  and  C_10 
REMARK    4  A    between atoms: C_10  and  C_11 
REMARK    5  A    between atoms: C_11  and  N_12 
ROOT
HETATM    1  N   UNL     1     -41.537 -47.746  10.176  1.00  0.00    -0.293 N 
HETATM    2  C   UNL     1     -41.059 -48.636  11.097  1.00  0.00     0.321 C 
HETATM    3  O   UNL     1     -39.950 -48.458  11.590  1.00  0.00    -0.247 OA
HETATM    4  N   UNL     1     -41.858 -49.691  11.412  1.00  0.00    -0.343 N 
HETATM    5  H   UNL     1     -40.893 -47.002   9.952  1.00  0.00     0.172 HD
HETATM    6  H   UNL     1     -42.765 -49.719  10.955  1.00  0.00     0.164 HD
ENDROOT
BRANCH   4   7
HETATM    7  C   UNL     1     -41.559 -50.676  12.424  1.00  0.00     0.126 C 
BRANCH   7   8
HETATM    8  C   UNL     1     -42.125 -52.058  12.086  1.00  0.00     0.039 C 
BRANCH   8   9
HETATM    9  C   UNL     1     -42.360 -52.877  13.351  1.00  0.00     0.127 C 
BRANCH   9  10
HETATM   10  N   UNL     1     -43.736 -52.867  13.840  1.00  0.00    -0.352 N 
HETATM   11  C   UNL     1     -44.012 -52.271  15.145  1.00  0.00     0.125 C 
HETATM   12  C   UNL     1     -44.805 -50.977  15.044  1.00  0.00     0.020 C 
HETATM   13  C   UNL     1     -46.316 -51.187  14.951  1.00  0.00     0.002 C 
HETATM   14  C   UNL     1     -46.778 -52.406  14.153  1.00  0.00     0.009 C 
HETATM   15  C   UNL     1     -45.994 -52.641  12.879  1.00  0.00     0.103 C 
HETATM   16  C   UNL     1     -44.706 -53.430  13.030  1.00  0.00     0.219 C 
HETATM   17  O   UNL     1     -44.473 -54.393  12.299  1.00  0.00    -0.273 OA
ENDBRANCH   9  10
ENDBRANCH   8   9
ENDBRANCH   7   8
ENDBRANCH   4   7
BRANCH   1  18
HETATM   18  C   UNL     1     -42.779 -47.733   9.574  1.00  0.00     0.132 A 
HETATM   19  C   UNL     1     -43.974 -47.291  10.191  1.00  0.00     0.084 A 
HETATM   20  C   UNL     1     -44.942 -47.466   9.230  1.00  0.00     0.076 A 
HETATM   21  C   UNL     1     -46.392 -47.228   9.153  1.00  0.00     0.079 C 
HETATM   22  O   UNL     1     -44.368 -47.975   8.111  1.00  0.00    -0.241 OA
HETATM   23  N   UNL     1     -43.020 -48.146   8.324  1.00  0.00    -0.245 N 
ATOM     24  HN  UNL     1     -42.339 -48.516   7.661  1.00  0.00     0.196 HD
ENDBRANCH   1  18
TORSDOF 5
ENDMDL
MODEL 2
REMARK VINA RESULT:      -6.9      1.479      2.153
REMARK  5 active torsions:
REMARK  status: ('A' for Active; 'I' for Inactive)
REMARK    1  A    between atoms: C_4  and  N_5 
REMARK       I    between atoms: N_5  and  C_6 
REMARK       I    between atoms: C_6  and  N_8 
REMARK    2  A    between atoms: N_8  and  C_9 
REMARK    3  A    between atoms: C_9  and  C_10 
REMARK    4  A    between atoms: C_10  and  C_11 
REMARK    5  A    between atoms: C_11  and  N_12 
ROOT
HETATM    1  N   UNL     1     -41.442 -47.844  10.307  1.00  0.00    -0.293 N 
HETATM    2  C   UNL     1     -41.012 -48.828  11.152  1.00  0.00     0.321 C 
HETATM    3  O   UNL     1     -39.924 -48.715  11.706  1.00  0.00    -0.247 OA
HETATM    4  N   UNL     1     -41.833 -49.899  11.324  1.00  0.00    -0.343 N 
HETATM    5  H   UNL     1     -40.783 -47.089  10.186  1.00  0.00     0.172 HD
HETATM    6  H   UNL     1     -42.720 -49.870  10.829  1.00  0.00     0.164 HD
ENDROOT
BRANCH   4   7
HETATM    7  C   UNL     1     -41.586 -50.985  12.243  1.00  0.00     0.126 C 
BRANCH   7   8
HETATM    8  C   UNL     1     -42.377 -50.845  13.547  1.00  0.00     0.039 C 
BRANCH   8   9
HETATM    9  C   UNL     1     -43.860 -50.626  13.266  1.00  0.00     0.127 C 
BRANCH   9  10
HETATM   10  N   UNL     1     -44.720 -51.757  13.604  1.00  0.00    -0.352 N 
HETATM   11  C   UNL     1     -45.012 -52.750  12.573  1.00  0.00     0.125 C 
HETATM   12  C   UNL     1     -44.360 -54.095  12.854  1.00  0.00     0.020 C 
HETATM   13  C   UNL     1     -45.176 -54.993  13.783  1.00  0.00     0.002 C 
HETATM   14  C   UNL     1     -45.933 -54.286  14.907  1.00  0.00     0.009 C 
HETATM   15  C   UNL     1     -45.149 -53.175  15.574  1.00  0.00     0.103 C 
HETATM   16  C   UNL     1     -45.215 -51.819  14.895  1.00  0.00     0.219 C 
HETATM   17  O   UNL     1     -45.489 -50.808  15.543  1.00  0.00    -0.273 OA
ENDBRANCH   9  10
ENDBRANCH   8   9
ENDBRANCH   7   8
ENDBRANCH   4   7
BRANCH   1  18
HETATM   18  C   UNL     1     -42.657 -47.754   9.657  1.00  0.00     0.132 A 
HETATM   19  C   UNL     1     -43.873 -47.360  10.265  1.00  0.00     0.084 A 
HETATM   20  C   UNL     1     -44.801 -47.425   9.251  1.00  0.00     0.076 A 
HETATM   21  C   UNL     1     -46.243 -47.161   9.137  1.00  0.00     0.079 C 
HETATM   22  O   UNL     1     -44.183 -47.828   8.112  1.00  0.00    -0.241 OA
HETATM   23  N   UNL     1     -42.848 -48.038   8.363  1.00  0.00    -0.245 N 
ATOM     24  HN  UNL     1     -42.142 -48.350   7.695  1.00  0.00     0.196 HD
ENDBRANCH   1  18
TORSDOF 5
ENDMDL
MODEL 3
REMARK VINA RESULT:      -6.9      1.753      2.437
REMARK  5 active torsions:
REMARK  status: ('A' for Active; 'I' for Inactive)
REMARK    1  A    between atoms: C_4  and  N_5 
REMARK       I    between atoms: N_5  and  C_6 
REMARK       I    between atoms: C_6  and  N_8 
REMARK    2  A    between atoms: N_8  and  C_9 
REMARK    3  A    between atoms: C_9  and  C_10 
REMARK    4  A    between atoms: C_10  and  C_11 
REMARK    5  A    between atoms: C_11  and  N_12 
ROOT
HETATM    1  N   UNL     1     -41.725 -47.223  10.132  1.00  0.00    -0.293 N 
HETATM    2  C   UNL     1     -40.985 -48.075  10.904  1.00  0.00     0.321 C 
HETATM    3  O   UNL     1     -39.981 -47.657  11.471  1.00  0.00    -0.247 OA
HETATM    4  N   UNL     1     -41.415 -49.362  10.992  1.00  0.00    -0.343 N 
HETATM    5  H   UNL     1     -41.346 -46.290  10.072  1.00  0.00     0.172 HD
HETATM    6  H   UNL     1     -42.273 -49.585  10.496  1.00  0.00     0.164 HD
ENDROOT
BRANCH   4   7
HETATM    7  C   UNL     1     -40.814 -50.374  11.829  1.00  0.00     0.126 C 
BRANCH   7   8
HETATM    8  C   UNL     1     -41.848 -51.148  12.652  1.00  0.00     0.039 C 
BRANCH   8   9
HETATM    9  C   UNL     1     -42.177 -52.486  11.997  1.00  0.00     0.127 C 
BRANCH   9  10
HETATM   10  N   UNL     1     -42.284 -53.610  12.922  1.00  0.00    -0.352 N 
HETATM   11  C   UNL     1     -41.059 -54.201  13.454  1.00  0.00     0.125 C 
HETATM   12  C   UNL     1     -40.875 -53.934  14.940  1.00  0.00     0.020 C 
HETATM   13  C   UNL     1     -41.605 -54.930  15.840  1.00  0.00     0.002 C 
HETATM   14  C   UNL     1     -42.962 -55.421  15.336  1.00  0.00     0.009 C 
HETATM   15  C   UNL     1     -43.816 -54.338  14.711  1.00  0.00     0.103 C 
HETATM   16  C   UNL     1     -43.555 -54.055  13.242  1.00  0.00     0.219 C 
HETATM   17  O   UNL     1     -44.487 -54.016  12.438  1.00  0.00    -0.273 OA
ENDBRANCH   9  10
ENDBRANCH   8   9
ENDBRANCH   7   8
ENDBRANCH   4   7
BRANCH   1  18
HETATM   18  C   UNL     1     -42.916 -47.483   9.485  1.00  0.00     0.132 A 
HETATM   19  C   UNL     1     -44.201 -47.314  10.054  1.00  0.00     0.084 A 
HETATM   20  C   UNL     1     -45.070 -47.698   9.059  1.00  0.00     0.076 A 
HETATM   21  C   UNL     1     -46.533 -47.783   8.927  1.00  0.00     0.079 C 
HETATM   22  O   UNL     1     -44.357 -48.068   7.966  1.00  0.00    -0.241 OA
HETATM   23  N   UNL     1     -43.013 -47.939   8.230  1.00  0.00    -0.245 N 
ATOM     24  HN  UNL     1     -42.243 -48.150   7.595  1.00  0.00     0.196 HD
ENDBRANCH   1  18
TORSDOF 5
ENDMDL
MODEL 4
REMARK VINA RESULT:      -6.4      2.060      3.035
REMARK  5 active torsions:
REMARK  status: ('A' for Active; 'I' for Inactive)
REMARK    1  A    between atoms: C_4  and  N_5 
REMARK       I    between atoms: N_5  and  C_6 
REMARK       I    between atoms: C_6  and  N_8 
REMARK    2  A    between atoms: N_8  and  C_9 
REMARK    3  A    between atoms: C_9  and  C_10 
REMARK    4  A    between atoms: C_10  and  C_11 
REMARK    5  A    between atoms: C_11  and  N_12 
ROOT
HETATM    1  N   UNL     1     -39.545 -50.710  12.541  1.00  0.00    -0.293 N 
HETATM    2  C   UNL     1     -39.681 -52.023  12.897  1.00  0.00     0.321 C 
HETATM    3  O   UNL     1     -38.814 -52.556  13.580  1.00  0.00    -0.247 OA
HETATM    4  N   UNL     1     -40.793 -52.671  12.456  1.00  0.00    -0.343 N 
HETATM    5  H   UNL     1     -38.688 -50.284  12.863  1.00  0.00     0.172 HD
HETATM    6  H   UNL     1     -41.452 -52.118  11.916  1.00  0.00     0.164 HD
ENDROOT
BRANCH   4   7
HETATM    7  C   UNL     1     -41.147 -54.026  12.807  1.00  0.00     0.126 C 
BRANCH   7   8
HETATM    8  C   UNL     1     -42.421 -54.102  13.653  1.00  0.00     0.039 C 
BRANCH   8   9
HETATM    9  C   UNL     1     -43.629 -53.598  12.868  1.00  0.00     0.127 C 
BRANCH   9  10
HETATM   10  N   UNL     1     -44.764 -53.186  13.690  1.00  0.00    -0.352 N 
HETATM   11  C   UNL     1     -44.718 -53.441  15.127  1.00  0.00     0.125 C 
HETATM   12  C   UNL     1     -44.592 -52.165  15.946  1.00  0.00     0.020 C 
HETATM   13  C   UNL     1     -45.929 -51.481  16.229  1.00  0.00     0.002 C 
HETATM   14  C   UNL     1     -46.968 -51.546  15.109  1.00  0.00     0.009 C 
HETATM   15  C   UNL     1     -46.394 -51.338  13.724  1.00  0.00     0.103 C 
HETATM   16  C   UNL     1     -45.827 -52.575  13.050  1.00  0.00     0.219 C 
HETATM   17  O   UNL     1     -46.159 -52.868  11.901  1.00  0.00    -0.273 OA
ENDBRANCH   9  10
ENDBRANCH   8   9
ENDBRANCH   7   8
ENDBRANCH   4   7
BRANCH   1  18
HETATM   18  C   UNL     1     -40.441 -49.921  11.850  1.00  0.00     0.132 A 
HETATM   19  C   UNL     1     -41.530 -49.229  12.433  1.00  0.00     0.084 A 
HETATM   20  C   UNL     1     -42.139 -48.593  11.377  1.00  0.00     0.076 A 
HETATM   21  C   UNL     1     -43.304 -47.708  11.222  1.00  0.00     0.079 C 
HETATM   22  O   UNL     1     -41.461 -48.880  10.237  1.00  0.00    -0.241 OA
HETATM   23  N   UNL     1     -40.405 -49.711  10.528  1.00  0.00    -0.245 N 
ATOM     24  HN  UNL     1     -39.727 -50.092   9.867  1.00  0.00     0.196 HD
ENDBRANCH   1  18
TORSDOF 5
ENDMDL
MODEL 5
REMARK VINA RESULT:      -6.4      2.421      3.365
REMARK  5 active torsions:
REMARK  status: ('A' for Active; 'I' for Inactive)
REMARK    1  A    between atoms: C_4  and  N_5 
REMARK       I    between atoms: N_5  and  C_6 
REMARK       I    between atoms: C_6  and  N_8 
REMARK    2  A    between atoms: N_8  and  C_9 
REMARK    3  A    between atoms: C_9  and  C_10 
REMARK    4  A    between atoms: C_10  and  C_11 
REMARK    5  A    between atoms: C_11  and  N_12 
ROOT
HETATM    1  N   UNL     1     -39.003 -50.643  11.937  1.00  0.00    -0.293 N 
HETATM    2  C   UNL     1     -39.183 -51.548  12.945  1.00  0.00     0.321 C 
HETATM    3  O   UNL     1     -38.251 -52.271  13.281  1.00  0.00    -0.247 OA
HETATM    4  N   UNL     1     -40.414 -51.595  13.522  1.00  0.00    -0.343 N 
HETATM    5  H   UNL     1     -38.085 -50.671  11.519  1.00  0.00     0.172 HD
HETATM    6  H   UNL     1     -41.100 -50.931  13.174  1.00  0.00     0.164 HD
ENDROOT
BRANCH   4   7
HETATM    7  C   UNL     1     -40.760 -52.421  14.655  1.00  0.00     0.126 C 
BRANCH   7   8
HETATM    8  C   UNL     1     -41.798 -53.491  14.309  1.00  0.00     0.039 C 
BRANCH   8   9
HETATM    9  C   UNL     1     -42.468 -53.192  12.971  1.00  0.00     0.127 C 
BRANCH   9  10
HETATM   10  N   UNL     1     -43.842 -52.709  13.069  1.00  0.00    -0.352 N 
HETATM   11  C   UNL     1     -44.935 -53.657  12.864  1.00  0.00     0.125 C 
HETATM   12  C   UNL     1     -45.711 -53.943  14.141  1.00  0.00     0.020 C 
HETATM   13  C   UNL     1     -46.810 -52.921  14.434  1.00  0.00     0.002 C 
HETATM   14  C   UNL     1     -46.496 -51.472  14.064  1.00  0.00     0.009 C 
HETATM   15  C   UNL     1     -45.082 -51.043  14.396  1.00  0.00     0.103 C 
HETATM   16  C   UNL     1     -44.030 -51.368  13.351  1.00  0.00     0.219 C 
HETATM   17  O   UNL     1     -43.253 -50.498  12.956  1.00  0.00    -0.273 OA
ENDBRANCH   9  10
ENDBRANCH   8   9
ENDBRANCH   7   8
ENDBRANCH   4   7
BRANCH   1  18
HETATM   18  C   UNL     1     -39.898 -49.699  11.474  1.00  0.00     0.132 A 
HETATM   19  C   UNL     1     -40.161 -48.456  12.099  1.00  0.00     0.084 A 
HETATM   20  C   UNL     1     -41.111 -47.864  11.301  1.00  0.00     0.076 A 
HETATM   21  C   UNL     1     -41.843 -46.588  11.320  1.00  0.00     0.079 C 
HETATM   22  O   UNL     1     -41.396 -48.692  10.264  1.00  0.00    -0.241 OA
HETATM   23  N   UNL     1     -40.645 -49.839  10.372  1.00  0.00    -0.245 N 
ATOM     24  HN  UNL     1     -40.656 -50.638   9.738  1.00  0.00     0.196 HD
ENDBRANCH   1  18
TORSDOF 5
ENDMDL
MODEL 6
REMARK VINA RESULT:      -6.2      3.345      4.093
REMARK  5 active torsions:
REMARK  status: ('A' for Active; 'I' for Inactive)
REMARK    1  A    between atoms: C_4  and  N_5 
REMARK       I    between atoms: N_5  and  C_6 
REMARK       I    between atoms: C_6  and  N_8 
REMARK    2  A    between atoms: N_8  and  C_9 
REMARK    3  A    between atoms: C_9  and  C_10 
REMARK    4  A    between atoms: C_10  and  C_11 
REMARK    5  A    between atoms: C_11  and  N_12 
ROOT
HETATM    1  N   UNL     1     -42.311 -46.113   9.313  1.00  0.00    -0.293 N 
HETATM    2  C   UNL     1     -41.414 -46.419  10.298  1.00  0.00     0.321 C 
HETATM    3  O   UNL     1     -40.627 -45.561  10.685  1.00  0.00    -0.247 OA
HETATM    4  N   UNL     1     -41.447 -47.685  10.794  1.00  0.00    -0.343 N 
HETATM    5  H   UNL     1     -42.223 -45.173   8.955  1.00  0.00     0.172 HD
HETATM    6  H   UNL     1     -42.159 -48.300  10.410  1.00  0.00     0.164 HD
ENDROOT
BRANCH   4   7
HETATM    7  C   UNL     1     -40.640 -48.158  11.893  1.00  0.00     0.126 C 
BRANCH   7   8
HETATM    8  C   UNL     1     -39.983 -49.510  11.602  1.00  0.00     0.039 C 
BRANCH   8   9
HETATM    9  C   UNL     1     -39.245 -50.036  12.830  1.00  0.00     0.127 C 
BRANCH   9  10
HETATM   10  N   UNL     1     -39.817 -51.246  13.415  1.00  0.00    -0.352 N 
HETATM   11  C   UNL     1     -41.150 -51.666  12.994  1.00  0.00     0.125 C 
HETATM   12  C   UNL     1     -41.130 -52.946  12.172  1.00  0.00     0.020 C 
HETATM   13  C   UNL     1     -41.123 -54.220  13.017  1.00  0.00     0.002 C 
HETATM   14  C   UNL     1     -40.323 -54.160  14.318  1.00  0.00     0.009 C 
HETATM   15  C   UNL     1     -38.999 -53.436  14.194  1.00  0.00     0.103 C 
HETATM   16  C   UNL     1     -39.053 -51.927  14.346  1.00  0.00     0.219 C 
HETATM   17  O   UNL     1     -38.285 -51.349  15.116  1.00  0.00    -0.273 OA
ENDBRANCH   9  10
ENDBRANCH   8   9
ENDBRANCH   7   8
ENDBRANCH   4   7
BRANCH   1  18
HETATM   18  C   UNL     1     -43.316 -46.910   8.804  1.00  0.00     0.132 A 
HETATM   19  C   UNL     1     -44.610 -47.038   9.364  1.00  0.00     0.084 A 
HETATM   20  C   UNL     1     -45.255 -47.929   8.538  1.00  0.00     0.076 A 
HETATM   21  C   UNL     1     -46.599 -48.527   8.492  1.00  0.00     0.079 C 
HETATM   22  O   UNL     1     -44.408 -48.306   7.546  1.00  0.00    -0.241 OA
HETATM   23  N   UNL     1     -43.198 -47.676   7.713  1.00  0.00    -0.245 N 
ATOM     24  HN  UNL     1     -42.372 -47.774   7.121  1.00  0.00     0.196 HD
ENDBRANCH   1  18
TORSDOF 5
ENDMDL
MODEL 7
REMARK VINA RESULT:      -6.2      2.710      3.720
REMARK  5 active torsions:
REMARK  status: ('A' for Active; 'I' for Inactive)
REMARK    1  A    between atoms: C_4  and  N_5 
REMARK       I    between atoms: N_5  and  C_6 
REMARK       I    between atoms: C_6  and  N_8 
REMARK    2  A    between atoms: N_8  and  C_9 
REMARK    3  A    between atoms: C_9  and  C_10 
REMARK    4  A    between atoms: C_10  and  C_11 
REMARK    5  A    between atoms: C_11  and  N_12 
ROOT
HETATM    1  N   UNL     1     -38.641 -49.991  11.235  1.00  0.00    -0.293 N 
HETATM    2  C   UNL     1     -38.146 -50.691  12.299  1.00  0.00     0.321 C 
HETATM    3  O   UNL     1     -37.053 -51.239  12.205  1.00  0.00    -0.247 OA
HETATM    4  N   UNL     1     -38.915 -50.740  13.420  1.00  0.00    -0.343 N 
HETATM    5  H   UNL     1     -38.049 -50.014  10.418  1.00  0.00     0.172 HD
HETATM    6  H   UNL     1     -39.792 -50.228  13.387  1.00  0.00     0.164 HD
ENDROOT
BRANCH   4   7
HETATM    7  C   UNL     1     -38.516 -51.353  14.665  1.00  0.00     0.126 C 
BRANCH   7   8
HETATM    8  C   UNL     1     -39.554 -52.348  15.191  1.00  0.00     0.039 C 
BRANCH   8   9
HETATM    9  C   UNL     1     -39.725 -53.521  14.230  1.00  0.00     0.127 C 
BRANCH   9  10
HETATM   10  N   UNL     1     -41.069 -53.672  13.682  1.00  0.00    -0.352 N 
HETATM   11  C   UNL     1     -42.002 -54.576  14.351  1.00  0.00     0.125 C 
HETATM   12  C   UNL     1     -43.147 -53.840  15.030  1.00  0.00     0.020 C 
HETATM   13  C   UNL     1     -44.313 -53.517  14.096  1.00  0.00     0.002 C 
HETATM   14  C   UNL     1     -43.941 -53.149  12.660  1.00  0.00     0.009 C 
HETATM   15  C   UNL     1     -42.730 -52.246  12.550  1.00  0.00     0.103 C 
HETATM   16  C   UNL     1     -41.382 -52.944  12.548  1.00  0.00     0.219 C 
HETATM   17  O   UNL     1     -40.546 -52.687  11.681  1.00  0.00    -0.273 OA
ENDBRANCH   9  10
ENDBRANCH   8   9
ENDBRANCH   7   8
ENDBRANCH   4   7
BRANCH   1  18
HETATM   18  C   UNL     1     -39.804 -49.249  11.174  1.00  0.00     0.132 A 
HETATM   19  C   UNL     1     -39.983 -47.975  11.766  1.00  0.00     0.084 A 
HETATM   20  C   UNL     1     -41.278 -47.632  11.457  1.00  0.00     0.076 A 
HETATM   21  C   UNL     1     -42.145 -46.474  11.727  1.00  0.00     0.079 C 
HETATM   22  O   UNL     1     -41.838 -48.630  10.726  1.00  0.00    -0.241 OA
HETATM   23  N   UNL     1     -40.922 -49.641  10.553  1.00  0.00    -0.245 N 
ATOM     24  HN  UNL     1     -41.067 -50.516  10.049  1.00  0.00     0.196 HD
ENDBRANCH   1  18
TORSDOF 5
ENDMDL
MODEL 8
REMARK VINA RESULT:      -6.1      3.636      6.606
REMARK  5 active torsions:
REMARK  status: ('A' for Active; 'I' for Inactive)
REMARK    1  A    between atoms: C_4  and  N_5 
REMARK       I    between atoms: N_5  and  C_6 
REMARK       I    between atoms: C_6  and  N_8 
REMARK    2  A    between atoms: N_8  and  C_9 
REMARK    3  A    between atoms: C_9  and  C_10 
REMARK    4  A    between atoms: C_10  and  C_11 
REMARK    5  A    between atoms: C_11  and  N_12 
ROOT
HETATM    1  N   UNL     1     -44.080 -55.227  14.588  1.00  0.00    -0.293 N 
HETATM    2  C   UNL     1     -42.900 -55.191  15.277  1.00  0.00     0.321 C 
HETATM    3  O   UNL     1     -42.589 -56.139  15.991  1.00  0.00    -0.247 OA
HETATM    4  N   UNL     1     -42.130 -54.080  15.128  1.00  0.00    -0.343 N 
HETATM    5  H   UNL     1     -44.629 -56.056  14.758  1.00  0.00     0.172 HD
HETATM    6  H   UNL     1     -42.482 -53.371  14.492  1.00  0.00     0.164 HD
ENDROOT
BRANCH   4   7
HETATM    7  C   UNL     1     -40.817 -53.906  15.705  1.00  0.00     0.126 C 
BRANCH   7   8
HETATM    8  C   UNL     1     -39.706 -53.918  14.652  1.00  0.00     0.039 C 
BRANCH   8   9
HETATM    9  C   UNL     1     -40.198 -53.340  13.329  1.00  0.00     0.127 C 
BRANCH   9  10
HETATM   10  N   UNL     1     -39.941 -51.914  13.151  1.00  0.00    -0.352 N 
HETATM   11  C   UNL     1     -38.718 -51.346  13.714  1.00  0.00     0.125 C 
HETATM   12  C   UNL     1     -37.723 -50.919  12.646  1.00  0.00     0.020 C 
HETATM   13  C   UNL     1     -37.979 -49.518  12.091  1.00  0.00     0.002 C 
HETATM   14  C   UNL     1     -39.444 -49.109  11.948  1.00  0.00     0.009 C 
HETATM   15  C   UNL     1     -40.342 -50.208  11.418  1.00  0.00     0.103 C 
HETATM   16  C   UNL     1     -40.882 -51.177  12.455  1.00  0.00     0.219 C 
HETATM   17  O   UNL     1     -42.085 -51.436  12.500  1.00  0.00    -0.273 OA
ENDBRANCH   9  10
ENDBRANCH   8   9
ENDBRANCH   7   8
ENDBRANCH   4   7
BRANCH   1  18
HETATM   18  C   UNL     1     -44.562 -54.303  13.683  1.00  0.00     0.132 A 
HETATM   19  C   UNL     1     -45.693 -53.477  13.894  1.00  0.00     0.084 A 
HETATM   20  C   UNL     1     -45.798 -52.738  12.739  1.00  0.00     0.076 A 
HETATM   21  C   UNL     1     -46.710 -51.693  12.247  1.00  0.00     0.079 C 
HETATM   22  O   UNL     1     -44.797 -53.092  11.894  1.00  0.00    -0.241 OA
HETATM   23  N   UNL     1     -44.028 -54.071  12.478  1.00  0.00    -0.245 N 
ATOM     24  HN  UNL     1     -43.212 -54.530  12.073  1.00  0.00     0.196 HD
ENDBRANCH   1  18
TORSDOF 5
ENDMDL
MODEL 9
REMARK VINA RESULT:      -6.0      2.852      7.110
REMARK  5 active torsions:
REMARK  status: ('A' for Active; 'I' for Inactive)
REMARK    1  A    between atoms: C_4  and  N_5 
REMARK       I    between atoms: N_5  and  C_6 
REMARK       I    between atoms: C_6  and  N_8 
REMARK    2  A    between atoms: N_8  and  C_9 
REMARK    3  A    between atoms: C_9  and  C_10 
REMARK    4  A    between atoms: C_10  and  C_11 
REMARK    5  A    between atoms: C_11  and  N_12 
ROOT
HETATM    1  N   UNL     1     -41.806 -52.437  12.764  1.00  0.00    -0.293 N 
HETATM    2  C   UNL     1     -40.990 -51.480  12.227  1.00  0.00     0.321 C 
HETATM    3  O   UNL     1     -39.774 -51.633  12.264  1.00  0.00    -0.247 OA
HETATM    4  N   UNL     1     -41.593 -50.392  11.677  1.00  0.00    -0.343 N 
HETATM    5  H   UNL     1     -41.310 -53.207  13.189  1.00  0.00     0.172 HD
HETATM    6  H   UNL     1     -42.609 -50.388  11.684  1.00  0.00     0.164 HD
ENDROOT
BRANCH   4   7
HETATM    7  C   UNL     1     -40.899 -49.330  10.987  1.00  0.00     0.126 C 
BRANCH   7   8
HETATM    8  C   UNL     1     -40.625 -48.123  11.888  1.00  0.00     0.039 C 
BRANCH   8   9
HETATM    9  C   UNL     1     -40.022 -46.971  11.091  1.00  0.00     0.127 C 
BRANCH   9  10
HETATM   10  N   UNL     1     -40.843 -45.764  11.043  1.00  0.00    -0.352 N 
HETATM   11  C   UNL     1     -42.209 -45.825  11.556  1.00  0.00     0.125 C 
HETATM   12  C   UNL     1     -42.391 -45.023  12.836  1.00  0.00     0.020 C 
HETATM   13  C   UNL     1     -42.671 -43.539  12.599  1.00  0.00     0.002 C 
HETATM   14  C   UNL     1     -41.942 -42.898  11.419  1.00  0.00     0.009 C 
HETATM   15  C   UNL     1     -40.500 -43.334  11.275  1.00  0.00     0.103 C 
HETATM   16  C   UNL     1     -40.272 -44.624  10.506  1.00  0.00     0.219 C 
HETATM   17  O   UNL     1     -39.448 -44.669   9.592  1.00  0.00    -0.273 OA
ENDBRANCH   9  10
ENDBRANCH   8   9
ENDBRANCH   7   8
ENDBRANCH   4   7
BRANCH   1  18
HETATM   18  C   UNL     1     -43.185 -52.482  12.749  1.00  0.00     0.132 A 
HETATM   19  C   UNL     1     -44.030 -51.728  13.599  1.00  0.00     0.084 A 
HETATM   20  C   UNL     1     -45.303 -52.099  13.235  1.00  0.00     0.076 A 
HETATM   21  C   UNL     1     -46.661 -51.736  13.670  1.00  0.00     0.079 C 
HETATM   22  O   UNL     1     -45.229 -53.012  12.233  1.00  0.00    -0.241 OA
HETATM   23  N   UNL     1     -43.910 -53.255  11.931  1.00  0.00    -0.245 N 
ATOM     24  HN  UNL     1     -43.554 -53.899  11.224  1.00  0.00     0.196 HD
ENDBRANCH   1  18
TORSDOF 5
ENDMDL
