MODEL 1
REMARK VINA RESULT:      -6.2      0.000      0.000
REMARK  4 active torsions:
REMARK  status: ('A' for Active; 'I' for Inactive)
REMARK    1  A    between atoms: N_6  and  C_7 
REMARK    2  A    between atoms: C_7  and  C_8 
REMARK       I    between atoms: C_8  and  N_10 
REMARK    3  A    between atoms: N_10  and  C_11 
REMARK    4  A    between atoms: C_11  and  C_12 
ROOT
HETATM    1  C   UNL     1     -41.249 -52.607  12.154  1.00  0.00     0.255 C 
ENDROOT
BRANCH   1   2
HETATM    2  N   UNL     1     -40.789 -51.232  11.963  1.00  0.00    -0.248 N 
HETATM    3  N   UNL     1     -41.705 -50.338  11.459  1.00  0.00    -0.305 N 
HETATM    4  C   UNL     1     -41.347 -49.095  11.417  1.00  0.00     0.133 A 
ATOM      5  HN  UNL     1     -42.624 -50.641  11.133  1.00  0.00     0.186 HD
HETATM    6  C   UNL     1     -40.048 -48.562  11.842  1.00  0.00     0.078 A 
HETATM    7 CL   UNL     1     -39.812 -46.869  11.690  1.00  0.00    -0.081 Cl
HETATM    8  C   UNL     1     -39.154 -49.438  12.301  1.00  0.00     0.126 A 
HETATM    9  C   UNL     1     -39.504 -50.886  12.389  1.00  0.00     0.285 A 
HETATM   10 CL   UNL     1     -37.575 -48.976  12.833  1.00  0.00    -0.076 Cl
HETATM   11  O   UNL     1     -38.700 -51.707  12.823  1.00  0.00    -0.265 OA
ENDBRANCH   1   2
BRANCH   1  12
HETATM   12  C   UNL     1     -42.283 -52.762  13.267  1.00  0.00     0.237 C 
HETATM   13  O   UNL     1     -42.391 -51.916  14.154  1.00  0.00    -0.272 OA
HETATM   14  N   UNL     1     -43.182 -53.799  13.112  1.00  0.00    -0.359 N 
HETATM   15  H   UNL     1     -43.052 -54.422  12.322  1.00  0.00     0.162 HD
BRANCH  14  16
HETATM   16  C   UNL     1     -44.204 -54.073  14.100  1.00  0.00     0.127 C 
BRANCH  16  17
HETATM   17  C   UNL     1     -45.647 -53.958  13.568  1.00  0.00     0.003 C 
HETATM   18  C   UNL     1     -45.898 -52.717  12.695  1.00  0.00     0.006 C 
HETATM   19  C   UNL     1     -45.854 -51.412  13.487  1.00  0.00     0.000 C 
HETATM   20  C   UNL     1     -46.798 -51.435  14.686  1.00  0.00     0.000 C 
HETATM   21  C   UNL     1     -46.607 -52.671  15.560  1.00  0.00     0.000 C 
HETATM   22  C   UNL     1     -46.650 -53.963  14.739  1.00  0.00     0.006 C 
ENDBRANCH  16  17
ENDBRANCH  14  16
ENDBRANCH   1  12
TORSDOF 4
ENDMDL
MODEL 2
REMARK VINA RESULT:      -5.9      3.573      6.196
REMARK  4 active torsions:
REMARK  status: ('A' for Active; 'I' for Inactive)
REMARK    1  A    between atoms: N_6  and  C_7 
REMARK    2  A    between atoms: C_7  and  C_8 
REMARK       I    between atoms: C_8  and  N_10 
REMARK    3  A    between atoms: N_10  and  C_11 
REMARK    4  A    between atoms: C_11  and  C_12 
ROOT
HETATM    1  C   UNL     1     -40.831 -52.572  11.955  1.00  0.00     0.255 C 
ENDROOT
BRANCH   1   2
HETATM    2  N   UNL     1     -42.020 -53.129  12.601  1.00  0.00    -0.248 N 
HETATM    3  N   UNL     1     -43.224 -52.908  11.975  1.00  0.00    -0.305 N 
HETATM    4  C   UNL     1     -44.257 -53.513  12.466  1.00  0.00     0.133 A 
ATOM      5  HN  UNL     1     -43.300 -52.296  11.161  1.00  0.00     0.186 HD
HETATM    6  C   UNL     1     -44.258 -54.394  13.639  1.00  0.00     0.078 A 
HETATM    7 CL   UNL     1     -45.762 -55.083  14.095  1.00  0.00    -0.081 Cl
HETATM    8  C   UNL     1     -43.093 -54.580  14.259  1.00  0.00     0.126 A 
HETATM    9  C   UNL     1     -41.858 -53.924  13.738  1.00  0.00     0.285 A 
HETATM   10 CL   UNL     1     -42.923 -55.581  15.658  1.00  0.00    -0.076 Cl
HETATM   11  O   UNL     1     -40.772 -54.094  14.286  1.00  0.00    -0.265 OA
ENDBRANCH   1   2
BRANCH   1  12
HETATM   12  C   UNL     1     -40.666 -51.068  12.160  1.00  0.00     0.237 C 
HETATM   13  O   UNL     1     -40.265 -50.615  13.231  1.00  0.00    -0.272 OA
HETATM   14  N   UNL     1     -40.823 -50.287  11.032  1.00  0.00    -0.359 N 
HETATM   15  H   UNL     1     -41.106 -50.749  10.174  1.00  0.00     0.162 HD
BRANCH  14  16
HETATM   16  C   UNL     1     -40.713 -48.844  11.085  1.00  0.00     0.127 C 
BRANCH  16  17
HETATM   17  C   UNL     1     -41.989 -48.096  10.646  1.00  0.00     0.003 C 
HETATM   18  C   UNL     1     -41.785 -46.590  10.408  1.00  0.00     0.006 C 
HETATM   19  C   UNL     1     -41.511 -45.815  11.695  1.00  0.00     0.000 C 
HETATM   20  C   UNL     1     -42.584 -46.058  12.752  1.00  0.00     0.000 C 
HETATM   21  C   UNL     1     -42.845 -47.543  12.992  1.00  0.00     0.000 C 
HETATM   22  C   UNL     1     -43.110 -48.295  11.686  1.00  0.00     0.006 C 
ENDBRANCH  16  17
ENDBRANCH  14  16
ENDBRANCH   1  12
TORSDOF 4
ENDMDL
MODEL 3
REMARK VINA RESULT:      -5.8      2.801      4.263
REMARK  4 active torsions:
REMARK  status: ('A' for Active; 'I' for Inactive)
REMARK    1  A    between atoms: N_6  and  C_7 
REMARK    2  A    between atoms: C_7  and  C_8 
REMARK       I    between atoms: C_8  and  N_10 
REMARK    3  A    between atoms: N_10  and  C_11 
REMARK    4  A    between atoms: C_11  and  C_12 
ROOT
HETATM    1  C   UNL     1     -40.562 -49.068  11.300  1.00  0.00     0.255 C 
ENDROOT
BRANCH   1   2
HETATM    2  N   UNL     1     -41.396 -48.025  10.702  1.00  0.00    -0.248 N 
HETATM    3  N   UNL     1     -42.213 -48.407   9.663  1.00  0.00    -0.305 N 
HETATM    4  C   UNL     1     -43.050 -47.524   9.223  1.00  0.00     0.133 A 
ATOM      5  HN  UNL     1     -42.161 -49.343   9.259  1.00  0.00     0.186 HD
HETATM    6  C   UNL     1     -43.189 -46.151   9.722  1.00  0.00     0.078 A 
HETATM    7 CL   UNL     1     -44.379 -45.167   8.973  1.00  0.00    -0.081 Cl
HETATM    8  C   UNL     1     -42.373 -45.778  10.708  1.00  0.00     0.126 A 
HETATM    9  C   UNL     1     -41.392 -46.751  11.273  1.00  0.00     0.285 A 
HETATM   10 CL   UNL     1     -42.403 -44.196  11.403  1.00  0.00    -0.076 Cl
HETATM   11  O   UNL     1     -40.642 -46.432  12.191  1.00  0.00    -0.265 OA
ENDBRANCH   1   2
BRANCH   1  12
HETATM   12  C   UNL     1     -41.270 -49.879  12.382  1.00  0.00     0.237 C 
HETATM   13  O   UNL     1     -41.277 -49.501  13.553  1.00  0.00    -0.272 OA
HETATM   14  N   UNL     1     -42.031 -50.942  11.936  1.00  0.00    -0.359 N 
HETATM   15  H   UNL     1     -42.009 -51.155  10.944  1.00  0.00     0.162 HD
BRANCH  14  16
HETATM   16  C   UNL     1     -42.741 -51.807  12.855  1.00  0.00     0.127 C 
BRANCH  16  17
HETATM   17  C   UNL     1     -42.810 -53.282  12.409  1.00  0.00     0.003 C 
HETATM   18  C   UNL     1     -44.154 -53.967  12.709  1.00  0.00     0.006 C 
HETATM   19  C   UNL     1     -44.395 -54.181  14.202  1.00  0.00     0.000 C 
HETATM   20  C   UNL     1     -43.242 -54.927  14.869  1.00  0.00     0.000 C 
HETATM   21  C   UNL     1     -41.884 -54.300  14.565  1.00  0.00     0.000 C 
HETATM   22  C   UNL     1     -41.674 -54.093  13.063  1.00  0.00     0.006 C 
ENDBRANCH  16  17
ENDBRANCH  14  16
ENDBRANCH   1  12
TORSDOF 4
ENDMDL
MODEL 4
REMARK VINA RESULT:      -5.8      1.425      1.796
REMARK  4 active torsions:
REMARK  status: ('A' for Active; 'I' for Inactive)
REMARK    1  A    between atoms: N_6  and  C_7 
REMARK    2  A    between atoms: C_7  and  C_8 
REMARK       I    between atoms: C_8  and  N_10 
REMARK    3  A    between atoms: N_10  and  C_11 
REMARK    4  A    between atoms: C_11  and  C_12 
ROOT
HETATM    1  C   UNL     1     -41.090 -53.727  12.566  1.00  0.00     0.255 C 
ENDROOT
BRANCH   1   2
HETATM    2  N   UNL     1     -40.444 -52.416  12.503  1.00  0.00    -0.248 N 
HETATM    3  N   UNL     1     -40.829 -51.585  11.477  1.00  0.00    -0.305 N 
HETATM    4  C   UNL     1     -40.364 -50.378  11.497  1.00  0.00     0.133 A 
ATOM      5  HN  UNL     1     -41.452 -51.906  10.735  1.00  0.00     0.186 HD
HETATM    6  C   UNL     1     -39.450 -49.827  12.504  1.00  0.00     0.078 A 
HETATM    7 CL   UNL     1     -38.975 -48.190  12.313  1.00  0.00    -0.081 Cl
HETATM    8  C   UNL     1     -39.057 -50.647  13.480  1.00  0.00     0.126 A 
HETATM    9  C   UNL     1     -39.566 -52.049  13.525  1.00  0.00     0.285 A 
HETATM   10 CL   UNL     1     -37.979 -50.158  14.739  1.00  0.00    -0.076 Cl
HETATM   11  O   UNL     1     -39.227 -52.816  14.423  1.00  0.00    -0.265 OA
ENDBRANCH   1   2
BRANCH   1  12
HETATM   12  C   UNL     1     -42.493 -53.694  13.167  1.00  0.00     0.237 C 
HETATM   13  O   UNL     1     -42.680 -53.964  14.353  1.00  0.00    -0.272 OA
HETATM   14  N   UNL     1     -43.485 -53.183  12.353  1.00  0.00    -0.359 N 
HETATM   15  H   UNL     1     -43.234 -52.937  11.401  1.00  0.00     0.162 HD
BRANCH  14  16
HETATM   16  C   UNL     1     -44.864 -53.111  12.788  1.00  0.00     0.127 C 
BRANCH  16  17
HETATM   17  C   UNL     1     -45.425 -51.677  12.883  1.00  0.00     0.003 C 
HETATM   18  C   UNL     1     -44.545 -50.710  13.693  1.00  0.00     0.006 C 
HETATM   19  C   UNL     1     -44.523 -51.032  15.185  1.00  0.00     0.000 C 
HETATM   20  C   UNL     1     -45.928 -51.116  15.776  1.00  0.00     0.000 C 
HETATM   21  C   UNL     1     -46.846 -52.038  14.978  1.00  0.00     0.000 C 
HETATM   22  C   UNL     1     -46.843 -51.696  13.486  1.00  0.00     0.006 C 
ENDBRANCH  16  17
ENDBRANCH  14  16
ENDBRANCH   1  12
TORSDOF 4
ENDMDL
MODEL 5
REMARK VINA RESULT:      -5.8      1.975      2.584
REMARK  4 active torsions:
REMARK  status: ('A' for Active; 'I' for Inactive)
REMARK    1  A    between atoms: N_6  and  C_7 
REMARK    2  A    between atoms: C_7  and  C_8 
REMARK       I    between atoms: C_8  and  N_10 
REMARK    3  A    between atoms: N_10  and  C_11 
REMARK    4  A    between atoms: C_11  and  C_12 
ROOT
HETATM    1  C   UNL     1     -41.094 -50.279  11.466  1.00  0.00     0.255 C 
ENDROOT
BRANCH   1   2
HETATM    2  N   UNL     1     -41.404 -48.880  11.173  1.00  0.00    -0.248 N 
HETATM    3  N   UNL     1     -42.689 -48.605  10.766  1.00  0.00    -0.305 N 
HETATM    4  C   UNL     1     -43.007 -47.357  10.639  1.00  0.00     0.133 A 
ATOM      5  HN  UNL     1     -43.360 -49.349  10.574  1.00  0.00     0.186 HD
HETATM    6  C   UNL     1     -42.113 -46.216  10.871  1.00  0.00     0.078 A 
HETATM    7 CL   UNL     1     -42.772 -44.649  10.637  1.00  0.00    -0.081 Cl
HETATM    8  C   UNL     1     -40.861 -46.492  11.236  1.00  0.00     0.126 A 
HETATM    9  C   UNL     1     -40.431 -47.909  11.415  1.00  0.00     0.285 A 
HETATM   10 CL   UNL     1     -39.681 -45.265  11.542  1.00  0.00    -0.076 Cl
HETATM   11  O   UNL     1     -39.286 -48.184  11.765  1.00  0.00    -0.265 OA
ENDBRANCH   1   2
BRANCH   1  12
HETATM   12  C   UNL     1     -41.968 -50.888  12.560  1.00  0.00     0.237 C 
HETATM   13  O   UNL     1     -42.233 -50.258  13.583  1.00  0.00    -0.272 OA
HETATM   14  N   UNL     1     -42.567 -52.093  12.250  1.00  0.00    -0.359 N 
HETATM   15  H   UNL     1     -42.332 -52.522  11.361  1.00  0.00     0.162 HD
BRANCH  14  16
HETATM   16  C   UNL     1     -43.405 -52.792  13.201  1.00  0.00     0.127 C 
BRANCH  16  17
HETATM   17  C   UNL     1     -44.713 -53.351  12.602  1.00  0.00     0.003 C 
HETATM   18  C   UNL     1     -45.844 -52.316  12.487  1.00  0.00     0.006 C 
HETATM   19  C   UNL     1     -46.396 -51.882  13.842  1.00  0.00     0.000 C 
HETATM   20  C   UNL     1     -46.831 -53.072  14.694  1.00  0.00     0.000 C 
HETATM   21  C   UNL     1     -45.748 -54.142  14.803  1.00  0.00     0.000 C 
HETATM   22  C   UNL     1     -45.209 -54.553  13.431  1.00  0.00     0.006 C 
ENDBRANCH  16  17
ENDBRANCH  14  16
ENDBRANCH   1  12
TORSDOF 4
ENDMDL
MODEL 6
REMARK VINA RESULT:      -5.8      1.993      2.761
REMARK  4 active torsions:
REMARK  status: ('A' for Active; 'I' for Inactive)
REMARK    1  A    between atoms: N_6  and  C_7 
REMARK    2  A    between atoms: C_7  and  C_8 
REMARK       I    between atoms: C_8  and  N_10 
REMARK    3  A    between atoms: N_10  and  C_11 
REMARK    4  A    between atoms: C_11  and  C_12 
ROOT
HETATM    1  C   UNL     1     -41.296 -54.246  13.011  1.00  0.00     0.255 C 
ENDROOT
BRANCH   1   2
HETATM    2  N   UNL     1     -40.428 -53.123  13.363  1.00  0.00    -0.248 N 
HETATM    3  N   UNL     1     -39.631 -53.282  14.473  1.00  0.00    -0.305 N 
HETATM    4  C   UNL     1     -38.765 -52.350  14.709  1.00  0.00     0.133 A 
ATOM      5  HN  UNL     1     -39.719 -54.096  15.083  1.00  0.00     0.186 HD
HETATM    6  C   UNL     1     -38.572 -51.135  13.908  1.00  0.00     0.078 A 
HETATM    7 CL   UNL     1     -37.351 -50.046  14.425  1.00  0.00    -0.081 Cl
HETATM    8  C   UNL     1     -39.368 -50.973  12.851  1.00  0.00     0.126 A 
HETATM    9  C   UNL     1     -40.381 -52.015  12.513  1.00  0.00     0.285 A 
HETATM   10 CL   UNL     1     -39.277 -49.597  11.810  1.00  0.00    -0.076 Cl
HETATM   11  O   UNL     1     -41.114 -51.893  11.535  1.00  0.00    -0.265 OA
ENDBRANCH   1   2
BRANCH   1  12
HETATM   12  C   UNL     1     -42.745 -54.070  13.460  1.00  0.00     0.237 C 
HETATM   13  O   UNL     1     -43.093 -54.358  14.605  1.00  0.00    -0.272 OA
HETATM   14  N   UNL     1     -43.575 -53.416  12.570  1.00  0.00    -0.359 N 
HETATM   15  H   UNL     1     -43.192 -53.167  11.664  1.00  0.00     0.162 HD
BRANCH  14  16
HETATM   16  C   UNL     1     -44.977 -53.198  12.858  1.00  0.00     0.127 C 
BRANCH  16  17
HETATM   17  C   UNL     1     -45.388 -51.713  12.916  1.00  0.00     0.003 C 
HETATM   18  C   UNL     1     -44.437 -50.828  13.740  1.00  0.00     0.006 C 
HETATM   19  C   UNL     1     -44.492 -51.127  15.237  1.00  0.00     0.000 C 
HETATM   20  C   UNL     1     -45.915 -51.055  15.785  1.00  0.00     0.000 C 
HETATM   21  C   UNL     1     -46.900 -51.891  14.971  1.00  0.00     0.000 C 
HETATM   22  C   UNL     1     -46.818 -51.575  13.476  1.00  0.00     0.006 C 
ENDBRANCH  16  17
ENDBRANCH  14  16
ENDBRANCH   1  12
TORSDOF 4
ENDMDL
MODEL 7
REMARK VINA RESULT:      -5.7      3.051      4.856
REMARK  4 active torsions:
REMARK  status: ('A' for Active; 'I' for Inactive)
REMARK    1  A    between atoms: N_6  and  C_7 
REMARK    2  A    between atoms: C_7  and  C_8 
REMARK       I    between atoms: C_8  and  N_10 
REMARK    3  A    between atoms: N_10  and  C_11 
REMARK    4  A    between atoms: C_11  and  C_12 
ROOT
HETATM    1  C   UNL     1     -41.819 -48.210  10.453  1.00  0.00     0.255 C 
ENDROOT
BRANCH   1   2
HETATM    2  N   UNL     1     -41.424 -46.869  10.885  1.00  0.00    -0.248 N 
HETATM    3  N   UNL     1     -40.324 -46.320  10.268  1.00  0.00    -0.305 N 
HETATM    4  C   UNL     1     -40.054 -45.085  10.547  1.00  0.00     0.133 A 
ATOM      5  HN  UNL     1     -39.749 -46.860   9.622  1.00  0.00     0.186 HD
HETATM    6  C   UNL     1     -40.806 -44.231  11.473  1.00  0.00     0.078 A 
HETATM    7 CL   UNL     1     -40.249 -42.620  11.674  1.00  0.00    -0.081 Cl
HETATM    8  C   UNL     1     -41.853 -44.779  12.091  1.00  0.00     0.126 A 
HETATM    9  C   UNL     1     -42.229 -46.194  11.806  1.00  0.00     0.285 A 
HETATM   10 CL   UNL     1     -42.837 -43.912  13.217  1.00  0.00    -0.076 Cl
HETATM   11  O   UNL     1     -43.199 -46.714  12.353  1.00  0.00    -0.265 OA
ENDBRANCH   1   2
BRANCH   1  12
HETATM   12  C   UNL     1     -41.188 -49.332  11.274  1.00  0.00     0.237 C 
HETATM   13  O   UNL     1     -39.973 -49.370  11.467  1.00  0.00    -0.272 OA
HETATM   14  N   UNL     1     -42.072 -50.179  11.914  1.00  0.00    -0.359 N 
HETATM   15  H   UNL     1     -43.063 -50.047  11.740  1.00  0.00     0.162 HD
BRANCH  14  16
HETATM   16  C   UNL     1     -41.611 -51.298  12.710  1.00  0.00     0.127 C 
BRANCH  16  17
HETATM   17  C   UNL     1     -41.981 -52.680  12.132  1.00  0.00     0.003 C 
HETATM   18  C   UNL     1     -43.432 -53.109  12.406  1.00  0.00     0.006 C 
HETATM   19  C   UNL     1     -43.695 -53.413  13.879  1.00  0.00     0.000 C 
HETATM   20  C   UNL     1     -42.709 -54.435  14.440  1.00  0.00     0.000 C 
HETATM   21  C   UNL     1     -41.256 -54.065  14.156  1.00  0.00     0.000 C 
HETATM   22  C   UNL     1     -41.023 -53.759  12.674  1.00  0.00     0.006 C 
ENDBRANCH  16  17
ENDBRANCH  14  16
ENDBRANCH   1  12
TORSDOF 4
ENDMDL
MODEL 8
REMARK VINA RESULT:      -5.5      2.114      2.866
REMARK  4 active torsions:
REMARK  status: ('A' for Active; 'I' for Inactive)
REMARK    1  A    between atoms: N_6  and  C_7 
REMARK    2  A    between atoms: C_7  and  C_8 
REMARK       I    between atoms: C_8  and  N_10 
REMARK    3  A    between atoms: N_10  and  C_11 
REMARK    4  A    between atoms: C_11  and  C_12 
ROOT
HETATM    1  C   UNL     1     -41.500 -54.595  14.391  1.00  0.00     0.255 C 
ENDROOT
BRANCH   1   2
HETATM    2  N   UNL     1     -41.042 -53.487  13.553  1.00  0.00    -0.248 N 
HETATM    3  N   UNL     1     -41.856 -53.129  12.503  1.00  0.00    -0.305 N 
HETATM    4  C   UNL     1     -41.526 -52.066  11.845  1.00  0.00     0.133 A 
ATOM      5  HN  UNL     1     -42.680 -53.677  12.255  1.00  0.00     0.186 HD
HETATM    6  C   UNL     1     -40.354 -51.222  12.108  1.00  0.00     0.078 A 
HETATM    7 CL   UNL     1     -40.132 -49.857  11.093  1.00  0.00    -0.081 Cl
HETATM    8  C   UNL     1     -39.554 -51.592  13.109  1.00  0.00     0.126 A 
HETATM    9  C   UNL     1     -39.882 -52.801  13.919  1.00  0.00     0.285 A 
HETATM   10 CL   UNL     1     -38.130 -50.713  13.545  1.00  0.00    -0.076 Cl
HETATM   11  O   UNL     1     -39.165 -53.150  14.854  1.00  0.00    -0.265 OA
ENDBRANCH   1   2
BRANCH   1  12
HETATM   12  C   UNL     1     -42.852 -54.348  15.056  1.00  0.00     0.237 C 
HETATM   13  O   UNL     1     -43.687 -55.248  15.146  1.00  0.00    -0.272 OA
HETATM   14  N   UNL     1     -42.997 -53.129  15.688  1.00  0.00    -0.359 N 
HETATM   15  H   UNL     1     -42.237 -52.462  15.607  1.00  0.00     0.162 HD
BRANCH  14  16
HETATM   16  C   UNL     1     -44.234 -52.755  16.342  1.00  0.00     0.127 C 
BRANCH  16  17
HETATM   17  C   UNL     1     -44.682 -51.305  16.066  1.00  0.00     0.003 C 
HETATM   18  C   UNL     1     -46.172 -51.043  16.343  1.00  0.00     0.006 C 
HETATM   19  C   UNL     1     -47.096 -51.748  15.353  1.00  0.00     0.000 C 
HETATM   20  C   UNL     1     -46.745 -51.417  13.905  1.00  0.00     0.000 C 
HETATM   21  C   UNL     1     -45.265 -51.628  13.597  1.00  0.00     0.000 C 
HETATM   22  C   UNL     1     -44.364 -50.916  14.608  1.00  0.00     0.006 C 
ENDBRANCH  16  17
ENDBRANCH  14  16
ENDBRANCH   1  12
TORSDOF 4
ENDMDL
MODEL 9
REMARK VINA RESULT:      -5.5      3.592      6.731
REMARK  4 active torsions:
REMARK  status: ('A' for Active; 'I' for Inactive)
REMARK    1  A    between atoms: N_6  and  C_7 
REMARK    2  A    between atoms: C_7  and  C_8 
REMARK       I    between atoms: C_8  and  N_10 
REMARK    3  A    between atoms: N_10  and  C_11 
REMARK    4  A    between atoms: C_11  and  C_12 
ROOT
HETATM    1  C   UNL     1     -41.447 -54.177  14.240  1.00  0.00     0.255 C 
ENDROOT
BRANCH   1   2
HETATM    2  N   UNL     1     -42.765 -53.547  14.312  1.00  0.00    -0.248 N 
HETATM    3  N   UNL     1     -42.826 -52.206  14.011  1.00  0.00    -0.305 N 
HETATM    4  C   UNL     1     -44.005 -51.677  13.940  1.00  0.00     0.133 A 
ATOM      5  HN  UNL     1     -41.982 -51.655  13.851  1.00  0.00     0.186 HD
HETATM    6  C   UNL     1     -45.275 -52.376  14.170  1.00  0.00     0.078 A 
HETATM    7 CL   UNL     1     -46.712 -51.453  14.014  1.00  0.00    -0.081 Cl
HETATM    8  C   UNL     1     -45.206 -53.668  14.491  1.00  0.00     0.126 A 
HETATM    9  C   UNL     1     -43.880 -54.346  14.578  1.00  0.00     0.285 A 
HETATM   10 CL   UNL     1     -46.606 -54.634  14.802  1.00  0.00    -0.076 Cl
HETATM   11  O   UNL     1     -43.795 -55.539  14.858  1.00  0.00    -0.265 OA
ENDBRANCH   1   2
BRANCH   1  12
HETATM   12  C   UNL     1     -40.400 -53.335  13.514  1.00  0.00     0.237 C 
HETATM   13  O   UNL     1     -40.443 -53.186  12.293  1.00  0.00    -0.272 OA
HETATM   14  N   UNL     1     -39.531 -52.628  14.322  1.00  0.00    -0.359 N 
HETATM   15  H   UNL     1     -39.597 -52.771  15.324  1.00  0.00     0.162 HD
BRANCH  14  16
HETATM   16  C   UNL     1     -38.477 -51.805  13.767  1.00  0.00     0.127 C 
BRANCH  16  17
HETATM   17  C   UNL     1     -38.571 -50.314  14.150  1.00  0.00     0.003 C 
HETATM   18  C   UNL     1     -39.998 -49.741  14.101  1.00  0.00     0.006 C 
HETATM   19  C   UNL     1     -40.550 -49.636  12.681  1.00  0.00     0.000 C 
HETATM   20  C   UNL     1     -39.617 -48.856  11.758  1.00  0.00     0.000 C 
HETATM   21  C   UNL     1     -38.181 -49.369  11.805  1.00  0.00     0.000 C 
HETATM   22  C   UNL     1     -37.656 -49.470  13.240  1.00  0.00     0.006 C 
ENDBRANCH  16  17
ENDBRANCH  14  16
ENDBRANCH   1  12
TORSDOF 4
ENDMDL
