MODEL 1
REMARK VINA RESULT:      -5.6      0.000      0.000
REMARK  4 active torsions:
REMARK  status: ('A' for Active; 'I' for Inactive)
REMARK    1  A    between atoms: C_2  and  N_3 
REMARK    2  A    between atoms: C_5  and  N_6 
REMARK       I    between atoms: N_6  and  C_7 
REMARK       I    between atoms: C_7  and  N_9 
REMARK    3  A    between atoms: N_9  and  C_10 
REMARK    4  A    between atoms: C_13  and  O_14 
ROOT
HETATM    1  N   UNL     1     -41.099 -50.440  11.452  1.00  0.00    -0.306 N 
HETATM    2  C   UNL     1     -41.947 -49.433  11.861  1.00  0.00     0.321 C 
HETATM    3  O   UNL     1     -42.220 -49.149  13.021  1.00  0.00    -0.247 OA
HETATM    4  N   UNL     1     -42.468 -48.715  10.804  1.00  0.00    -0.338 N 
HETATM    5  H   UNL     1     -40.912 -50.555  10.468  1.00  0.00     0.171 HD
HETATM    6  H   UNL     1     -42.541 -49.193   9.918  1.00  0.00     0.164 HD
ENDROOT
BRANCH   1   7
HETATM    7  C   UNL     1     -40.422 -51.272  12.329  1.00  0.00     0.070 A 
HETATM    8  C   UNL     1     -40.859 -52.463  12.856  1.00  0.00     0.141 A 
HETATM    9  N   UNL     1     -39.861 -52.933  13.652  1.00  0.00    -0.302 N 
HETATM   10  N   UNL     1     -38.790 -52.117  13.698  1.00  0.00    -0.308 N 
HETATM   11  C   UNL     1     -39.135 -51.107  12.891  1.00  0.00     0.138 A 
ATOM     12  HN  UNL     1     -37.923 -52.240  14.222  1.00  0.00     0.186 HD
BRANCH   9  13
HETATM   13  C   UNL     1     -39.878 -54.192  14.368  1.00  0.00     0.143 C 
HETATM   14  C   UNL     1     -41.251 -54.519  14.928  1.00  0.00     0.028 C 
ENDBRANCH   9  13
ENDBRANCH   1   7
BRANCH   4  15
HETATM   15  C   UNL     1     -43.417 -47.640  11.089  1.00  0.00     0.086 C 
HETATM   16  C   UNL     1     -44.515 -47.569  10.019  1.00  0.00     0.028 C 
HETATM   17  C   UNL     1     -44.020 -46.953   8.708  1.00  0.00     0.034 C 
HETATM   18  C   UNL     1     -43.330 -45.607   8.915  1.00  0.00     0.118 C 
HETATM   19  C   UNL     1     -42.227 -45.680   9.969  1.00  0.00     0.034 C 
HETATM   20  C   UNL     1     -42.708 -46.298  11.280  1.00  0.00     0.028 C 
BRANCH  18  21
HETATM   21  O   UNL     1     -44.286 -44.612   9.276  1.00  0.00    -0.396 OA
HETATM   22  H   UNL     1     -44.790 -44.347   8.489  1.00  0.00     0.210 HD
ENDBRANCH  18  21
ENDBRANCH   4  15
TORSDOF 4
ENDMDL
MODEL 2
REMARK VINA RESULT:      -5.6      3.066      7.162
REMARK  4 active torsions:
REMARK  status: ('A' for Active; 'I' for Inactive)
REMARK    1  A    between atoms: C_2  and  N_3 
REMARK    2  A    between atoms: C_5  and  N_6 
REMARK       I    between atoms: N_6  and  C_7 
REMARK       I    between atoms: C_7  and  N_9 
REMARK    3  A    between atoms: N_9  and  C_10 
REMARK    4  A    between atoms: C_13  and  O_14 
ROOT
HETATM    1  N   UNL     1     -42.053 -49.651  11.393  1.00  0.00    -0.306 N 
HETATM    2  C   UNL     1     -42.780 -49.900  12.538  1.00  0.00     0.321 C 
HETATM    3  O   UNL     1     -43.223 -49.054  13.306  1.00  0.00    -0.247 OA
HETATM    4  N   UNL     1     -43.007 -51.245  12.742  1.00  0.00    -0.338 N 
HETATM    5  H   UNL     1     -41.778 -50.426  10.808  1.00  0.00     0.171 HD
HETATM    6  H   UNL     1     -42.337 -51.888  12.346  1.00  0.00     0.164 HD
ENDROOT
BRANCH   1   7
HETATM    7  C   UNL     1     -41.733 -48.378  10.952  1.00  0.00     0.070 A 
HETATM    8  C   UNL     1     -40.646 -47.618  11.311  1.00  0.00     0.141 A 
HETATM    9  N   UNL     1     -40.735 -46.449  10.621  1.00  0.00    -0.302 N 
HETATM   10  N   UNL     1     -41.828 -46.379   9.835  1.00  0.00    -0.308 N 
HETATM   11  C   UNL     1     -42.432 -47.555  10.039  1.00  0.00     0.138 A 
ATOM     12  HN  UNL     1     -42.123 -45.612   9.229  1.00  0.00     0.186 HD
BRANCH   9  13
HETATM   13  C   UNL     1     -39.766 -45.373  10.661  1.00  0.00     0.143 C 
HETATM   14  C   UNL     1     -40.405 -44.031  10.968  1.00  0.00     0.028 C 
ENDBRANCH   9  13
ENDBRANCH   1   7
BRANCH   4  15
HETATM   15  C   UNL     1     -43.732 -51.658  13.942  1.00  0.00     0.086 C 
HETATM   16  C   UNL     1     -43.039 -52.841  14.632  1.00  0.00     0.028 C 
HETATM   17  C   UNL     1     -43.259 -54.163  13.894  1.00  0.00     0.034 C 
HETATM   18  C   UNL     1     -44.734 -54.443  13.616  1.00  0.00     0.118 C 
HETATM   19  C   UNL     1     -45.421 -53.272  12.915  1.00  0.00     0.034 C 
HETATM   20  C   UNL     1     -45.204 -51.946  13.640  1.00  0.00     0.028 C 
BRANCH  18  21
HETATM   21  O   UNL     1     -45.415 -54.756  14.828  1.00  0.00    -0.396 OA
HETATM   22  H   UNL     1     -44.968 -55.496  15.269  1.00  0.00     0.210 HD
ENDBRANCH  18  21
ENDBRANCH   4  15
TORSDOF 4
ENDMDL
MODEL 3
REMARK VINA RESULT:      -5.2      2.496      3.276
REMARK  4 active torsions:
REMARK  status: ('A' for Active; 'I' for Inactive)
REMARK    1  A    between atoms: C_2  and  N_3 
REMARK    2  A    between atoms: C_5  and  N_6 
REMARK       I    between atoms: N_6  and  C_7 
REMARK       I    between atoms: C_7  and  N_9 
REMARK    3  A    between atoms: N_9  and  C_10 
REMARK    4  A    between atoms: C_13  and  O_14 
ROOT
HETATM    1  N   UNL     1     -41.092 -49.097  12.264  1.00  0.00    -0.306 N 
HETATM    2  C   UNL     1     -41.315 -48.240  11.208  1.00  0.00     0.321 C 
HETATM    3  O   UNL     1     -41.756 -48.554  10.108  1.00  0.00    -0.247 OA
HETATM    4  N   UNL     1     -41.015 -46.929  11.514  1.00  0.00    -0.338 N 
HETATM    5  H   UNL     1     -40.769 -48.720  13.143  1.00  0.00     0.171 HD
HETATM    6  H   UNL     1     -40.324 -46.773  12.233  1.00  0.00     0.164 HD
ENDROOT
BRANCH   1   7
HETATM    7  C   UNL     1     -41.357 -50.456  12.216  1.00  0.00     0.070 A 
HETATM    8  C   UNL     1     -42.413 -51.121  12.790  1.00  0.00     0.141 A 
HETATM    9  N   UNL     1     -42.273 -52.436  12.470  1.00  0.00    -0.302 N 
HETATM   10  N   UNL     1     -41.176 -52.688  11.729  1.00  0.00    -0.308 N 
HETATM   11  C   UNL     1     -40.622 -51.480  11.576  1.00  0.00     0.138 A 
ATOM     12  HN  UNL     1     -40.848 -53.585  11.370  1.00  0.00     0.186 HD
BRANCH   9  13
HETATM   13  C   UNL     1     -43.197 -53.492  12.829  1.00  0.00     0.143 C 
HETATM   14  C   UNL     1     -44.637 -53.135  12.507  1.00  0.00     0.028 C 
ENDBRANCH   9  13
ENDBRANCH   1   7
BRANCH   4  15
HETATM   15  C   UNL     1     -41.165 -45.915  10.471  1.00  0.00     0.086 C 
HETATM   16  C   UNL     1     -39.911 -45.037  10.363  1.00  0.00     0.028 C 
HETATM   17  C   UNL     1     -39.802 -44.024  11.505  1.00  0.00     0.034 C 
HETATM   18  C   UNL     1     -41.073 -43.195  11.678  1.00  0.00     0.118 C 
HETATM   19  C   UNL     1     -42.320 -44.069  11.801  1.00  0.00     0.034 C 
HETATM   20  C   UNL     1     -42.437 -45.087  10.669  1.00  0.00     0.028 C 
BRANCH  18  21
HETATM   21  O   UNL     1     -41.219 -42.283  10.593  1.00  0.00    -0.396 OA
HETATM   22  H   UNL     1     -40.832 -42.670   9.791  1.00  0.00     0.210 HD
ENDBRANCH  18  21
ENDBRANCH   4  15
TORSDOF 4
ENDMDL
MODEL 4
REMARK VINA RESULT:      -5.1      3.301      7.022
REMARK  4 active torsions:
REMARK  status: ('A' for Active; 'I' for Inactive)
REMARK    1  A    between atoms: C_2  and  N_3 
REMARK    2  A    between atoms: C_5  and  N_6 
REMARK       I    between atoms: N_6  and  C_7 
REMARK       I    between atoms: C_7  and  N_9 
REMARK    3  A    between atoms: N_9  and  C_10 
REMARK    4  A    between atoms: C_13  and  O_14 
ROOT
HETATM    1  N   UNL     1     -41.650 -50.276  13.223  1.00  0.00    -0.306 N 
HETATM    2  C   UNL     1     -41.921 -51.541  12.746  1.00  0.00     0.321 C 
HETATM    3  O   UNL     1     -41.561 -51.994  11.666  1.00  0.00    -0.247 OA
HETATM    4  N   UNL     1     -42.644 -52.303  13.641  1.00  0.00    -0.338 N 
HETATM    5  H   UNL     1     -41.960 -50.024  14.150  1.00  0.00     0.171 HD
HETATM    6  H   UNL     1     -43.229 -51.807  14.297  1.00  0.00     0.164 HD
ENDROOT
BRANCH   1   7
HETATM    7  C   UNL     1     -40.905 -49.340  12.526  1.00  0.00     0.070 A 
HETATM    8  C   UNL     1     -41.334 -48.132  12.030  1.00  0.00     0.141 A 
HETATM    9  N   UNL     1     -40.261 -47.545  11.435  1.00  0.00    -0.302 N 
HETATM   10  N   UNL     1     -39.145 -48.299  11.490  1.00  0.00    -0.308 N 
HETATM   11  C   UNL     1     -39.541 -49.390  12.155  1.00  0.00     0.138 A 
ATOM     12  HN  UNL     1     -38.220 -48.087  11.115  1.00  0.00     0.186 HD
BRANCH   9  13
HETATM   13  C   UNL     1     -40.253 -46.232  10.822  1.00  0.00     0.143 C 
HETATM   14  C   UNL     1     -39.793 -45.150  11.782  1.00  0.00     0.028 C 
ENDBRANCH   9  13
ENDBRANCH   1   7
BRANCH   4  15
HETATM   15  C   UNL     1     -43.038 -53.655  13.249  1.00  0.00     0.086 C 
HETATM   16  C   UNL     1     -44.301 -53.635  12.377  1.00  0.00     0.028 C 
HETATM   17  C   UNL     1     -45.571 -53.366  13.188  1.00  0.00     0.034 C 
HETATM   18  C   UNL     1     -45.713 -54.302  14.387  1.00  0.00     0.118 C 
HETATM   19  C   UNL     1     -44.461 -54.311  15.263  1.00  0.00     0.034 C 
HETATM   20  C   UNL     1     -43.187 -54.573  14.463  1.00  0.00     0.028 C 
BRANCH  18  21
HETATM   21  O   UNL     1     -46.011 -55.625  13.948  1.00  0.00    -0.396 OA
HETATM   22  H   UNL     1     -46.639 -55.587  13.208  1.00  0.00     0.210 HD
ENDBRANCH  18  21
ENDBRANCH   4  15
TORSDOF 4
ENDMDL
MODEL 5
REMARK VINA RESULT:      -5.0      2.717      3.184
REMARK  4 active torsions:
REMARK  status: ('A' for Active; 'I' for Inactive)
REMARK    1  A    between atoms: C_2  and  N_3 
REMARK    2  A    between atoms: C_5  and  N_6 
REMARK       I    between atoms: N_6  and  C_7 
REMARK       I    between atoms: C_7  and  N_9 
REMARK    3  A    between atoms: N_9  and  C_10 
REMARK    4  A    between atoms: C_13  and  O_14 
ROOT
HETATM    1  N   UNL     1     -42.668 -51.380  12.104  1.00  0.00    -0.306 N 
HETATM    2  C   UNL     1     -42.876 -50.111  12.600  1.00  0.00     0.321 C 
HETATM    3  O   UNL     1     -43.452 -49.833  13.645  1.00  0.00    -0.247 OA
HETATM    4  N   UNL     1     -42.329 -49.131  11.798  1.00  0.00    -0.338 N 
HETATM    5  H   UNL     1     -42.139 -51.495  11.253  1.00  0.00     0.171 HD
HETATM    6  H   UNL     1     -42.226 -49.346  10.817  1.00  0.00     0.164 HD
ENDROOT
BRANCH   1   7
HETATM    7  C   UNL     1     -43.087 -52.532  12.751  1.00  0.00     0.070 A 
HETATM    8  C   UNL     1     -44.348 -53.077  12.750  1.00  0.00     0.141 A 
HETATM    9  N   UNL     1     -44.289 -54.209  13.504  1.00  0.00    -0.302 N 
HETATM   10  N   UNL     1     -43.066 -54.440  14.019  1.00  0.00    -0.308 N 
HETATM   11  C   UNL     1     -42.337 -53.417  13.558  1.00  0.00     0.138 A 
ATOM     12  HN  UNL     1     -42.767 -55.211  14.618  1.00  0.00     0.186 HD
BRANCH   9  13
HETATM   13  C   UNL     1     -45.387 -55.127  13.730  1.00  0.00     0.143 C 
HETATM   14  C   UNL     1     -46.396 -54.585  14.726  1.00  0.00     0.028 C 
ENDBRANCH   9  13
ENDBRANCH   1   7
BRANCH   4  15
HETATM   15  C   UNL     1     -42.509 -47.732  12.182  1.00  0.00     0.086 C 
HETATM   16  C   UNL     1     -43.391 -46.987  11.171  1.00  0.00     0.028 C 
HETATM   17  C   UNL     1     -42.652 -46.664   9.871  1.00  0.00     0.034 C 
HETATM   18  C   UNL     1     -41.323 -45.950  10.111  1.00  0.00     0.118 C 
HETATM   19  C   UNL     1     -40.438 -46.699  11.105  1.00  0.00     0.034 C 
HETATM   20  C   UNL     1     -41.167 -47.032  12.406  1.00  0.00     0.028 C 
BRANCH  18  21
HETATM   21  O   UNL     1     -41.553 -44.619  10.566  1.00  0.00    -0.396 OA
HETATM   22  H   UNL     1     -42.132 -44.639  11.346  1.00  0.00     0.210 HD
ENDBRANCH  18  21
ENDBRANCH   4  15
TORSDOF 4
ENDMDL
MODEL 6
REMARK VINA RESULT:      -5.0      2.564      8.086
REMARK  4 active torsions:
REMARK  status: ('A' for Active; 'I' for Inactive)
REMARK    1  A    between atoms: C_2  and  N_3 
REMARK    2  A    between atoms: C_5  and  N_6 
REMARK       I    between atoms: N_6  and  C_7 
REMARK       I    between atoms: C_7  and  N_9 
REMARK    3  A    between atoms: N_9  and  C_10 
REMARK    4  A    between atoms: C_13  and  O_14 
ROOT
HETATM    1  N   UNL     1     -41.350 -50.544  13.033  1.00  0.00    -0.306 N 
HETATM    2  C   UNL     1     -41.300 -51.910  12.851  1.00  0.00     0.321 C 
HETATM    3  O   UNL     1     -41.502 -52.502  11.798  1.00  0.00    -0.247 OA
HETATM    4  N   UNL     1     -40.956 -52.587  14.003  1.00  0.00    -0.338 N 
HETATM    5  H   UNL     1     -41.120 -50.161  13.938  1.00  0.00     0.171 HD
HETATM    6  H   UNL     1     -41.178 -52.141  14.880  1.00  0.00     0.164 HD
ENDROOT
BRANCH   1   7
HETATM    7  C   UNL     1     -41.632 -49.647  12.016  1.00  0.00     0.070 A 
HETATM    8  C   UNL     1     -42.760 -48.875  11.873  1.00  0.00     0.141 A 
HETATM    9  N   UNL     1     -42.594 -48.140  10.740  1.00  0.00    -0.302 N 
HETATM   10  N   UNL     1     -41.429 -48.390  10.111  1.00  0.00    -0.308 N 
HETATM   11  C   UNL     1     -40.846 -49.307  10.891  1.00  0.00     0.138 A 
ATOM     12  HN  UNL     1     -41.076 -47.977   9.247  1.00  0.00     0.186 HD
BRANCH   9  13
HETATM   13  C   UNL     1     -43.525 -47.151  10.235  1.00  0.00     0.143 C 
HETATM   14  C   UNL     1     -43.524 -47.077   8.720  1.00  0.00     0.028 C 
ENDBRANCH   9  13
ENDBRANCH   1   7
BRANCH   4  15
HETATM   15  C   UNL     1     -40.905 -54.048  13.965  1.00  0.00     0.086 C 
HETATM   16  C   UNL     1     -41.747 -54.663  15.091  1.00  0.00     0.028 C 
HETATM   17  C   UNL     1     -41.071 -54.551  16.460  1.00  0.00     0.034 C 
HETATM   18  C   UNL     1     -39.640 -55.083  16.455  1.00  0.00     0.118 C 
HETATM   19  C   UNL     1     -38.797 -54.459  15.344  1.00  0.00     0.034 C 
HETATM   20  C   UNL     1     -39.463 -54.561  13.973  1.00  0.00     0.028 C 
BRANCH  18  21
HETATM   21  O   UNL     1     -39.641 -56.503  16.329  1.00  0.00    -0.396 OA
HETATM   22  H   UNL     1     -39.754 -56.745  15.396  1.00  0.00     0.210 HD
ENDBRANCH  18  21
ENDBRANCH   4  15
TORSDOF 4
ENDMDL
MODEL 7
REMARK VINA RESULT:      -5.0      2.601      7.583
REMARK  4 active torsions:
REMARK  status: ('A' for Active; 'I' for Inactive)
REMARK    1  A    between atoms: C_2  and  N_3 
REMARK    2  A    between atoms: C_5  and  N_6 
REMARK       I    between atoms: N_6  and  C_7 
REMARK       I    between atoms: C_7  and  N_9 
REMARK    3  A    between atoms: N_9  and  C_10 
REMARK    4  A    between atoms: C_13  and  O_14 
ROOT
HETATM    1  N   UNL     1     -42.485 -49.665  12.584  1.00  0.00    -0.306 N 
HETATM    2  C   UNL     1     -41.987 -50.947  12.501  1.00  0.00     0.321 C 
HETATM    3  O   UNL     1     -41.300 -51.394  11.590  1.00  0.00    -0.247 OA
HETATM    4  N   UNL     1     -42.317 -51.717  13.597  1.00  0.00    -0.338 N 
HETATM    5  H   UNL     1     -43.003 -49.391  13.406  1.00  0.00     0.171 HD
HETATM    6  H   UNL     1     -43.158 -51.467  14.096  1.00  0.00     0.164 HD
ENDROOT
BRANCH   1   7
HETATM    7  C   UNL     1     -42.254 -48.691  11.626  1.00  0.00     0.070 A 
HETATM    8  C   UNL     1     -43.186 -48.050  10.846  1.00  0.00     0.141 A 
HETATM    9  N   UNL     1     -42.506 -47.168  10.064  1.00  0.00    -0.302 N 
HETATM   10  N   UNL     1     -41.174 -47.196  10.266  1.00  0.00    -0.308 N 
HETATM   11  C   UNL     1     -41.025 -48.124  11.218  1.00  0.00     0.138 A 
ATOM     12  HN  UNL     1     -40.453 -46.641   9.804  1.00  0.00     0.186 HD
BRANCH   9  13
HETATM   13  C   UNL     1     -43.105 -46.245   9.121  1.00  0.00     0.143 C 
HETATM   14  C   UNL     1     -44.598 -46.469   8.962  1.00  0.00     0.028 C 
ENDBRANCH   9  13
ENDBRANCH   1   7
BRANCH   4  15
HETATM   15  C   UNL     1     -41.888 -53.114  13.624  1.00  0.00     0.086 C 
HETATM   16  C   UNL     1     -43.013 -54.051  13.165  1.00  0.00     0.028 C 
HETATM   17  C   UNL     1     -44.098 -54.234  14.229  1.00  0.00     0.034 C 
HETATM   18  C   UNL     1     -43.527 -54.642  15.586  1.00  0.00     0.118 C 
HETATM   19  C   UNL     1     -42.417 -53.701  16.051  1.00  0.00     0.034 C 
HETATM   20  C   UNL     1     -41.331 -53.507  14.995  1.00  0.00     0.028 C 
BRANCH  18  21
HETATM   21  O   UNL     1     -43.044 -55.982  15.536  1.00  0.00    -0.396 OA
HETATM   22  H   UNL     1     -43.700 -56.578  15.931  1.00  0.00     0.210 HD
ENDBRANCH  18  21
ENDBRANCH   4  15
TORSDOF 4
ENDMDL
MODEL 8
REMARK VINA RESULT:      -4.7      4.707      6.576
REMARK  4 active torsions:
REMARK  status: ('A' for Active; 'I' for Inactive)
REMARK    1  A    between atoms: C_2  and  N_3 
REMARK    2  A    between atoms: C_5  and  N_6 
REMARK       I    between atoms: N_6  and  C_7 
REMARK       I    between atoms: C_7  and  N_9 
REMARK    3  A    between atoms: N_9  and  C_10 
REMARK    4  A    between atoms: C_13  and  O_14 
ROOT
HETATM    1  N   UNL     1     -40.942 -50.490  14.324  1.00  0.00    -0.306 N 
HETATM    2  C   UNL     1     -41.129 -51.735  13.763  1.00  0.00     0.321 C 
HETATM    3  O   UNL     1     -40.269 -52.410  13.208  1.00  0.00    -0.247 OA
HETATM    4  N   UNL     1     -42.421 -52.196  13.909  1.00  0.00    -0.338 N 
HETATM    5  H   UNL     1     -41.714 -50.044  14.796  1.00  0.00     0.171 HD
HETATM    6  H   UNL     1     -43.147 -51.501  14.001  1.00  0.00     0.164 HD
ENDROOT
BRANCH   1   7
HETATM    7  C   UNL     1     -39.722 -49.834  14.341  1.00  0.00     0.070 A 
HETATM    8  C   UNL     1     -38.829 -49.761  15.382  1.00  0.00     0.141 A 
HETATM    9  N   UNL     1     -37.769 -49.030  14.942  1.00  0.00    -0.302 N 
HETATM   10  N   UNL     1     -37.912 -48.597  13.674  1.00  0.00    -0.308 N 
HETATM   11  C   UNL     1     -39.102 -49.090  13.311  1.00  0.00     0.138 A 
ATOM     12  HN  UNL     1     -37.267 -48.031  13.122  1.00  0.00     0.186 HD
BRANCH   9  13
HETATM   13  C   UNL     1     -36.569 -48.746  15.704  1.00  0.00     0.143 C 
HETATM   14  C   UNL     1     -35.874 -50.009  16.179  1.00  0.00     0.028 C 
ENDBRANCH   9  13
ENDBRANCH   1   7
BRANCH   4  15
HETATM   15  C   UNL     1     -42.773 -53.489  13.325  1.00  0.00     0.086 C 
HETATM   16  C   UNL     1     -43.949 -53.357  12.348  1.00  0.00     0.028 C 
HETATM   17  C   UNL     1     -45.290 -53.176  13.064  1.00  0.00     0.034 C 
HETATM   18  C   UNL     1     -45.539 -54.246  14.124  1.00  0.00     0.118 C 
HETATM   19  C   UNL     1     -44.375 -54.368  15.106  1.00  0.00     0.034 C 
HETATM   20  C   UNL     1     -43.031 -54.544  14.403  1.00  0.00     0.028 C 
BRANCH  18  21
HETATM   21  O   UNL     1     -45.791 -55.505  13.506  1.00  0.00    -0.396 OA
HETATM   22  H   UNL     1     -46.743 -55.597  13.334  1.00  0.00     0.210 HD
ENDBRANCH  18  21
ENDBRANCH   4  15
TORSDOF 4
ENDMDL
MODEL 9
REMARK VINA RESULT:      -4.7      2.691      3.761
REMARK  4 active torsions:
REMARK  status: ('A' for Active; 'I' for Inactive)
REMARK    1  A    between atoms: C_2  and  N_3 
REMARK    2  A    between atoms: C_5  and  N_6 
REMARK       I    between atoms: N_6  and  C_7 
REMARK       I    between atoms: C_7  and  N_9 
REMARK    3  A    between atoms: N_9  and  C_10 
REMARK    4  A    between atoms: C_13  and  O_14 
ROOT
HETATM    1  N   UNL     1     -42.531 -51.460  13.745  1.00  0.00    -0.306 N 
HETATM    2  C   UNL     1     -41.821 -51.172  12.599  1.00  0.00     0.321 C 
HETATM    3  O   UNL     1     -41.337 -51.992  11.827  1.00  0.00    -0.247 OA
HETATM    4  N   UNL     1     -41.719 -49.816  12.363  1.00  0.00    -0.338 N 
HETATM    5  H   UNL     1     -42.924 -50.702  14.282  1.00  0.00     0.171 HD
HETATM    6  H   UNL     1     -41.770 -49.207  13.166  1.00  0.00     0.164 HD
ENDROOT
BRANCH   1   7
HETATM    7  C   UNL     1     -42.803 -52.749  14.171  1.00  0.00     0.070 A 
HETATM    8  C   UNL     1     -42.065 -53.514  15.041  1.00  0.00     0.141 A 
HETATM    9  N   UNL     1     -42.718 -54.700  15.177  1.00  0.00    -0.302 N 
HETATM   10  N   UNL     1     -43.841 -54.775  14.436  1.00  0.00    -0.308 N 
HETATM   11  C   UNL     1     -43.889 -53.586  13.825  1.00  0.00     0.138 A 
ATOM     12  HN  UNL     1     -44.497 -55.553  14.359  1.00  0.00     0.186 HD
BRANCH   9  13
HETATM   13  C   UNL     1     -42.314 -55.788  16.044  1.00  0.00     0.143 C 
HETATM   14  C   UNL     1     -40.889 -55.630  16.543  1.00  0.00     0.028 C 
ENDBRANCH   9  13
ENDBRANCH   1   7
BRANCH   4  15
HETATM   15  C   UNL     1     -40.955 -49.364  11.201  1.00  0.00     0.086 C 
HETATM   16  C   UNL     1     -39.578 -48.828  11.615  1.00  0.00     0.028 C 
HETATM   17  C   UNL     1     -39.656 -47.441  12.259  1.00  0.00     0.034 C 
HETATM   18  C   UNL     1     -40.432 -46.440  11.406  1.00  0.00     0.118 C 
HETATM   19  C   UNL     1     -41.809 -46.967  11.006  1.00  0.00     0.034 C 
HETATM   20  C   UNL     1     -41.744 -48.352  10.367  1.00  0.00     0.028 C 
BRANCH  18  21
HETATM   21  O   UNL     1     -39.683 -46.097  10.243  1.00  0.00    -0.396 OA
HETATM   22  H   UNL     1     -39.878 -45.180   9.990  1.00  0.00     0.210 HD
ENDBRANCH  18  21
ENDBRANCH   4  15
TORSDOF 4
ENDMDL
