MODEL 1
REMARK VINA RESULT:      -6.1      0.000      0.000
REMARK  5 active torsions:
REMARK  status: ('A' for Active; 'I' for Inactive)
REMARK    1  A    between atoms: C_2  and  C_4 
REMARK    2  A    between atoms: C_4  and  N_5 
REMARK       I    between atoms: N_5  and  C_6 
REMARK       I    between atoms: C_6  and  N_8 
REMARK    3  A    between atoms: N_8  and  C_9 
REMARK    4  A    between atoms: C_9  and  C_10 
REMARK    5  A    between atoms: C_16  and  N_17 
ROOT
HETATM    1  C   UNL     1     -42.349 -47.188  10.369  1.00  0.00     0.004 A 
HETATM    2  C   UNL     1     -43.021 -47.701   9.235  1.00  0.00     0.014 A 
HETATM    3  C   UNL     1     -43.912 -46.920   8.521  1.00  0.00     0.018 A 
HETATM    4  C   UNL     1     -44.105 -45.637   8.967  1.00  0.00     0.089 A 
HETATM    5  N   UNL     1     -43.442 -45.102  10.015  1.00  0.00    -0.352 N 
ATOM      6  HN  UNL     1     -43.619 -44.134  10.281  1.00  0.00     0.166 HD
HETATM    7  C   UNL     1     -42.541 -45.838  10.720  1.00  0.00     0.111 A 
ENDROOT
BRANCH   1   8
HETATM    8  C   UNL     1     -41.563 -48.199  11.158  1.00  0.00     0.166 C 
BRANCH   8   9
HETATM    9  N   UNL     1     -42.295 -49.415  11.433  1.00  0.00    -0.339 N 
HETATM   10  C   UNL     1     -42.994 -49.505  12.601  1.00  0.00     0.316 C 
HETATM   11  N   UNL     1     -43.574 -50.727  12.773  1.00  0.00    -0.343 N 
HETATM   12  O   UNL     1     -43.061 -48.598  13.421  1.00  0.00    -0.247 OA
HETATM   13  H   UNL     1     -43.310 -51.480  12.156  1.00  0.00     0.164 HD
HETATM   14  H   UNL     1     -42.637 -49.952  10.651  1.00  0.00     0.164 HD
BRANCH  11  15
HETATM   15  C   UNL     1     -44.435 -51.002  13.906  1.00  0.00     0.128 C 
BRANCH  15  16
HETATM   16  C   UNL     1     -45.876 -51.274  13.449  1.00  0.00    -0.005 C 
HETATM   17  C   UNL     1     -45.943 -52.512  12.553  1.00  0.00     0.011 C 
HETATM   18  C   UNL     1     -46.798 -51.443  14.655  1.00  0.00     0.011 C 
ENDBRANCH  15  16
ENDBRANCH  11  15
ENDBRANCH   8   9
ENDBRANCH   1   8
BRANCH   7  19
HETATM   19  N   UNL     1     -41.862 -45.130  11.692  1.00  0.00    -0.363 N 
HETATM   20  C   UNL     1     -40.602 -44.463  11.298  1.00  0.00     0.150 C 
HETATM   21  C   UNL     1     -39.630 -44.384  12.488  1.00  0.00     0.187 C 
HETATM   22  O   UNL     1     -40.235 -43.775  13.638  1.00  0.00    -0.388 OA
HETATM   23  C   UNL     1     -41.369 -44.547  14.043  1.00  0.00     0.187 C 
HETATM   24  C   UNL     1     -42.432 -44.615  12.938  1.00  0.00     0.150 C 
ENDBRANCH   7  19
TORSDOF 5
ENDMDL
MODEL 2
REMARK VINA RESULT:      -6.0      3.507      7.191
REMARK  5 active torsions:
REMARK  status: ('A' for Active; 'I' for Inactive)
REMARK    1  A    between atoms: C_2  and  C_4 
REMARK    2  A    between atoms: C_4  and  N_5 
REMARK       I    between atoms: N_5  and  C_6 
REMARK       I    between atoms: C_6  and  N_8 
REMARK    3  A    between atoms: N_8  and  C_9 
REMARK    4  A    between atoms: C_9  and  C_10 
REMARK    5  A    between atoms: C_16  and  N_17 
ROOT
HETATM    1  C   UNL     1     -39.758 -50.619  12.186  1.00  0.00     0.004 A 
HETATM    2  C   UNL     1     -38.689 -49.929  11.567  1.00  0.00     0.014 A 
HETATM    3  C   UNL     1     -37.382 -50.127  11.973  1.00  0.00     0.018 A 
HETATM    4  C   UNL     1     -37.180 -51.020  12.995  1.00  0.00     0.089 A 
HETATM    5  N   UNL     1     -38.173 -51.732  13.572  1.00  0.00    -0.352 N 
ATOM      6  HN  UNL     1     -37.950 -52.394  14.314  1.00  0.00     0.166 HD
HETATM    7  C   UNL     1     -39.465 -51.577  13.176  1.00  0.00     0.111 A 
ENDROOT
BRANCH   1   8
HETATM    8  C   UNL     1     -41.133 -50.166  11.779  1.00  0.00     0.166 C 
BRANCH   8   9
HETATM    9  N   UNL     1     -41.127 -49.119  10.782  1.00  0.00    -0.339 N 
HETATM   10  C   UNL     1     -42.189 -48.263  10.730  1.00  0.00     0.316 C 
HETATM   11  N   UNL     1     -42.095 -47.374   9.700  1.00  0.00    -0.343 N 
HETATM   12  O   UNL     1     -43.137 -48.314  11.503  1.00  0.00    -0.247 OA
HETATM   13  H   UNL     1     -41.391 -47.522   8.994  1.00  0.00     0.164 HD
HETATM   14  H   UNL     1     -40.236 -48.764  10.470  1.00  0.00     0.164 HD
BRANCH  11  15
HETATM   15  C   UNL     1     -43.075 -46.321   9.520  1.00  0.00     0.128 C 
BRANCH  15  16
HETATM   16  C   UNL     1     -44.114 -46.710   8.458  1.00  0.00    -0.005 C 
HETATM   17  C   UNL     1     -43.610 -47.872   7.599  1.00  0.00     0.011 C 
HETATM   18  C   UNL     1     -45.442 -47.076   9.117  1.00  0.00     0.011 C 
ENDBRANCH  15  16
ENDBRANCH  11  15
ENDBRANCH   8   9
ENDBRANCH   1   8
BRANCH   7  19
HETATM   19  N   UNL     1     -40.354 -52.446  13.776  1.00  0.00    -0.363 N 
HETATM   20  C   UNL     1     -40.699 -53.685  13.044  1.00  0.00     0.150 C 
HETATM   21  C   UNL     1     -42.128 -54.141  13.386  1.00  0.00     0.187 C 
HETATM   22  O   UNL     1     -42.329 -54.267  14.801  1.00  0.00    -0.388 OA
HETATM   23  C   UNL     1     -42.107 -53.000  15.427  1.00  0.00     0.187 C 
HETATM   24  C   UNL     1     -40.674 -52.500  15.203  1.00  0.00     0.150 C 
ENDBRANCH   7  19
TORSDOF 5
ENDMDL
MODEL 3
REMARK VINA RESULT:      -6.0      3.003      7.430
REMARK  5 active torsions:
REMARK  status: ('A' for Active; 'I' for Inactive)
REMARK    1  A    between atoms: C_2  and  C_4 
REMARK    2  A    between atoms: C_4  and  N_5 
REMARK       I    between atoms: N_5  and  C_6 
REMARK       I    between atoms: C_6  and  N_8 
REMARK    3  A    between atoms: N_8  and  C_9 
REMARK    4  A    between atoms: C_9  and  C_10 
REMARK    5  A    between atoms: C_16  and  N_17 
ROOT
HETATM    1  C   UNL     1     -43.705 -51.607  13.453  1.00  0.00     0.004 A 
HETATM    2  C   UNL     1     -45.025 -51.130  13.277  1.00  0.00     0.014 A 
HETATM    3  C   UNL     1     -46.094 -52.004  13.203  1.00  0.00     0.018 A 
HETATM    4  C   UNL     1     -45.809 -53.342  13.310  1.00  0.00     0.089 A 
HETATM    5  N   UNL     1     -44.567 -53.825  13.529  1.00  0.00    -0.352 N 
ATOM      6  HN  UNL     1     -44.427 -54.831  13.618  1.00  0.00     0.166 HD
HETATM    7  C   UNL     1     -43.499 -52.988  13.632  1.00  0.00     0.111 A 
ENDROOT
BRANCH   1   8
HETATM    8  C   UNL     1     -42.627 -50.566  13.322  1.00  0.00     0.166 C 
BRANCH   8   9
HETATM    9  N   UNL     1     -42.442 -50.090  11.969  1.00  0.00    -0.339 N 
HETATM   10  C   UNL     1     -42.704 -48.779  11.699  1.00  0.00     0.316 C 
HETATM   11  N   UNL     1     -42.564 -48.478  10.376  1.00  0.00    -0.343 N 
HETATM   12  O   UNL     1     -43.062 -47.971  12.547  1.00  0.00    -0.247 OA
HETATM   13  H   UNL     1     -42.464 -49.233   9.715  1.00  0.00     0.164 HD
HETATM   14  H   UNL     1     -41.752 -50.548  11.394  1.00  0.00     0.164 HD
BRANCH  11  15
HETATM   15  C   UNL     1     -42.710 -47.120   9.890  1.00  0.00     0.128 C 
BRANCH  15  16
HETATM   16  C   UNL     1     -43.798 -47.035   8.810  1.00  0.00    -0.005 C 
HETATM   17  C   UNL     1     -43.450 -47.920   7.611  1.00  0.00     0.011 C 
HETATM   18  C   UNL     1     -45.156 -47.433   9.384  1.00  0.00     0.011 C 
ENDBRANCH  15  16
ENDBRANCH  11  15
ENDBRANCH   8   9
ENDBRANCH   1   8
BRANCH   7  19
HETATM   19  N   UNL     1     -42.314 -53.613  13.963  1.00  0.00    -0.363 N 
HETATM   20  C   UNL     1     -42.284 -54.404  15.214  1.00  0.00     0.150 C 
HETATM   21  C   UNL     1     -40.875 -54.397  15.831  1.00  0.00     0.187 C 
HETATM   22  O   UNL     1     -39.875 -54.820  14.893  1.00  0.00    -0.388 OA
HETATM   23  C   UNL     1     -39.870 -53.932  13.771  1.00  0.00     0.187 C 
HETATM   24  C   UNL     1     -41.221 -53.932  13.043  1.00  0.00     0.150 C 
ENDBRANCH   7  19
TORSDOF 5
ENDMDL
MODEL 4
REMARK VINA RESULT:      -5.9      1.911      2.506
REMARK  5 active torsions:
REMARK  status: ('A' for Active; 'I' for Inactive)
REMARK    1  A    between atoms: C_2  and  C_4 
REMARK    2  A    between atoms: C_4  and  N_5 
REMARK       I    between atoms: N_5  and  C_6 
REMARK       I    between atoms: C_6  and  N_8 
REMARK    3  A    between atoms: N_8  and  C_9 
REMARK    4  A    between atoms: C_9  and  C_10 
REMARK    5  A    between atoms: C_16  and  N_17 
ROOT
HETATM    1  C   UNL     1     -42.276 -47.151  10.130  1.00  0.00     0.004 A 
HETATM    2  C   UNL     1     -42.991 -47.833   9.118  1.00  0.00     0.014 A 
HETATM    3  C   UNL     1     -44.049 -47.230   8.463  1.00  0.00     0.018 A 
HETATM    4  C   UNL     1     -44.363 -45.949   8.842  1.00  0.00     0.089 A 
HETATM    5  N   UNL     1     -43.668 -45.253   9.768  1.00  0.00    -0.352 N 
ATOM      6  HN  UNL     1     -43.943 -44.296   9.989  1.00  0.00     0.166 HD
HETATM    7  C   UNL     1     -42.607 -45.812  10.411  1.00  0.00     0.111 A 
ENDROOT
BRANCH   1   8
HETATM    8  C   UNL     1     -41.283 -47.989  10.887  1.00  0.00     0.166 C 
BRANCH   8   9
HETATM    9  N   UNL     1     -41.489 -49.412  10.733  1.00  0.00    -0.339 N 
HETATM   10  C   UNL     1     -40.998 -50.249  11.693  1.00  0.00     0.316 C 
HETATM   11  N   UNL     1     -41.192 -51.564  11.390  1.00  0.00    -0.343 N 
HETATM   12  O   UNL     1     -40.417 -49.859  12.698  1.00  0.00    -0.247 OA
HETATM   13  H   UNL     1     -41.496 -51.809  10.460  1.00  0.00     0.164 HD
HETATM   14  H   UNL     1     -42.302 -49.723  10.225  1.00  0.00     0.164 HD
BRANCH  11  15
HETATM   15  C   UNL     1     -40.825 -52.615  12.320  1.00  0.00     0.128 C 
BRANCH  15  16
HETATM   16  C   UNL     1     -41.983 -52.932  13.278  1.00  0.00    -0.005 C 
HETATM   17  C   UNL     1     -43.303 -53.068  12.516  1.00  0.00     0.011 C 
HETATM   18  C   UNL     1     -41.693 -54.208  14.065  1.00  0.00     0.011 C 
ENDBRANCH  15  16
ENDBRANCH  11  15
ENDBRANCH   8   9
ENDBRANCH   1   8
BRANCH   7  19
HETATM   19  N   UNL     1     -41.929 -44.948  11.249  1.00  0.00    -0.363 N 
HETATM   20  C   UNL     1     -42.343 -44.908  12.669  1.00  0.00     0.150 C 
HETATM   21  C   UNL     1     -42.100 -43.512  13.269  1.00  0.00     0.187 C 
HETATM   22  O   UNL     1     -40.748 -43.072  13.080  1.00  0.00    -0.388 OA
HETATM   23  C   UNL     1     -40.460 -43.008  11.680  1.00  0.00     0.187 C 
HETATM   24  C   UNL     1     -40.602 -44.381  11.009  1.00  0.00     0.150 C 
ENDBRANCH   7  19
TORSDOF 5
ENDMDL
MODEL 5
REMARK VINA RESULT:      -5.9      2.578      4.279
REMARK  5 active torsions:
REMARK  status: ('A' for Active; 'I' for Inactive)
REMARK    1  A    between atoms: C_2  and  C_4 
REMARK    2  A    between atoms: C_4  and  N_5 
REMARK       I    between atoms: N_5  and  C_6 
REMARK       I    between atoms: C_6  and  N_8 
REMARK    3  A    between atoms: N_8  and  C_9 
REMARK    4  A    between atoms: C_9  and  C_10 
REMARK    5  A    between atoms: C_16  and  N_17 
ROOT
HETATM    1  C   UNL     1     -40.012 -49.819  12.885  1.00  0.00     0.004 A 
HETATM    2  C   UNL     1     -38.976 -50.685  13.311  1.00  0.00     0.014 A 
HETATM    3  C   UNL     1     -37.797 -50.790  12.595  1.00  0.00     0.018 A 
HETATM    4  C   UNL     1     -37.687 -50.019  11.466  1.00  0.00     0.089 A 
HETATM    5  N   UNL     1     -38.636 -49.147  11.061  1.00  0.00    -0.352 N 
ATOM      6  HN  UNL     1     -38.482 -48.589  10.222  1.00  0.00     0.166 HD
HETATM    7  C   UNL     1     -39.795 -49.003  11.759  1.00  0.00     0.111 A 
ENDROOT
BRANCH   1   8
HETATM    8  C   UNL     1     -41.304 -49.949  13.644  1.00  0.00     0.166 C 
BRANCH   8   9
HETATM    9  N   UNL     1     -42.369 -50.554  12.876  1.00  0.00    -0.339 N 
HETATM   10  C   UNL     1     -43.146 -51.502  13.476  1.00  0.00     0.316 C 
HETATM   11  N   UNL     1     -44.060 -52.046  12.623  1.00  0.00    -0.343 N 
HETATM   12  O   UNL     1     -43.011 -51.850  14.642  1.00  0.00    -0.247 OA
HETATM   13  H   UNL     1     -43.979 -51.854  11.636  1.00  0.00     0.164 HD
HETATM   14  H   UNL     1     -42.793 -50.011  12.140  1.00  0.00     0.164 HD
BRANCH  11  15
HETATM   15  C   UNL     1     -45.043 -53.008  13.082  1.00  0.00     0.128 C 
BRANCH  15  16
HETATM   16  C   UNL     1     -46.444 -52.381  13.138  1.00  0.00    -0.005 C 
HETATM   17  C   UNL     1     -46.568 -51.422  14.324  1.00  0.00     0.011 C 
HETATM   18  C   UNL     1     -46.757 -51.651  11.833  1.00  0.00     0.011 C 
ENDBRANCH  15  16
ENDBRANCH  11  15
ENDBRANCH   8   9
ENDBRANCH   1   8
BRANCH   7  19
HETATM   19  N   UNL     1     -40.621 -48.000  11.292  1.00  0.00    -0.363 N 
HETATM   20  C   UNL     1     -40.124 -46.609  11.377  1.00  0.00     0.150 C 
HETATM   21  C   UNL     1     -41.291 -45.621  11.552  1.00  0.00     0.187 C 
HETATM   22  O   UNL     1     -42.291 -45.784  10.536  1.00  0.00    -0.388 OA
HETATM   23  C   UNL     1     -42.821 -47.112  10.600  1.00  0.00     0.187 C 
HETATM   24  C   UNL     1     -41.735 -48.168  10.357  1.00  0.00     0.150 C 
ENDBRANCH   7  19
TORSDOF 5
ENDMDL
MODEL 6
REMARK VINA RESULT:      -5.8      4.290      8.624
REMARK  5 active torsions:
REMARK  status: ('A' for Active; 'I' for Inactive)
REMARK    1  A    between atoms: C_2  and  C_4 
REMARK    2  A    between atoms: C_4  and  N_5 
REMARK       I    between atoms: N_5  and  C_6 
REMARK       I    between atoms: C_6  and  N_8 
REMARK    3  A    between atoms: N_8  and  C_9 
REMARK    4  A    between atoms: C_9  and  C_10 
REMARK    5  A    between atoms: C_16  and  N_17 
ROOT
HETATM    1  C   UNL     1     -41.995 -53.734  13.288  1.00  0.00     0.004 A 
HETATM    2  C   UNL     1     -40.636 -54.123  13.346  1.00  0.00     0.014 A 
HETATM    3  C   UNL     1     -40.088 -54.626  14.511  1.00  0.00     0.018 A 
HETATM    4  C   UNL     1     -40.924 -54.727  15.595  1.00  0.00     0.089 A 
HETATM    5  N   UNL     1     -42.237 -54.412  15.557  1.00  0.00    -0.352 N 
ATOM      6  HN  UNL     1     -42.806 -54.530  16.395  1.00  0.00     0.166 HD
HETATM    7  C   UNL     1     -42.809 -53.939  14.417  1.00  0.00     0.111 A 
ENDROOT
BRANCH   1   8
HETATM    8  C   UNL     1     -42.404 -53.028  12.024  1.00  0.00     0.166 C 
BRANCH   8   9
HETATM    9  N   UNL     1     -41.334 -52.279  11.405  1.00  0.00    -0.339 N 
HETATM   10  C   UNL     1     -41.120 -50.993  11.809  1.00  0.00     0.316 C 
HETATM   11  N   UNL     1     -40.135 -50.376  11.096  1.00  0.00    -0.343 N 
HETATM   12  O   UNL     1     -41.769 -50.444  12.691  1.00  0.00    -0.247 OA
HETATM   13  H   UNL     1     -39.788 -50.823  10.261  1.00  0.00     0.164 HD
HETATM   14  H   UNL     1     -40.537 -52.788  11.056  1.00  0.00     0.164 HD
BRANCH  11  15
HETATM   15  C   UNL     1     -39.691 -49.036  11.425  1.00  0.00     0.128 C 
BRANCH  15  16
HETATM   16  C   UNL     1     -38.246 -49.047  11.947  1.00  0.00    -0.005 C 
HETATM   17  C   UNL     1     -38.213 -49.258  13.462  1.00  0.00     0.011 C 
HETATM   18  C   UNL     1     -37.431 -50.130  11.244  1.00  0.00     0.011 C 
ENDBRANCH  15  16
ENDBRANCH  11  15
ENDBRANCH   8   9
ENDBRANCH   1   8
BRANCH   7  19
HETATM   19  N   UNL     1     -44.177 -53.764  14.497  1.00  0.00    -0.363 N 
HETATM   20  C   UNL     1     -44.674 -52.417  14.856  1.00  0.00     0.150 C 
HETATM   21  C   UNL     1     -46.011 -52.513  15.611  1.00  0.00     0.187 C 
HETATM   22  O   UNL     1     -46.984 -53.280  14.888  1.00  0.00    -0.388 OA
HETATM   23  C   UNL     1     -46.491 -54.609  14.692  1.00  0.00     0.187 C 
HETATM   24  C   UNL     1     -45.191 -54.616  13.876  1.00  0.00     0.150 C 
ENDBRANCH   7  19
TORSDOF 5
ENDMDL
MODEL 7
REMARK VINA RESULT:      -5.7      3.739      6.406
REMARK  5 active torsions:
REMARK  status: ('A' for Active; 'I' for Inactive)
REMARK    1  A    between atoms: C_2  and  C_4 
REMARK    2  A    between atoms: C_4  and  N_5 
REMARK       I    between atoms: N_5  and  C_6 
REMARK       I    between atoms: C_6  and  N_8 
REMARK    3  A    between atoms: N_8  and  C_9 
REMARK    4  A    between atoms: C_9  and  C_10 
REMARK    5  A    between atoms: C_16  and  N_17 
ROOT
HETATM    1  C   UNL     1     -40.042 -51.358  12.625  1.00  0.00     0.004 A 
HETATM    2  C   UNL     1     -40.905 -52.310  12.031  1.00  0.00     0.014 A 
HETATM    3  C   UNL     1     -41.440 -53.346  12.774  1.00  0.00     0.018 A 
HETATM    4  C   UNL     1     -41.096 -53.399  14.101  1.00  0.00     0.089 A 
HETATM    5  N   UNL     1     -40.318 -52.478  14.708  1.00  0.00    -0.352 N 
ATOM      6  HN  UNL     1     -40.117 -52.567  15.704  1.00  0.00     0.166 HD
HETATM    7  C   UNL     1     -39.797 -51.433  14.009  1.00  0.00     0.111 A 
ENDROOT
BRANCH   1   8
HETATM    8  C   UNL     1     -39.383 -50.406  11.664  1.00  0.00     0.166 C 
BRANCH   8   9
HETATM    9  N   UNL     1     -40.275 -49.901  10.645  1.00  0.00    -0.339 N 
HETATM   10  C   UNL     1     -40.973 -48.757  10.900  1.00  0.00     0.316 C 
HETATM   11  N   UNL     1     -41.832 -48.432   9.891  1.00  0.00    -0.343 N 
HETATM   12  O   UNL     1     -40.865 -48.115  11.936  1.00  0.00    -0.247 OA
HETATM   13  H   UNL     1     -42.010 -49.110   9.167  1.00  0.00     0.164 HD
HETATM   14  H   UNL     1     -40.057 -50.101   9.681  1.00  0.00     0.164 HD
BRANCH  11  15
HETATM   15  C   UNL     1     -42.604 -47.205   9.923  1.00  0.00     0.128 C 
BRANCH  15  16
HETATM   16  C   UNL     1     -43.854 -47.317   9.038  1.00  0.00    -0.005 C 
HETATM   17  C   UNL     1     -44.527 -45.954   8.865  1.00  0.00     0.011 C 
HETATM   18  C   UNL     1     -43.494 -47.906   7.675  1.00  0.00     0.011 C 
ENDBRANCH  15  16
ENDBRANCH  11  15
ENDBRANCH   8   9
ENDBRANCH   1   8
BRANCH   7  19
HETATM   19  N   UNL     1     -39.113 -50.515  14.781  1.00  0.00    -0.363 N 
HETATM   20  C   UNL     1     -39.820 -49.267  15.146  1.00  0.00     0.150 C 
HETATM   21  C   UNL     1     -38.826 -48.103  15.306  1.00  0.00     0.187 C 
HETATM   22  O   UNL     1     -37.768 -48.421  16.221  1.00  0.00    -0.388 OA
HETATM   23  C   UNL     1     -37.045 -49.556  15.736  1.00  0.00     0.187 C 
HETATM   24  C   UNL     1     -37.946 -50.793  15.618  1.00  0.00     0.150 C 
ENDBRANCH   7  19
TORSDOF 5
ENDMDL
MODEL 8
REMARK VINA RESULT:      -5.6      4.222      8.076
REMARK  5 active torsions:
REMARK  status: ('A' for Active; 'I' for Inactive)
REMARK    1  A    between atoms: C_2  and  C_4 
REMARK    2  A    between atoms: C_4  and  N_5 
REMARK       I    between atoms: N_5  and  C_6 
REMARK       I    between atoms: C_6  and  N_8 
REMARK    3  A    between atoms: N_8  and  C_9 
REMARK    4  A    between atoms: C_9  and  C_10 
REMARK    5  A    between atoms: C_16  and  N_17 
ROOT
HETATM    1  C   UNL     1     -42.141 -53.818  13.192  1.00  0.00     0.004 A 
HETATM    2  C   UNL     1     -43.412 -53.786  12.570  1.00  0.00     0.014 A 
HETATM    3  C   UNL     1     -44.540 -54.237  13.231  1.00  0.00     0.018 A 
HETATM    4  C   UNL     1     -44.363 -54.709  14.507  1.00  0.00     0.089 A 
HETATM    5  N   UNL     1     -43.173 -54.707  15.146  1.00  0.00    -0.352 N 
ATOM      6  HN  UNL     1     -43.115 -55.055  16.102  1.00  0.00     0.166 HD
HETATM    7  C   UNL     1     -42.050 -54.246  14.530  1.00  0.00     0.111 A 
ENDROOT
BRANCH   1   8
HETATM    8  C   UNL     1     -40.982 -53.482  12.294  1.00  0.00     0.166 C 
BRANCH   8   9
HETATM    9  N   UNL     1     -41.223 -52.341  11.439  1.00  0.00    -0.339 N 
HETATM   10  C   UNL     1     -40.858 -51.105  11.886  1.00  0.00     0.316 C 
HETATM   11  N   UNL     1     -41.209 -50.111  11.020  1.00  0.00    -0.343 N 
HETATM   12  O   UNL     1     -40.309 -50.908  12.962  1.00  0.00    -0.247 OA
HETATM   13  H   UNL     1     -41.830 -50.329  10.256  1.00  0.00     0.164 HD
HETATM   14  H   UNL     1     -41.226 -52.487  10.442  1.00  0.00     0.164 HD
BRANCH  11  15
HETATM   15  C   UNL     1     -40.834 -48.731  11.262  1.00  0.00     0.128 C 
BRANCH  15  16
HETATM   16  C   UNL     1     -41.817 -47.766  10.583  1.00  0.00    -0.005 C 
HETATM   17  C   UNL     1     -43.206 -47.861  11.218  1.00  0.00     0.011 C 
HETATM   18  C   UNL     1     -41.298 -46.332  10.658  1.00  0.00     0.011 C 
ENDBRANCH  15  16
ENDBRANCH  11  15
ENDBRANCH   8   9
ENDBRANCH   1   8
BRANCH   7  19
HETATM   19  N   UNL     1     -40.933 -54.202  15.340  1.00  0.00    -0.363 N 
HETATM   20  C   UNL     1     -40.578 -52.899  15.945  1.00  0.00     0.150 C 
HETATM   21  C   UNL     1     -39.057 -52.790  16.152  1.00  0.00     0.187 C 
HETATM   22  O   UNL     1     -38.533 -53.900  16.896  1.00  0.00    -0.388 OA
HETATM   23  C   UNL     1     -38.797 -55.114  16.186  1.00  0.00     0.187 C 
HETATM   24  C   UNL     1     -40.302 -55.346  16.000  1.00  0.00     0.150 C 
ENDBRANCH   7  19
TORSDOF 5
ENDMDL
MODEL 9
REMARK VINA RESULT:      -5.5      4.534      6.090
REMARK  5 active torsions:
REMARK  status: ('A' for Active; 'I' for Inactive)
REMARK    1  A    between atoms: C_2  and  C_4 
REMARK    2  A    between atoms: C_4  and  N_5 
REMARK       I    between atoms: N_5  and  C_6 
REMARK       I    between atoms: C_6  and  N_8 
REMARK    3  A    between atoms: N_8  and  C_9 
REMARK    4  A    between atoms: C_9  and  C_10 
REMARK    5  A    between atoms: C_16  and  N_17 
ROOT
HETATM    1  C   UNL     1     -40.850 -52.947  13.277  1.00  0.00     0.004 A 
HETATM    2  C   UNL     1     -41.061 -54.211  13.878  1.00  0.00     0.014 A 
HETATM    3  C   UNL     1     -40.199 -54.691  14.847  1.00  0.00     0.018 A 
HETATM    4  C   UNL     1     -39.144 -53.885  15.192  1.00  0.00     0.089 A 
HETATM    5  N   UNL     1     -38.944 -52.654  14.674  1.00  0.00    -0.352 N 
ATOM      6  HN  UNL     1     -38.149 -52.099  14.989  1.00  0.00     0.166 HD
HETATM    7  C   UNL     1     -39.789 -52.144  13.737  1.00  0.00     0.111 A 
ENDROOT
BRANCH   1   8
HETATM    8  C   UNL     1     -41.746 -52.637  12.109  1.00  0.00     0.166 C 
BRANCH   8   9
HETATM    9  N   UNL     1     -42.872 -51.797  12.449  1.00  0.00    -0.339 N 
HETATM   10  C   UNL     1     -44.118 -52.354  12.467  1.00  0.00     0.316 C 
HETATM   11  N   UNL     1     -45.097 -51.441  12.726  1.00  0.00    -0.343 N 
HETATM   12  O   UNL     1     -44.333 -53.538  12.239  1.00  0.00    -0.247 OA
HETATM   13  H   UNL     1     -44.864 -50.460  12.704  1.00  0.00     0.164 HD
HETATM   14  H   UNL     1     -42.712 -51.011  13.059  1.00  0.00     0.164 HD
BRANCH  11  15
HETATM   15  C   UNL     1     -46.482 -51.841  12.877  1.00  0.00     0.128 C 
BRANCH  15  16
HETATM   16  C   UNL     1     -46.858 -51.973  14.360  1.00  0.00    -0.005 C 
HETATM   17  C   UNL     1     -46.834 -53.437  14.804  1.00  0.00     0.011 C 
HETATM   18  C   UNL     1     -45.916 -51.141  15.228  1.00  0.00     0.011 C 
ENDBRANCH  15  16
ENDBRANCH  11  15
ENDBRANCH   8   9
ENDBRANCH   1   8
BRANCH   7  19
HETATM   19  N   UNL     1     -39.524 -50.837  13.381  1.00  0.00    -0.363 N 
HETATM   20  C   UNL     1     -38.679 -50.611  12.187  1.00  0.00     0.150 C 
HETATM   21  C   UNL     1     -37.878 -49.305  12.323  1.00  0.00     0.187 C 
HETATM   22  O   UNL     1     -38.723 -48.183  12.616  1.00  0.00    -0.388 OA
HETATM   23  C   UNL     1     -39.408 -48.413  13.851  1.00  0.00     0.187 C 
HETATM   24  C   UNL     1     -40.298 -49.661  13.781  1.00  0.00     0.150 C 
ENDBRANCH   7  19
TORSDOF 5
ENDMDL
