MODEL 1
REMARK VINA RESULT:      -4.8      0.000      0.000
REMARK  2 active torsions:
REMARK  status: ('A' for Active; 'I' for Inactive)
REMARK    1  A    between atoms: C_1  and  C_2 
REMARK    2  A    between atoms: C_1  and  N_8 
ROOT
HETATM    1  C   UNL     1     -41.029 -46.724  11.150  1.00  0.00     0.240 C 
HETATM    2  C   UNL     1     -40.230 -46.923  12.447  1.00  0.00     0.037 C 
HETATM    3  C   UNL     1     -39.969 -45.559  13.081  1.00  0.00     0.004 C 
HETATM    4  C   UNL     1     -39.295 -44.607  12.095  1.00  0.00     0.030 C 
HETATM    5  C   UNL     1     -39.927 -44.631  10.700  1.00  0.00     0.270 C 
HETATM    6  N   UNL     1     -40.173 -45.987  10.195  1.00  0.00     0.089 N 
HETATM    7  H   UNL     1     -39.279 -46.471  10.104  1.00  0.00     0.316 HD
ENDROOT
BRANCH   1   8
HETATM    8  C   UNL     1     -41.571 -48.034  10.558  1.00  0.00     0.183 C 
BRANCH   8   9
HETATM    9  N   UNL     1     -42.767 -47.794   9.760  1.00  0.00    -0.302 N 
HETATM   10  C   UNL     1     -44.005 -47.447  10.230  1.00  0.00     0.111 A 
HETATM   11  C   UNL     1     -44.840 -47.441   9.139  1.00  0.00     0.037 A 
HETATM   12  C   UNL     1     -44.011 -47.789   8.056  1.00  0.00     0.108 A 
HETATM   13  N   UNL     1     -42.744 -47.995   8.427  1.00  0.00    -0.310 N 
ATOM     14  HN  UNL     1     -41.948 -48.245   7.841  1.00  0.00     0.186 HD
ENDBRANCH   8   9
ENDBRANCH   1   8
TORSDOF 2
ENDMDL
MODEL 2
REMARK VINA RESULT:      -4.7      6.691      8.561
REMARK  2 active torsions:
REMARK  status: ('A' for Active; 'I' for Inactive)
REMARK    1  A    between atoms: C_1  and  C_2 
REMARK    2  A    between atoms: C_1  and  N_8 
ROOT
HETATM    1  C   UNL     1     -45.106 -53.072  13.724  1.00  0.00     0.240 C 
HETATM    2  C   UNL     1     -46.255 -52.182  13.229  1.00  0.00     0.037 C 
HETATM    3  C   UNL     1     -46.726 -51.298  14.381  1.00  0.00     0.004 C 
HETATM    4  C   UNL     1     -47.091 -52.131  15.609  1.00  0.00     0.030 C 
HETATM    5  C   UNL     1     -46.065 -53.223  15.927  1.00  0.00     0.270 C 
HETATM    6  N   UNL     1     -45.648 -53.992  14.749  1.00  0.00     0.089 N 
HETATM    7  H   UNL     1     -46.461 -54.476  14.366  1.00  0.00     0.316 HD
ENDROOT
BRANCH   1   8
HETATM    8  C   UNL     1     -44.380 -53.819  12.594  1.00  0.00     0.183 C 
BRANCH   8   9
HETATM    9  N   UNL     1     -42.958 -53.501  12.581  1.00  0.00    -0.302 N 
HETATM   10  C   UNL     1     -42.002 -54.004  13.422  1.00  0.00     0.111 A 
HETATM   11  C   UNL     1     -40.838 -53.341  13.120  1.00  0.00     0.037 A 
HETATM   12  C   UNL     1     -41.192 -52.464  12.076  1.00  0.00     0.108 A 
HETATM   13  N   UNL     1     -42.480 -52.565  11.738  1.00  0.00    -0.310 N 
ATOM     14  HN  UNL     1     -42.983 -52.055  11.011  1.00  0.00     0.186 HD
ENDBRANCH   8   9
ENDBRANCH   1   8
TORSDOF 2
ENDMDL
MODEL 3
REMARK VINA RESULT:      -4.7      6.376      7.527
REMARK  2 active torsions:
REMARK  status: ('A' for Active; 'I' for Inactive)
REMARK    1  A    between atoms: C_1  and  C_2 
REMARK    2  A    between atoms: C_1  and  N_8 
ROOT
HETATM    1  C   UNL     1     -43.227 -53.080  12.838  1.00  0.00     0.240 C 
HETATM    2  C   UNL     1     -42.410 -54.165  13.555  1.00  0.00     0.037 C 
HETATM    3  C   UNL     1     -41.123 -53.541  14.091  1.00  0.00     0.004 C 
HETATM    4  C   UNL     1     -40.346 -52.831  12.984  1.00  0.00     0.030 C 
HETATM    5  C   UNL     1     -41.232 -51.965  12.082  1.00  0.00     0.270 C 
HETATM    6  N   UNL     1     -42.461 -52.640  11.651  1.00  0.00     0.089 N 
HETATM    7  H   UNL     1     -42.210 -53.458  11.094  1.00  0.00     0.316 HD
ENDROOT
BRANCH   1   8
HETATM    8  C   UNL     1     -44.654 -53.524  12.482  1.00  0.00     0.183 C 
BRANCH   8   9
HETATM    9  N   UNL     1     -45.635 -52.891  13.355  1.00  0.00    -0.302 N 
HETATM   10  C   UNL     1     -45.762 -51.550  13.602  1.00  0.00     0.111 A 
HETATM   11  C   UNL     1     -46.734 -51.429  14.565  1.00  0.00     0.037 A 
HETATM   12  C   UNL     1     -47.140 -52.752  14.827  1.00  0.00     0.108 A 
HETATM   13  N   UNL     1     -46.480 -53.645  14.084  1.00  0.00    -0.310 N 
ATOM     14  HN  UNL     1     -46.591 -54.660  14.072  1.00  0.00     0.186 HD
ENDBRANCH   8   9
ENDBRANCH   1   8
TORSDOF 2
ENDMDL
MODEL 4
REMARK VINA RESULT:      -4.5      2.925      4.765
REMARK  2 active torsions:
REMARK  status: ('A' for Active; 'I' for Inactive)
REMARK    1  A    between atoms: C_1  and  C_2 
REMARK    2  A    between atoms: C_1  and  N_8 
ROOT
HETATM    1  C   UNL     1     -39.087 -48.783  11.978  1.00  0.00     0.240 C 
HETATM    2  C   UNL     1     -39.235 -49.600  13.270  1.00  0.00     0.037 C 
HETATM    3  C   UNL     1     -37.867 -50.146  13.669  1.00  0.00     0.004 C 
HETATM    4  C   UNL     1     -37.226 -50.932  12.527  1.00  0.00     0.030 C 
HETATM    5  C   UNL     1     -37.341 -50.230  11.170  1.00  0.00     0.270 C 
HETATM    6  N   UNL     1     -38.685 -49.708  10.896  1.00  0.00     0.089 N 
HETATM    7  H   UNL     1     -39.341 -50.489  10.863  1.00  0.00     0.316 HD
ENDROOT
BRANCH   1   8
HETATM    8  C   UNL     1     -40.343 -47.973  11.619  1.00  0.00     0.183 C 
BRANCH   8   9
HETATM    9  N   UNL     1     -40.023 -46.564  11.432  1.00  0.00    -0.302 N 
HETATM   10  C   UNL     1     -39.916 -45.615  12.413  1.00  0.00     0.111 A 
HETATM   11  C   UNL     1     -39.717 -44.419  11.768  1.00  0.00     0.037 A 
HETATM   12  C   UNL     1     -39.710 -44.751  10.399  1.00  0.00     0.108 A 
HETATM   13  N   UNL     1     -39.886 -46.059  10.190  1.00  0.00    -0.310 N 
ATOM     14  HN  UNL     1     -39.910 -46.557   9.300  1.00  0.00     0.186 HD
ENDBRANCH   8   9
ENDBRANCH   1   8
TORSDOF 2
ENDMDL
MODEL 5
REMARK VINA RESULT:      -4.4      5.083      5.854
REMARK  2 active torsions:
REMARK  status: ('A' for Active; 'I' for Inactive)
REMARK    1  A    between atoms: C_1  and  C_2 
REMARK    2  A    between atoms: C_1  and  N_8 
ROOT
HETATM    1  C   UNL     1     -40.609 -51.475  12.390  1.00  0.00     0.240 C 
HETATM    2  C   UNL     1     -39.275 -51.113  13.060  1.00  0.00     0.037 C 
HETATM    3  C   UNL     1     -39.253 -49.612  13.338  1.00  0.00     0.004 C 
HETATM    4  C   UNL     1     -39.530 -48.807  12.069  1.00  0.00     0.030 C 
HETATM    5  C   UNL     1     -40.697 -49.359  11.245  1.00  0.00     0.270 C 
HETATM    6  N   UNL     1     -40.648 -50.814  11.066  1.00  0.00     0.089 N 
HETATM    7  H   UNL     1     -39.802 -51.054  10.547  1.00  0.00     0.316 HD
ENDROOT
BRANCH   1   8
HETATM    8  C   UNL     1     -40.855 -52.989  12.295  1.00  0.00     0.183 C 
BRANCH   8   9
HETATM    9  N   UNL     1     -42.208 -53.328  12.718  1.00  0.00    -0.302 N 
HETATM   10  C   UNL     1     -42.558 -54.063  13.819  1.00  0.00     0.111 A 
HETATM   11  C   UNL     1     -43.921 -54.224  13.754  1.00  0.00     0.037 A 
HETATM   12  C   UNL     1     -44.302 -53.541  12.583  1.00  0.00     0.108 A 
HETATM   13  N   UNL     1     -43.264 -52.984  11.954  1.00  0.00    -0.310 N 
ATOM     14  HN  UNL     1     -43.269 -52.430  11.098  1.00  0.00     0.186 HD
ENDBRANCH   8   9
ENDBRANCH   1   8
TORSDOF 2
ENDMDL
MODEL 6
REMARK VINA RESULT:      -4.3      4.361      6.459
REMARK  2 active torsions:
REMARK  status: ('A' for Active; 'I' for Inactive)
REMARK    1  A    between atoms: C_1  and  C_2 
REMARK    2  A    between atoms: C_1  and  N_8 
ROOT
HETATM    1  C   UNL     1     -41.808 -50.521  12.433  1.00  0.00     0.240 C 
HETATM    2  C   UNL     1     -43.035 -49.684  12.822  1.00  0.00     0.037 C 
HETATM    3  C   UNL     1     -43.773 -50.388  13.959  1.00  0.00     0.004 C 
HETATM    4  C   UNL     1     -44.117 -51.830  13.591  1.00  0.00     0.030 C 
HETATM    5  C   UNL     1     -42.956 -52.579  12.928  1.00  0.00     0.270 C 
HETATM    6  N   UNL     1     -42.289 -51.805  11.875  1.00  0.00     0.089 N 
HETATM    7  H   UNL     1     -42.960 -51.615  11.130  1.00  0.00     0.316 HD
ENDROOT
BRANCH   1   8
HETATM    8  C   UNL     1     -40.848 -49.793  11.480  1.00  0.00     0.183 C 
BRANCH   8   9
HETATM    9  N   UNL     1     -39.464 -50.174  11.736  1.00  0.00    -0.302 N 
HETATM   10  C   UNL     1     -38.975 -50.748  12.878  1.00  0.00     0.111 A 
HETATM   11  C   UNL     1     -37.613 -50.822  12.715  1.00  0.00     0.037 A 
HETATM   12  C   UNL     1     -37.379 -50.276  11.439  1.00  0.00     0.108 A 
HETATM   13  N   UNL     1     -38.505 -49.889  10.833  1.00  0.00    -0.310 N 
ATOM     14  HN  UNL     1     -38.613 -49.476   9.907  1.00  0.00     0.186 HD
ENDBRANCH   8   9
ENDBRANCH   1   8
TORSDOF 2
ENDMDL
MODEL 7
REMARK VINA RESULT:      -4.1      2.127      4.397
REMARK  2 active torsions:
REMARK  status: ('A' for Active; 'I' for Inactive)
REMARK    1  A    between atoms: C_1  and  C_2 
REMARK    2  A    between atoms: C_1  and  N_8 
ROOT
HETATM    1  C   UNL     1     -41.748 -48.154  11.136  1.00  0.00     0.240 C 
HETATM    2  C   UNL     1     -42.959 -48.703  11.905  1.00  0.00     0.037 C 
HETATM    3  C   UNL     1     -42.465 -49.671  12.978  1.00  0.00     0.004 C 
HETATM    4  C   UNL     1     -41.583 -50.764  12.378  1.00  0.00     0.030 C 
HETATM    5  C   UNL     1     -40.554 -50.230  11.376  1.00  0.00     0.270 C 
HETATM    6  N   UNL     1     -41.118 -49.280  10.412  1.00  0.00     0.089 N 
HETATM    7  H   UNL     1     -41.827 -49.758   9.854  1.00  0.00     0.316 HD
ENDROOT
BRANCH   1   8
HETATM    8  C   UNL     1     -42.094 -46.981  10.205  1.00  0.00     0.183 C 
BRANCH   8   9
HETATM    9  N   UNL     1     -41.244 -45.828  10.474  1.00  0.00    -0.302 N 
HETATM   10  C   UNL     1     -41.624 -44.658  11.075  1.00  0.00     0.111 A 
HETATM   11  C   UNL     1     -40.533 -43.825  11.013  1.00  0.00     0.037 A 
HETATM   12  C   UNL     1     -39.542 -44.587  10.365  1.00  0.00     0.108 A 
HETATM   13  N   UNL     1     -39.968 -45.812  10.044  1.00  0.00    -0.310 N 
ATOM     14  HN  UNL     1     -39.448 -46.560   9.582  1.00  0.00     0.186 HD
ENDBRANCH   8   9
ENDBRANCH   1   8
TORSDOF 2
ENDMDL
MODEL 8
REMARK VINA RESULT:      -4.1      3.570      4.643
REMARK  2 active torsions:
REMARK  status: ('A' for Active; 'I' for Inactive)
REMARK    1  A    between atoms: C_1  and  C_2 
REMARK    2  A    between atoms: C_1  and  N_8 
ROOT
HETATM    1  C   UNL     1     -40.556 -49.032  11.530  1.00  0.00     0.240 C 
HETATM    2  C   UNL     1     -39.680 -47.783  11.699  1.00  0.00     0.037 C 
HETATM    3  C   UNL     1     -40.582 -46.554  11.779  1.00  0.00     0.004 C 
HETATM    4  C   UNL     1     -41.523 -46.475  10.578  1.00  0.00     0.030 C 
HETATM    5  C   UNL     1     -42.180 -47.815  10.234  1.00  0.00     0.270 C 
HETATM    6  N   UNL     1     -41.237 -48.940  10.219  1.00  0.00     0.089 N 
HETATM    7  H   UNL     1     -40.540 -48.776   9.492  1.00  0.00     0.316 HD
ENDROOT
BRANCH   1   8
HETATM    8  C   UNL     1     -39.782 -50.350  11.695  1.00  0.00     0.183 C 
BRANCH   8   9
HETATM    9  N   UNL     1     -40.635 -51.394  12.249  1.00  0.00    -0.302 N 
HETATM   10  C   UNL     1     -40.891 -51.619  13.575  1.00  0.00     0.111 A 
HETATM   11  C   UNL     1     -41.645 -52.766  13.629  1.00  0.00     0.037 A 
HETATM   12  C   UNL     1     -41.799 -53.153  12.284  1.00  0.00     0.108 A 
HETATM   13  N   UNL     1     -41.194 -52.314  11.438  1.00  0.00    -0.310 N 
ATOM     14  HN  UNL     1     -41.162 -52.359  10.419  1.00  0.00     0.186 HD
ENDBRANCH   8   9
ENDBRANCH   1   8
TORSDOF 2
ENDMDL
MODEL 9
REMARK VINA RESULT:      -4.0      4.058      5.372
REMARK  2 active torsions:
REMARK  status: ('A' for Active; 'I' for Inactive)
REMARK    1  A    between atoms: C_1  and  C_2 
REMARK    2  A    between atoms: C_1  and  N_8 
ROOT
HETATM    1  C   UNL     1     -40.573 -51.055  12.396  1.00  0.00     0.240 C 
HETATM    2  C   UNL     1     -41.323 -52.261  11.811  1.00  0.00     0.037 C 
HETATM    3  C   UNL     1     -41.839 -53.126  12.959  1.00  0.00     0.004 C 
HETATM    4  C   UNL     1     -40.710 -53.519  13.910  1.00  0.00     0.030 C 
HETATM    5  C   UNL     1     -39.781 -52.353  14.263  1.00  0.00     0.270 C 
HETATM    6  N   UNL     1     -39.372 -51.560  13.098  1.00  0.00     0.089 N 
HETATM    7  H   UNL     1     -38.841 -52.158  12.463  1.00  0.00     0.316 HD
ENDROOT
BRANCH   1   8
HETATM    8  C   UNL     1     -40.230 -49.982  11.351  1.00  0.00     0.183 C 
BRANCH   8   9
HETATM    9  N   UNL     1     -41.346 -49.065  11.154  1.00  0.00    -0.302 N 
HETATM   10  C   UNL     1     -42.331 -48.774  12.059  1.00  0.00     0.111 A 
HETATM   11  C   UNL     1     -43.222 -47.958  11.405  1.00  0.00     0.037 A 
HETATM   12  C   UNL     1     -42.681 -47.806  10.114  1.00  0.00     0.108 A 
HETATM   13  N   UNL     1     -41.532 -48.471   9.959  1.00  0.00    -0.310 N 
ATOM     14  HN  UNL     1     -40.937 -48.517   9.132  1.00  0.00     0.186 HD
ENDBRANCH   8   9
ENDBRANCH   1   8
TORSDOF 2
ENDMDL
