MODEL 1
REMARK VINA RESULT:      -6.5      0.000      0.000
REMARK  3 active torsions:
REMARK  status: ('A' for Active; 'I' for Inactive)
REMARK    1  A    between atoms: C_2  and  N_4 
REMARK    2  A    between atoms: C_8  and  N_10 
REMARK       I    between atoms: N_10  and  C_11 
REMARK       I    between atoms: C_11  and  N_13 
REMARK    3  A    between atoms: N_13  and  C_14 
ROOT
HETATM    1  N   UNL     1     -41.337 -49.782  11.635  1.00  0.00    -0.336 N 
HETATM    2  C   UNL     1     -42.336 -48.859  11.397  1.00  0.00     0.322 C 
HETATM    3  O   UNL     1     -43.127 -48.508  12.268  1.00  0.00    -0.247 OA
HETATM    4  N   UNL     1     -42.372 -48.446  10.090  1.00  0.00    -0.295 N 
HETATM    5  H   UNL     1     -40.479 -49.666  11.115  1.00  0.00     0.164 HD
HETATM    6  H   UNL     1     -42.231 -49.185   9.418  1.00  0.00     0.172 HD
ENDROOT
BRANCH   1   7
HETATM    7  C   UNL     1     -41.250 -50.412  12.947  1.00  0.00     0.119 C 
HETATM    8  C   UNL     1     -39.837 -50.526  13.535  1.00  0.00     0.034 C 
HETATM    9  C   UNL     1     -39.420 -51.981  13.308  1.00  0.00     0.279 C 
HETATM   10  C   UNL     1     -38.773 -49.552  13.050  1.00  0.00     0.014 C 
HETATM   11  N   UNL     1     -40.547 -52.683  12.674  1.00  0.00     0.094 N 
HETATM   12  C   UNL     1     -41.742 -51.866  12.950  1.00  0.00     0.298 C 
BRANCH  11  13
HETATM   13  C   UNL     1     -40.665 -54.081  13.150  1.00  0.00     0.215 C 
HETATM   14  C   UNL     1     -39.467 -54.520  14.000  1.00  0.00     0.042 C 
HETATM   15  C   UNL     1     -41.942 -54.277  13.984  1.00  0.00     0.042 C 
ENDBRANCH  11  13
ENDBRANCH   1   7
BRANCH   4  16
HETATM   16  C   UNL     1     -43.328 -47.513   9.660  1.00  0.00     0.109 A 
HETATM   17  C   UNL     1     -42.996 -46.181   9.453  1.00  0.00     0.049 A 
HETATM   18  C   UNL     1     -43.989 -45.297   9.047  1.00  0.00     0.006 A 
HETATM   19  C   UNL     1     -45.289 -45.764   8.901  1.00  0.00     0.025 A 
HETATM   20  C   UNL     1     -45.544 -47.112   9.130  1.00  0.00     0.007 A 
HETATM   21  C   UNL     1     -46.952 -47.632   9.107  1.00  0.00     0.068 C 
HETATM   22  N   UNL     1     -44.571 -48.000   9.460  1.00  0.00    -0.346 N 
ATOM     23  HN  UNL     1     -44.772 -48.996   9.552  1.00  0.00     0.167 HD
ENDBRANCH   4  16
TORSDOF 3
ENDMDL
MODEL 2
REMARK VINA RESULT:      -6.2      2.190      7.242
REMARK  3 active torsions:
REMARK  status: ('A' for Active; 'I' for Inactive)
REMARK    1  A    between atoms: C_2  and  N_4 
REMARK    2  A    between atoms: C_8  and  N_10 
REMARK       I    between atoms: N_10  and  C_11 
REMARK       I    between atoms: C_11  and  N_13 
REMARK    3  A    between atoms: N_13  and  C_14 
ROOT
HETATM    1  N   UNL     1     -42.237 -49.069  11.381  1.00  0.00    -0.336 N 
HETATM    2  C   UNL     1     -42.451 -50.061  12.316  1.00  0.00     0.322 C 
HETATM    3  O   UNL     1     -42.859 -49.820  13.448  1.00  0.00    -0.247 OA
HETATM    4  N   UNL     1     -42.100 -51.305  11.856  1.00  0.00    -0.295 N 
HETATM    5  H   UNL     1     -42.393 -49.315  10.414  1.00  0.00     0.164 HD
HETATM    6  H   UNL     1     -41.243 -51.323  11.323  1.00  0.00     0.172 HD
ENDROOT
BRANCH   1   7
HETATM    7  C   UNL     1     -42.441 -47.677  11.763  1.00  0.00     0.119 C 
HETATM    8  C   UNL     1     -43.152 -46.801  10.722  1.00  0.00     0.034 C 
HETATM    9  C   UNL     1     -42.042 -45.984  10.055  1.00  0.00     0.279 C 
HETATM   10  C   UNL     1     -44.046 -47.481   9.696  1.00  0.00     0.014 C 
HETATM   11  N   UNL     1     -40.769 -46.328  10.709  1.00  0.00     0.094 N 
HETATM   12  C   UNL     1     -41.128 -46.921  12.009  1.00  0.00     0.298 C 
BRANCH  11  13
HETATM   13  C   UNL     1     -39.873 -45.154  10.823  1.00  0.00     0.215 C 
HETATM   14  C   UNL     1     -39.119 -44.855   9.521  1.00  0.00     0.042 C 
HETATM   15  C   UNL     1     -40.659 -43.892  11.221  1.00  0.00     0.042 C 
ENDBRANCH  11  13
ENDBRANCH   1   7
BRANCH   4  16
HETATM   16  C   UNL     1     -42.243 -52.437  12.673  1.00  0.00     0.109 A 
HETATM   17  C   UNL     1     -41.142 -53.050  13.256  1.00  0.00     0.049 A 
HETATM   18  C   UNL     1     -41.341 -54.181  14.039  1.00  0.00     0.006 A 
HETATM   19  C   UNL     1     -42.627 -54.686  14.182  1.00  0.00     0.025 A 
HETATM   20  C   UNL     1     -43.679 -54.017  13.564  1.00  0.00     0.007 A 
HETATM   21  C   UNL     1     -45.063 -54.595  13.587  1.00  0.00     0.068 C 
HETATM   22  N   UNL     1     -43.508 -52.872  12.853  1.00  0.00    -0.346 N 
ATOM     23  HN  UNL     1     -44.304 -52.362  12.471  1.00  0.00     0.167 HD
ENDBRANCH   4  16
TORSDOF 3
ENDMDL
MODEL 3
REMARK VINA RESULT:      -6.0      2.163      3.313
REMARK  3 active torsions:
REMARK  status: ('A' for Active; 'I' for Inactive)
REMARK    1  A    between atoms: C_2  and  N_4 
REMARK    2  A    between atoms: C_8  and  N_10 
REMARK       I    between atoms: N_10  and  C_11 
REMARK       I    between atoms: C_11  and  N_13 
REMARK    3  A    between atoms: N_13  and  C_14 
ROOT
HETATM    1  N   UNL     1     -41.769 -51.334  12.527  1.00  0.00    -0.336 N 
HETATM    2  C   UNL     1     -42.142 -50.033  12.258  1.00  0.00     0.322 C 
HETATM    3  O   UNL     1     -42.915 -49.409  12.979  1.00  0.00    -0.247 OA
HETATM    4  N   UNL     1     -41.607 -49.563  11.086  1.00  0.00    -0.295 N 
HETATM    5  H   UNL     1     -40.837 -51.606  12.249  1.00  0.00     0.164 HD
HETATM    6  H   UNL     1     -41.615 -50.231  10.330  1.00  0.00     0.172 HD
ENDROOT
BRANCH   1   7
HETATM    7  C   UNL     1     -42.357 -52.019  13.673  1.00  0.00     0.119 C 
HETATM    8  C   UNL     1     -42.030 -53.514  13.791  1.00  0.00     0.034 C 
HETATM    9  C   UNL     1     -43.277 -54.244  13.287  1.00  0.00     0.279 C 
HETATM   10  C   UNL     1     -40.765 -54.031  13.121  1.00  0.00     0.014 C 
HETATM   11  N   UNL     1     -44.289 -53.230  12.947  1.00  0.00     0.094 N 
HETATM   12  C   UNL     1     -43.892 -52.004  13.660  1.00  0.00     0.298 C 
BRANCH  11  13
HETATM   13  C   UNL     1     -45.659 -53.687  13.276  1.00  0.00     0.215 C 
HETATM   14  C   UNL     1     -45.675 -55.035  14.008  1.00  0.00     0.042 C 
HETATM   15  C   UNL     1     -46.392 -52.657  14.153  1.00  0.00     0.042 C 
ENDBRANCH  11  13
ENDBRANCH   1   7
BRANCH   4  16
HETATM   16  C   UNL     1     -41.883 -48.259  10.646  1.00  0.00     0.109 A 
HETATM   17  C   UNL     1     -41.010 -47.210  10.901  1.00  0.00     0.049 A 
HETATM   18  C   UNL     1     -41.345 -45.936  10.459  1.00  0.00     0.006 A 
HETATM   19  C   UNL     1     -42.559 -45.743   9.812  1.00  0.00     0.025 A 
HETATM   20  C   UNL     1     -43.383 -46.844   9.597  1.00  0.00     0.007 A 
HETATM   21  C   UNL     1     -44.754 -46.662   9.016  1.00  0.00     0.068 C 
HETATM   22  N   UNL     1     -43.037 -48.105   9.961  1.00  0.00    -0.346 N 
ATOM     23  HN  UNL     1     -43.625 -48.905   9.727  1.00  0.00     0.167 HD
ENDBRANCH   4  16
TORSDOF 3
ENDMDL
MODEL 4
REMARK VINA RESULT:      -5.6      2.007      7.663
REMARK  3 active torsions:
REMARK  status: ('A' for Active; 'I' for Inactive)
REMARK    1  A    between atoms: C_2  and  N_4 
REMARK    2  A    between atoms: C_8  and  N_10 
REMARK       I    between atoms: N_10  and  C_11 
REMARK       I    between atoms: C_11  and  N_13 
REMARK    3  A    between atoms: N_13  and  C_14 
ROOT
HETATM    1  N   UNL     1     -42.005 -48.894  10.825  1.00  0.00    -0.336 N 
HETATM    2  C   UNL     1     -41.794 -49.833  11.814  1.00  0.00     0.322 C 
HETATM    3  O   UNL     1     -42.332 -49.759  12.915  1.00  0.00    -0.247 OA
HETATM    4  N   UNL     1     -40.886 -50.793  11.445  1.00  0.00    -0.295 N 
HETATM    5  H   UNL     1     -41.974 -49.224   9.871  1.00  0.00     0.164 HD
HETATM    6  H   UNL     1     -40.087 -50.436  10.943  1.00  0.00     0.172 HD
ENDROOT
BRANCH   1   7
HETATM    7  C   UNL     1     -42.847 -47.738  11.111  1.00  0.00     0.119 C 
HETATM    8  C   UNL     1     -43.389 -46.993   9.884  1.00  0.00     0.034 C 
HETATM    9  C   UNL     1     -42.508 -45.749   9.742  1.00  0.00     0.279 C 
HETATM   10  C   UNL     1     -43.505 -47.753   8.571  1.00  0.00     0.014 C 
HETATM   11  N   UNL     1     -41.545 -45.746  10.855  1.00  0.00     0.094 N 
HETATM   12  C   UNL     1     -42.112 -46.635  11.885  1.00  0.00     0.298 C 
BRANCH  11  13
HETATM   13  C   UNL     1     -41.272 -44.375  11.345  1.00  0.00     0.215 C 
HETATM   14  C   UNL     1     -42.428 -43.800  12.175  1.00  0.00     0.042 C 
HETATM   15  C   UNL     1     -39.998 -44.336  12.206  1.00  0.00     0.042 C 
ENDBRANCH  11  13
ENDBRANCH   1   7
BRANCH   4  16
HETATM   16  C   UNL     1     -40.541 -51.828  12.328  1.00  0.00     0.109 A 
HETATM   17  C   UNL     1     -41.008 -53.122  12.143  1.00  0.00     0.049 A 
HETATM   18  C   UNL     1     -40.650 -54.102  13.060  1.00  0.00     0.006 A 
HETATM   19  C   UNL     1     -39.870 -53.750  14.154  1.00  0.00     0.025 A 
HETATM   20  C   UNL     1     -39.443 -52.431  14.273  1.00  0.00     0.007 A 
HETATM   21  C   UNL     1     -38.707 -51.980  15.500  1.00  0.00     0.068 C 
HETATM   22  N   UNL     1     -39.727 -51.478  13.348  1.00  0.00    -0.346 N 
ATOM     23  HN  UNL     1     -39.342 -50.537  13.420  1.00  0.00     0.167 HD
ENDBRANCH   4  16
TORSDOF 3
ENDMDL
MODEL 5
REMARK VINA RESULT:      -5.5      3.039      4.140
REMARK  3 active torsions:
REMARK  status: ('A' for Active; 'I' for Inactive)
REMARK    1  A    between atoms: C_2  and  N_4 
REMARK    2  A    between atoms: C_8  and  N_10 
REMARK       I    between atoms: N_10  and  C_11 
REMARK       I    between atoms: C_11  and  N_13 
REMARK    3  A    between atoms: N_13  and  C_14 
ROOT
HETATM    1  N   UNL     1     -42.715 -49.716  12.042  1.00  0.00    -0.336 N 
HETATM    2  C   UNL     1     -42.166 -48.465  12.234  1.00  0.00     0.322 C 
HETATM    3  O   UNL     1     -41.783 -48.078  13.335  1.00  0.00    -0.247 OA
HETATM    4  N   UNL     1     -42.160 -47.709  11.090  1.00  0.00    -0.295 N 
HETATM    5  H   UNL     1     -42.549 -50.152  11.146  1.00  0.00     0.164 HD
HETATM    6  H   UNL     1     -43.003 -47.784  10.540  1.00  0.00     0.172 HD
ENDROOT
BRANCH   1   7
HETATM    7  C   UNL     1     -42.907 -50.592  13.191  1.00  0.00     0.119 C 
HETATM    8  C   UNL     1     -42.494 -52.056  12.986  1.00  0.00     0.034 C 
HETATM    9  C   UNL     1     -43.802 -52.818  12.757  1.00  0.00     0.279 C 
HETATM   10  C   UNL     1     -41.462 -52.371  11.913  1.00  0.00     0.014 C 
HETATM   11  N   UNL     1     -44.913 -51.860  12.876  1.00  0.00     0.094 N 
HETATM   12  C   UNL     1     -44.377 -50.707  13.621  1.00  0.00     0.298 C 
BRANCH  11  13
HETATM   13  C   UNL     1     -46.103 -52.471  13.511  1.00  0.00     0.215 C 
HETATM   14  C   UNL     1     -45.801 -53.835  14.146  1.00  0.00     0.042 C 
HETATM   15  C   UNL     1     -46.684 -51.554  14.600  1.00  0.00     0.042 C 
ENDBRANCH  11  13
ENDBRANCH   1   7
BRANCH   4  16
HETATM   16  C   UNL     1     -41.645 -46.403  11.097  1.00  0.00     0.109 A 
HETATM   17  C   UNL     1     -40.358 -46.132  10.654  1.00  0.00     0.049 A 
HETATM   18  C   UNL     1     -39.893 -44.823  10.703  1.00  0.00     0.006 A 
HETATM   19  C   UNL     1     -40.714 -43.835  11.230  1.00  0.00     0.025 A 
HETATM   20  C   UNL     1     -41.991 -44.185  11.657  1.00  0.00     0.007 A 
HETATM   21  C   UNL     1     -42.864 -43.178  12.346  1.00  0.00     0.068 C 
HETATM   22  N   UNL     1     -42.483 -45.447  11.551  1.00  0.00    -0.346 N 
ATOM     23  HN  UNL     1     -43.447 -45.663  11.804  1.00  0.00     0.167 HD
ENDBRANCH   4  16
TORSDOF 3
ENDMDL
MODEL 6
REMARK VINA RESULT:      -5.4      1.921      3.153
REMARK  3 active torsions:
REMARK  status: ('A' for Active; 'I' for Inactive)
REMARK    1  A    between atoms: C_2  and  N_4 
REMARK    2  A    between atoms: C_8  and  N_10 
REMARK       I    between atoms: N_10  and  C_11 
REMARK       I    between atoms: C_11  and  N_13 
REMARK    3  A    between atoms: N_13  and  C_14 
ROOT
HETATM    1  N   UNL     1     -42.233 -51.501  13.067  1.00  0.00    -0.336 N 
HETATM    2  C   UNL     1     -42.008 -50.443  12.210  1.00  0.00     0.322 C 
HETATM    3  O   UNL     1     -41.089 -50.439  11.397  1.00  0.00    -0.247 OA
HETATM    4  N   UNL     1     -42.876 -49.401  12.420  1.00  0.00    -0.295 N 
HETATM    5  H   UNL     1     -43.193 -51.683  13.321  1.00  0.00     0.164 HD
HETATM    6  H   UNL     1     -43.057 -49.202  13.392  1.00  0.00     0.172 HD
ENDROOT
BRANCH   1   7
HETATM    7  C   UNL     1     -41.313 -52.633  13.054  1.00  0.00     0.119 C 
HETATM    8  C   UNL     1     -41.937 -53.998  13.375  1.00  0.00     0.034 C 
HETATM    9  C   UNL     1     -41.557 -54.285  14.830  1.00  0.00     0.279 C 
HETATM   10  C   UNL     1     -43.428 -54.185  13.134  1.00  0.00     0.014 C 
HETATM   11  N   UNL     1     -40.717 -53.175  15.308  1.00  0.00     0.094 N 
HETATM   12  C   UNL     1     -40.196 -52.511  14.100  1.00  0.00     0.298 C 
BRANCH  11  13
HETATM   13  C   UNL     1     -39.656 -53.643  16.228  1.00  0.00     0.215 C 
HETATM   14  C   UNL     1     -38.858 -54.825  15.661  1.00  0.00     0.042 C 
HETATM   15  C   UNL     1     -38.667 -52.512  16.557  1.00  0.00     0.042 C 
ENDBRANCH  11  13
ENDBRANCH   1   7
BRANCH   4  16
HETATM   16  C   UNL     1     -42.794 -48.234  11.645  1.00  0.00     0.109 A 
HETATM   17  C   UNL     1     -42.475 -47.009  12.216  1.00  0.00     0.049 A 
HETATM   18  C   UNL     1     -42.428 -45.882  11.403  1.00  0.00     0.006 A 
HETATM   19  C   UNL     1     -42.739 -46.009  10.055  1.00  0.00     0.025 A 
HETATM   20  C   UNL     1     -43.052 -47.270   9.558  1.00  0.00     0.007 A 
HETATM   21  C   UNL     1     -43.515 -47.432   8.140  1.00  0.00     0.068 C 
HETATM   22  N   UNL     1     -43.034 -48.390  10.326  1.00  0.00    -0.346 N 
ATOM     23  HN  UNL     1     -43.196 -49.312   9.922  1.00  0.00     0.167 HD
ENDBRANCH   4  16
TORSDOF 3
ENDMDL
MODEL 7
REMARK VINA RESULT:      -5.2      2.731      7.520
REMARK  3 active torsions:
REMARK  status: ('A' for Active; 'I' for Inactive)
REMARK    1  A    between atoms: C_2  and  N_4 
REMARK    2  A    between atoms: C_8  and  N_10 
REMARK       I    between atoms: N_10  and  C_11 
REMARK       I    between atoms: C_11  and  N_13 
REMARK    3  A    between atoms: N_13  and  C_14 
ROOT
HETATM    1  N   UNL     1     -41.634 -49.815  12.586  1.00  0.00    -0.336 N 
HETATM    2  C   UNL     1     -41.725 -51.173  12.815  1.00  0.00     0.322 C 
HETATM    3  O   UNL     1     -41.174 -51.998  12.093  1.00  0.00    -0.247 OA
HETATM    4  N   UNL     1     -42.535 -51.476  13.879  1.00  0.00    -0.295 N 
HETATM    5  H   UNL     1     -41.650 -49.216  13.399  1.00  0.00     0.164 HD
HETATM    6  H   UNL     1     -43.378 -50.923  13.929  1.00  0.00     0.172 HD
ENDROOT
BRANCH   1   7
HETATM    7  C   UNL     1     -40.911 -49.338  11.413  1.00  0.00     0.119 C 
HETATM    8  C   UNL     1     -39.528 -48.734  11.686  1.00  0.00     0.034 C 
HETATM    9  C   UNL     1     -39.727 -47.218  11.620  1.00  0.00     0.279 C 
HETATM   10  C   UNL     1     -38.795 -49.152  12.953  1.00  0.00     0.014 C 
HETATM   11  N   UNL     1     -41.134 -46.959  11.275  1.00  0.00     0.094 N 
HETATM   12  C   UNL     1     -41.640 -48.206  10.676  1.00  0.00     0.298 C 
BRANCH  11  13
HETATM   13  C   UNL     1     -41.277 -45.779  10.392  1.00  0.00     0.215 C 
HETATM   14  C   UNL     1     -42.390 -44.828  10.850  1.00  0.00     0.042 C 
HETATM   15  C   UNL     1     -39.965 -44.980  10.316  1.00  0.00     0.042 C 
ENDBRANCH  11  13
ENDBRANCH   1   7
BRANCH   4  16
HETATM   16  C   UNL     1     -42.752 -52.810  14.257  1.00  0.00     0.109 A 
HETATM   17  C   UNL     1     -43.972 -53.434  14.036  1.00  0.00     0.049 A 
HETATM   18  C   UNL     1     -44.136 -54.751  14.449  1.00  0.00     0.006 A 
HETATM   19  C   UNL     1     -43.091 -55.388  15.105  1.00  0.00     0.025 A 
HETATM   20  C   UNL     1     -41.899 -54.695  15.293  1.00  0.00     0.007 A 
HETATM   21  C   UNL     1     -40.791 -55.298  16.104  1.00  0.00     0.068 C 
HETATM   22  N   UNL     1     -41.701 -53.432  14.833  1.00  0.00    -0.346 N 
ATOM     23  HN  UNL     1     -40.795 -52.973  14.919  1.00  0.00     0.167 HD
ENDBRANCH   4  16
TORSDOF 3
ENDMDL
MODEL 8
REMARK VINA RESULT:      -5.2      3.586      6.364
REMARK  3 active torsions:
REMARK  status: ('A' for Active; 'I' for Inactive)
REMARK    1  A    between atoms: C_2  and  N_4 
REMARK    2  A    between atoms: C_8  and  N_10 
REMARK       I    between atoms: N_10  and  C_11 
REMARK       I    between atoms: C_11  and  N_13 
REMARK    3  A    between atoms: N_13  and  C_14 
ROOT
HETATM    1  N   UNL     1     -40.236 -51.158  13.304  1.00  0.00    -0.336 N 
HETATM    2  C   UNL     1     -41.433 -51.787  13.026  1.00  0.00     0.322 C 
HETATM    3  O   UNL     1     -41.961 -51.735  11.918  1.00  0.00    -0.247 OA
HETATM    4  N   UNL     1     -41.973 -52.404  14.125  1.00  0.00    -0.295 N 
HETATM    5  H   UNL     1     -39.636 -51.605  13.982  1.00  0.00     0.164 HD
HETATM    6  H   UNL     1     -41.898 -51.870  14.978  1.00  0.00     0.172 HD
ENDROOT
BRANCH   1   7
HETATM    7  C   UNL     1     -39.600 -50.351  12.269  1.00  0.00     0.119 C 
HETATM    8  C   UNL     1     -38.125 -50.006  12.511  1.00  0.00     0.034 C 
HETATM    9  C   UNL     1     -38.122 -48.558  13.008  1.00  0.00     0.279 C 
HETATM   10  C   UNL     1     -37.310 -50.915  13.419  1.00  0.00     0.014 C 
HETATM   11  N   UNL     1     -39.513 -48.075  13.003  1.00  0.00     0.094 N 
HETATM   12  C   UNL     1     -40.252 -48.971  12.097  1.00  0.00     0.298 C 
BRANCH  11  13
HETATM   13  C   UNL     1     -39.599 -46.647  12.620  1.00  0.00     0.215 C 
HETATM   14  C   UNL     1     -40.041 -46.449  11.165  1.00  0.00     0.042 C 
HETATM   15  C   UNL     1     -40.581 -45.886  13.527  1.00  0.00     0.042 C 
ENDBRANCH  11  13
ENDBRANCH   1   7
BRANCH   4  16
HETATM   16  C   UNL     1     -43.194 -53.089  14.033  1.00  0.00     0.109 A 
HETATM   17  C   UNL     1     -43.296 -54.433  14.368  1.00  0.00     0.049 A 
HETATM   18  C   UNL     1     -44.527 -55.066  14.238  1.00  0.00     0.006 A 
HETATM   19  C   UNL     1     -45.606 -54.347  13.740  1.00  0.00     0.025 A 
HETATM   20  C   UNL     1     -45.425 -53.004  13.423  1.00  0.00     0.007 A 
HETATM   21  C   UNL     1     -46.526 -52.225  12.766  1.00  0.00     0.068 C 
HETATM   22  N   UNL     1     -44.246 -52.356  13.610  1.00  0.00    -0.346 N 
ATOM     23  HN  UNL     1     -44.159 -51.354  13.438  1.00  0.00     0.167 HD
ENDBRANCH   4  16
TORSDOF 3
ENDMDL
MODEL 9
REMARK VINA RESULT:      -5.1      5.384     10.592
REMARK  3 active torsions:
REMARK  status: ('A' for Active; 'I' for Inactive)
REMARK    1  A    between atoms: C_2  and  N_4 
REMARK    2  A    between atoms: C_8  and  N_10 
REMARK       I    between atoms: N_10  and  C_11 
REMARK       I    between atoms: C_11  and  N_13 
REMARK    3  A    between atoms: N_13  and  C_14 
ROOT
HETATM    1  N   UNL     1     -42.665 -54.583  15.652  1.00  0.00    -0.336 N 
HETATM    2  C   UNL     1     -42.344 -55.663  16.449  1.00  0.00     0.322 C 
HETATM    3  O   UNL     1     -42.755 -56.796  16.215  1.00  0.00    -0.247 OA
HETATM    4  N   UNL     1     -41.585 -55.311  17.536  1.00  0.00    -0.295 N 
HETATM    5  H   UNL     1     -41.968 -53.856  15.571  1.00  0.00     0.164 HD
HETATM    6  H   UNL     1     -41.875 -54.453  17.982  1.00  0.00     0.172 HD
ENDROOT
BRANCH   1   7
HETATM    7  C   UNL     1     -43.572 -54.774  14.526  1.00  0.00     0.119 C 
HETATM    8  C   UNL     1     -43.203 -54.022  13.241  1.00  0.00     0.034 C 
HETATM    9  C   UNL     1     -44.132 -52.806  13.201  1.00  0.00     0.279 C 
HETATM   10  C   UNL     1     -41.749 -53.627  13.029  1.00  0.00     0.014 C 
HETATM   11  N   UNL     1     -45.025 -52.879  14.369  1.00  0.00     0.094 N 
HETATM   12  C   UNL     1     -44.998 -54.284  14.813  1.00  0.00     0.298 C 
BRANCH  11  13
HETATM   13  C   UNL     1     -46.386 -52.386  14.054  1.00  0.00     0.215 C 
HETATM   14  C   UNL     1     -46.932 -51.429  15.120  1.00  0.00     0.042 C 
HETATM   15  C   UNL     1     -46.413 -51.659  12.698  1.00  0.00     0.042 C 
ENDBRANCH  11  13
ENDBRANCH   1   7
BRANCH   4  16
HETATM   16  C   UNL     1     -41.170 -56.279  18.463  1.00  0.00     0.109 A 
HETATM   17  C   UNL     1     -41.664 -56.296  19.760  1.00  0.00     0.049 A 
HETATM   18  C   UNL     1     -41.201 -57.266  20.641  1.00  0.00     0.006 A 
HETATM   19  C   UNL     1     -40.230 -58.161  20.210  1.00  0.00     0.025 A 
HETATM   20  C   UNL     1     -39.782 -58.078  18.896  1.00  0.00     0.007 A 
HETATM   21  C   UNL     1     -38.648 -58.941  18.425  1.00  0.00     0.068 C 
HETATM   22  N   UNL     1     -40.275 -57.180  18.004  1.00  0.00    -0.346 N 
ATOM     23  HN  UNL     1     -39.983 -57.187  17.027  1.00  0.00     0.167 HD
ENDBRANCH   4  16
TORSDOF 3
ENDMDL
