MODEL 1
REMARK VINA RESULT:      -7.0      0.000      0.000
REMARK  6 active torsions:
REMARK  status: ('A' for Active; 'I' for Inactive)
REMARK    1  A    between atoms: N_8  and  C_9 
REMARK    2  A    between atoms: C_9  and  C_10 
REMARK    3  A    between atoms: C_10  and  O_11 
REMARK    4  A    between atoms: C_10  and  C_12 
REMARK    5  A    between atoms: C_12  and  S_13 
REMARK    6  A    between atoms: S_13  and  C_14 
ROOT
HETATM    1  C   UNL     1     -41.691 -50.352  12.246  1.00  0.00     0.162 C 
ENDROOT
BRANCH   1   2
HETATM    2  N   UNL     1     -42.123 -51.713  12.517  1.00  0.00    -0.339 N 
HETATM    3  C   UNL     1     -41.382 -52.834  12.265  1.00  0.00     0.184 A 
HETATM    4  N   UNL     1     -42.020 -53.928  12.610  1.00  0.00    -0.350 N 
HETATM    5  C   UNL     1     -43.229 -53.497  13.098  1.00  0.00     0.060 A 
ATOM      6  HN  UNL     1     -41.689 -54.890  12.533  1.00  0.00     0.166 HD
HETATM    7  C   UNL     1     -44.294 -54.241  13.629  1.00  0.00     0.039 A 
HETATM    8  C   UNL     1     -43.339 -52.112  13.018  1.00  0.00     0.062 A 
HETATM    9  C   UNL     1     -45.449 -53.577  14.090  1.00  0.00    -0.054 A 
HETATM   10  C   UNL     1     -46.560 -54.391  14.694  1.00  0.00     0.049 C 
HETATM   11  C   UNL     1     -45.539 -52.172  13.994  1.00  0.00    -0.054 A 
HETATM   12  C   UNL     1     -44.490 -51.427  13.425  1.00  0.00     0.039 A 
HETATM   13  C   UNL     1     -46.742 -51.430  14.515  1.00  0.00     0.049 C 
ENDBRANCH   1   2
BRANCH   1  14
HETATM   14  C   UNL     1     -40.301 -50.249  11.587  1.00  0.00     0.146 C 
BRANCH  14  15
HETATM   15  O   UNL     1     -40.416 -49.888  10.204  1.00  0.00    -0.393 OA
HETATM   16  H   UNL     1     -40.653 -50.670   9.680  1.00  0.00     0.210 HD
ENDBRANCH  14  15
BRANCH  14  17
HETATM   17  C   UNL     1     -39.379 -49.231  12.281  1.00  0.00     0.115 C 
BRANCH  17  18
HETATM   18  S   UNL     1     -40.298 -47.834  13.008  1.00  0.00    -0.090 SA
BRANCH  18  19
HETATM   19  C   UNL     1     -40.142 -46.647  11.766  1.00  0.00     0.162 A 
HETATM   20  N   UNL     1     -40.434 -46.791  10.495  1.00  0.00    -0.279 N 
HETATM   21  N   UNL     1     -40.140 -45.602   9.863  1.00  0.00    -0.294 N 
ATOM     22  HN  UNL     1     -40.809 -47.630  10.054  1.00  0.00     0.189 HD
HETATM   23  C   UNL     1     -39.684 -44.770  10.772  1.00  0.00     0.201 A 
ATOM     24  HN  UNL     1     -40.255 -45.404   8.869  1.00  0.00     0.187 HD
HETATM   25  N   UNL     1     -39.676 -45.383  11.988  1.00  0.00    -0.326 N 
HETATM   26  C   UNL     1     -39.270 -44.786  13.232  1.00  0.00     0.159 C 
ENDBRANCH  18  19
ENDBRANCH  17  18
ENDBRANCH  14  17
ENDBRANCH   1  14
TORSDOF 6
ENDMDL
MODEL 2
REMARK VINA RESULT:      -6.6      2.096      2.848
REMARK  6 active torsions:
REMARK  status: ('A' for Active; 'I' for Inactive)
REMARK    1  A    between atoms: N_8  and  C_9 
REMARK    2  A    between atoms: C_9  and  C_10 
REMARK    3  A    between atoms: C_10  and  O_11 
REMARK    4  A    between atoms: C_10  and  C_12 
REMARK    5  A    between atoms: C_12  and  S_13 
REMARK    6  A    between atoms: S_13  and  C_14 
ROOT
HETATM    1  C   UNL     1     -41.343 -54.191  12.988  1.00  0.00     0.162 C 
ENDROOT
BRANCH   1   2
HETATM    2  N   UNL     1     -42.114 -53.807  14.157  1.00  0.00    -0.339 N 
HETATM    3  C   UNL     1     -41.707 -53.975  15.452  1.00  0.00     0.184 A 
HETATM    4  N   UNL     1     -42.603 -53.536  16.305  1.00  0.00    -0.350 N 
HETATM    5  C   UNL     1     -43.637 -53.072  15.530  1.00  0.00     0.060 A 
ATOM      6  HN  UNL     1     -42.544 -53.538  17.324  1.00  0.00     0.166 HD
HETATM    7  C   UNL     1     -44.844 -52.472  15.918  1.00  0.00     0.039 A 
HETATM    8  C   UNL     1     -43.375 -53.263  14.177  1.00  0.00     0.062 A 
HETATM    9  C   UNL     1     -45.765 -52.054  14.935  1.00  0.00    -0.054 A 
HETATM   10  C   UNL     1     -47.034 -51.375  15.372  1.00  0.00     0.049 C 
HETATM   11  C   UNL     1     -45.479 -52.262  13.569  1.00  0.00    -0.054 A 
HETATM   12  C   UNL     1     -44.288 -52.901  13.178  1.00  0.00     0.039 A 
HETATM   13  C   UNL     1     -46.423 -51.791  12.494  1.00  0.00     0.049 C 
ENDBRANCH   1   2
BRANCH   1  14
HETATM   14  C   UNL     1     -40.684 -53.010  12.246  1.00  0.00     0.146 C 
BRANCH  14  15
HETATM   15  O   UNL     1     -41.464 -52.623  11.107  1.00  0.00    -0.393 OA
HETATM   16  H   UNL     1     -42.319 -52.269  11.400  1.00  0.00     0.210 HD
ENDBRANCH  14  15
BRANCH  14  17
HETATM   17  C   UNL     1     -40.479 -51.776  13.140  1.00  0.00     0.115 C 
BRANCH  17  18
HETATM   18  S   UNL     1     -39.184 -50.659  12.507  1.00  0.00    -0.090 SA
BRANCH  18  19
HETATM   19  C   UNL     1     -40.118 -49.574  11.543  1.00  0.00     0.162 A 
HETATM   20  N   UNL     1     -40.637 -49.813  10.363  1.00  0.00    -0.279 N 
HETATM   21  N   UNL     1     -41.284 -48.667   9.952  1.00  0.00    -0.294 N 
ATOM     22  HN  UNL     1     -40.574 -50.688   9.843  1.00  0.00     0.189 HD
HETATM   23  C   UNL     1     -41.142 -47.769  10.900  1.00  0.00     0.201 A 
ATOM     24  HN  UNL     1     -41.783 -48.541   9.071  1.00  0.00     0.187 HD
HETATM   25  N   UNL     1     -40.420 -48.298  11.926  1.00  0.00    -0.326 N 
HETATM   26  C   UNL     1     -40.082 -47.630  13.153  1.00  0.00     0.159 C 
ENDBRANCH  18  19
ENDBRANCH  17  18
ENDBRANCH  14  17
ENDBRANCH   1  14
TORSDOF 6
ENDMDL
MODEL 3
REMARK VINA RESULT:      -6.5      3.009      3.821
REMARK  6 active torsions:
REMARK  status: ('A' for Active; 'I' for Inactive)
REMARK    1  A    between atoms: N_8  and  C_9 
REMARK    2  A    between atoms: C_9  and  C_10 
REMARK    3  A    between atoms: C_10  and  O_11 
REMARK    4  A    between atoms: C_10  and  C_12 
REMARK    5  A    between atoms: C_12  and  S_13 
REMARK    6  A    between atoms: S_13  and  C_14 
ROOT
HETATM    1  C   UNL     1     -42.766 -51.777  12.906  1.00  0.00     0.162 C 
ENDROOT
BRANCH   1   2
HETATM    2  N   UNL     1     -44.124 -52.178  13.230  1.00  0.00    -0.339 N 
HETATM    3  C   UNL     1     -44.875 -53.057  12.500  1.00  0.00     0.184 A 
HETATM    4  N   UNL     1     -46.065 -53.235  13.025  1.00  0.00    -0.350 N 
HETATM    5  C   UNL     1     -46.088 -52.430  14.138  1.00  0.00     0.060 A 
ATOM      6  HN  UNL     1     -46.811 -53.840  12.682  1.00  0.00     0.166 HD
HETATM    7  C   UNL     1     -47.105 -52.248  15.087  1.00  0.00     0.039 A 
HETATM    8  C   UNL     1     -44.896 -51.725  14.272  1.00  0.00     0.062 A 
HETATM    9  C   UNL     1     -46.900 -51.371  16.172  1.00  0.00    -0.054 A 
HETATM   10  C   UNL     1     -47.987 -51.223  17.200  1.00  0.00     0.049 C 
HETATM   11  C   UNL     1     -45.684 -50.663  16.284  1.00  0.00    -0.054 A 
HETATM   12  C   UNL     1     -44.678 -50.812  15.312  1.00  0.00     0.039 A 
HETATM   13  C   UNL     1     -45.419 -49.750  17.452  1.00  0.00     0.049 C 
ENDBRANCH   1   2
BRANCH   1  14
HETATM   14  C   UNL     1     -41.868 -52.926  12.404  1.00  0.00     0.146 C 
BRANCH  14  15
HETATM   15  O   UNL     1     -41.500 -52.726  11.033  1.00  0.00    -0.393 OA
HETATM   16  H   UNL     1     -40.626 -52.306  10.986  1.00  0.00     0.210 HD
ENDBRANCH  14  15
BRANCH  14  17
HETATM   17  C   UNL     1     -40.585 -53.096  13.234  1.00  0.00     0.115 C 
BRANCH  17  18
HETATM   18  S   UNL     1     -40.092 -51.561  14.086  1.00  0.00    -0.090 SA
BRANCH  18  19
HETATM   19  C   UNL     1     -39.158 -50.782  12.861  1.00  0.00     0.162 A 
HETATM   20  N   UNL     1     -39.422 -50.736  11.577  1.00  0.00    -0.279 N 
HETATM   21  N   UNL     1     -38.406 -50.031  10.968  1.00  0.00    -0.294 N 
ATOM     22  HN  UNL     1     -40.231 -51.148  11.113  1.00  0.00     0.189 HD
HETATM   23  C   UNL     1     -37.561 -49.664  11.904  1.00  0.00     0.201 A 
ATOM     24  HN  UNL     1     -38.327 -49.829   9.971  1.00  0.00     0.187 HD
HETATM   25  N   UNL     1     -37.998 -50.109  13.114  1.00  0.00    -0.326 N 
HETATM   26  C   UNL     1     -37.354 -49.882  14.380  1.00  0.00     0.159 C 
ENDBRANCH  18  19
ENDBRANCH  17  18
ENDBRANCH  14  17
ENDBRANCH   1  14
TORSDOF 6
ENDMDL
MODEL 4
REMARK VINA RESULT:      -6.5      3.323      4.043
REMARK  6 active torsions:
REMARK  status: ('A' for Active; 'I' for Inactive)
REMARK    1  A    between atoms: N_8  and  C_9 
REMARK    2  A    between atoms: C_9  and  C_10 
REMARK    3  A    between atoms: C_10  and  O_11 
REMARK    4  A    between atoms: C_10  and  C_12 
REMARK    5  A    between atoms: C_12  and  S_13 
REMARK    6  A    between atoms: S_13  and  C_14 
ROOT
HETATM    1  C   UNL     1     -41.179 -48.572  12.502  1.00  0.00     0.162 C 
ENDROOT
BRANCH   1   2
HETATM    2  N   UNL     1     -41.307 -50.010  12.348  1.00  0.00    -0.339 N 
HETATM    3  C   UNL     1     -40.338 -50.833  11.844  1.00  0.00     0.184 A 
HETATM    4  N   UNL     1     -40.725 -52.087  11.820  1.00  0.00    -0.350 N 
HETATM    5  C   UNL     1     -42.004 -52.075  12.323  1.00  0.00     0.060 A 
ATOM      6  HN  UNL     1     -40.193 -52.896  11.499  1.00  0.00     0.166 HD
HETATM    7  C   UNL     1     -42.885 -53.143  12.546  1.00  0.00     0.039 A 
HETATM    8  C   UNL     1     -42.410 -50.779  12.629  1.00  0.00     0.062 A 
HETATM    9  C   UNL     1     -44.161 -52.894  13.092  1.00  0.00    -0.054 A 
HETATM   10  C   UNL     1     -45.074 -54.058  13.362  1.00  0.00     0.049 C 
HETATM   11  C   UNL     1     -44.553 -51.571  13.390  1.00  0.00    -0.054 A 
HETATM   12  C   UNL     1     -43.686 -50.493  13.129  1.00  0.00     0.039 A 
HETATM   13  C   UNL     1     -45.893 -51.276  14.012  1.00  0.00     0.049 C 
ENDBRANCH   1   2
BRANCH   1  14
HETATM   14  C   UNL     1     -41.474 -47.768  11.220  1.00  0.00     0.146 C 
BRANCH  14  15
HETATM   15  O   UNL     1     -41.541 -48.632  10.078  1.00  0.00    -0.393 OA
HETATM   16  H   UNL     1     -41.994 -49.457  10.317  1.00  0.00     0.210 HD
ENDBRANCH  14  15
BRANCH  14  17
HETATM   17  C   UNL     1     -42.784 -46.965  11.300  1.00  0.00     0.115 C 
BRANCH  17  18
HETATM   18  S   UNL     1     -43.168 -46.093   9.745  1.00  0.00    -0.090 SA
BRANCH  18  19
HETATM   19  C   UNL     1     -44.574 -46.944   9.221  1.00  0.00     0.162 A 
HETATM   20  N   UNL     1     -45.782 -46.860   9.727  1.00  0.00    -0.279 N 
HETATM   21  N   UNL     1     -46.591 -47.722   9.019  1.00  0.00    -0.294 N 
ATOM     22  HN  UNL     1     -46.070 -46.265  10.504  1.00  0.00     0.189 HD
HETATM   23  C   UNL     1     -45.850 -48.299   8.100  1.00  0.00     0.201 A 
ATOM     24  HN  UNL     1     -47.586 -47.883   9.180  1.00  0.00     0.187 HD
HETATM   25  N   UNL     1     -44.573 -47.833   8.185  1.00  0.00    -0.326 N 
HETATM   26  C   UNL     1     -43.479 -48.208   7.331  1.00  0.00     0.159 C 
ENDBRANCH  18  19
ENDBRANCH  17  18
ENDBRANCH  14  17
ENDBRANCH   1  14
TORSDOF 6
ENDMDL
MODEL 5
REMARK VINA RESULT:      -6.2      1.743      1.972
REMARK  6 active torsions:
REMARK  status: ('A' for Active; 'I' for Inactive)
REMARK    1  A    between atoms: N_8  and  C_9 
REMARK    2  A    between atoms: C_9  and  C_10 
REMARK    3  A    between atoms: C_10  and  O_11 
REMARK    4  A    between atoms: C_10  and  C_12 
REMARK    5  A    between atoms: C_12  and  S_13 
REMARK    6  A    between atoms: S_13  and  C_14 
ROOT
HETATM    1  C   UNL     1     -40.539 -50.780  13.443  1.00  0.00     0.162 C 
ENDROOT
BRANCH   1   2
HETATM    2  N   UNL     1     -41.108 -52.104  13.627  1.00  0.00    -0.339 N 
HETATM    3  C   UNL     1     -40.390 -53.268  13.645  1.00  0.00     0.184 A 
HETATM    4  N   UNL     1     -41.162 -54.314  13.829  1.00  0.00    -0.350 N 
HETATM    5  C   UNL     1     -42.435 -53.806  13.925  1.00  0.00     0.060 A 
ATOM      6  HN  UNL     1     -40.878 -55.292  13.889  1.00  0.00     0.166 HD
HETATM    7  C   UNL     1     -43.648 -54.474  14.149  1.00  0.00     0.039 A 
HETATM    8  C   UNL     1     -42.437 -52.424  13.764  1.00  0.00     0.062 A 
HETATM    9  C   UNL     1     -44.847 -53.737  14.226  1.00  0.00    -0.054 A 
HETATM   10  C   UNL     1     -46.131 -54.469  14.508  1.00  0.00     0.049 C 
HETATM   11  C   UNL     1     -44.825 -52.336  14.055  1.00  0.00    -0.054 A 
HETATM   12  C   UNL     1     -43.615 -51.668  13.790  1.00  0.00     0.039 A 
HETATM   13  C   UNL     1     -46.083 -51.517  14.173  1.00  0.00     0.049 C 
ENDBRANCH   1   2
BRANCH   1  14
HETATM   14  C   UNL     1     -39.971 -50.525  12.032  1.00  0.00     0.146 C 
BRANCH  14  15
HETATM   15  O   UNL     1     -40.863 -51.020  11.024  1.00  0.00    -0.393 OA
HETATM   16  H   UNL     1     -41.472 -50.315  10.749  1.00  0.00     0.210 HD
ENDBRANCH  14  15
BRANCH  14  17
HETATM   17  C   UNL     1     -39.698 -49.037  11.752  1.00  0.00     0.115 C 
BRANCH  17  18
HETATM   18  S   UNL     1     -41.056 -47.957  12.312  1.00  0.00    -0.090 SA
BRANCH  18  19
HETATM   19  C   UNL     1     -41.877 -47.651  10.826  1.00  0.00     0.162 A 
HETATM   20  N   UNL     1     -42.132 -48.515   9.873  1.00  0.00    -0.279 N 
HETATM   21  N   UNL     1     -42.787 -47.842   8.864  1.00  0.00    -0.294 N 
ATOM     22  HN  UNL     1     -41.890 -49.506   9.877  1.00  0.00     0.189 HD
HETATM   23  C   UNL     1     -42.914 -46.590   9.239  1.00  0.00     0.201 A 
ATOM     24  HN  UNL     1     -43.113 -48.244   7.985  1.00  0.00     0.187 HD
HETATM   25  N   UNL     1     -42.362 -46.425  10.473  1.00  0.00    -0.326 N 
HETATM   26  C   UNL     1     -42.331 -45.201  11.227  1.00  0.00     0.159 C 
ENDBRANCH  18  19
ENDBRANCH  17  18
ENDBRANCH  14  17
ENDBRANCH   1  14
TORSDOF 6
ENDMDL
MODEL 6
REMARK VINA RESULT:      -6.1      2.048      2.946
REMARK  6 active torsions:
REMARK  status: ('A' for Active; 'I' for Inactive)
REMARK    1  A    between atoms: N_8  and  C_9 
REMARK    2  A    between atoms: C_9  and  C_10 
REMARK    3  A    between atoms: C_10  and  O_11 
REMARK    4  A    between atoms: C_10  and  C_12 
REMARK    5  A    between atoms: C_12  and  S_13 
REMARK    6  A    between atoms: S_13  and  C_14 
ROOT
HETATM    1  C   UNL     1     -42.239 -49.497  12.251  1.00  0.00     0.162 C 
ENDROOT
BRANCH   1   2
HETATM    2  N   UNL     1     -42.424 -50.929  12.409  1.00  0.00    -0.339 N 
HETATM    3  C   UNL     1     -41.535 -51.882  11.996  1.00  0.00     0.184 A 
HETATM    4  N   UNL     1     -41.959 -53.095  12.268  1.00  0.00    -0.350 N 
HETATM    5  C   UNL     1     -43.179 -52.919  12.874  1.00  0.00     0.060 A 
ATOM      6  HN  UNL     1     -41.485 -53.977  12.071  1.00  0.00     0.166 HD
HETATM    7  C   UNL     1     -44.063 -53.876  13.393  1.00  0.00     0.039 A 
HETATM    8  C   UNL     1     -43.515 -51.571  12.943  1.00  0.00     0.062 A 
HETATM    9  C   UNL     1     -45.270 -53.459  13.993  1.00  0.00    -0.054 A 
HETATM   10  C   UNL     1     -46.184 -54.499  14.580  1.00  0.00     0.049 C 
HETATM   11  C   UNL     1     -45.591 -52.086  14.047  1.00  0.00    -0.054 A 
HETATM   12  C   UNL     1     -44.725 -51.127  13.491  1.00  0.00     0.039 A 
HETATM   13  C   UNL     1     -46.852 -51.607  14.717  1.00  0.00     0.049 C 
ENDBRANCH   1   2
BRANCH   1  14
HETATM   14  C   UNL     1     -40.995 -49.105  11.428  1.00  0.00     0.146 C 
BRANCH  14  15
HETATM   15  O   UNL     1     -41.300 -49.064  10.028  1.00  0.00    -0.393 OA
HETATM   16  H   UNL     1     -41.453 -49.964   9.699  1.00  0.00     0.210 HD
ENDBRANCH  14  15
BRANCH  14  17
HETATM   17  C   UNL     1     -40.404 -47.746  11.839  1.00  0.00     0.115 C 
BRANCH  17  18
HETATM   18  S   UNL     1     -39.029 -47.909  13.026  1.00  0.00    -0.090 SA
BRANCH  18  19
HETATM   19  C   UNL     1     -38.195 -49.278  12.387  1.00  0.00     0.162 A 
HETATM   20  N   UNL     1     -37.814 -49.461  11.145  1.00  0.00    -0.279 N 
HETATM   21  N   UNL     1     -37.201 -50.694  11.074  1.00  0.00    -0.294 N 
ATOM     22  HN  UNL     1     -37.947 -48.810  10.371  1.00  0.00     0.189 HD
HETATM   23  C   UNL     1     -37.223 -51.218  12.278  1.00  0.00     0.201 A 
ATOM     24  HN  UNL     1     -36.803 -51.121  10.238  1.00  0.00     0.187 HD
HETATM   25  N   UNL     1     -37.833 -50.358  13.140  1.00  0.00    -0.326 N 
HETATM   26  C   UNL     1     -38.023 -50.568  14.550  1.00  0.00     0.159 C 
ENDBRANCH  18  19
ENDBRANCH  17  18
ENDBRANCH  14  17
ENDBRANCH   1  14
TORSDOF 6
ENDMDL
MODEL 7
REMARK VINA RESULT:      -6.0      2.434      2.853
REMARK  6 active torsions:
REMARK  status: ('A' for Active; 'I' for Inactive)
REMARK    1  A    between atoms: N_8  and  C_9 
REMARK    2  A    between atoms: C_9  and  C_10 
REMARK    3  A    between atoms: C_10  and  O_11 
REMARK    4  A    between atoms: C_10  and  C_12 
REMARK    5  A    between atoms: C_12  and  S_13 
REMARK    6  A    between atoms: S_13  and  C_14 
ROOT
HETATM    1  C   UNL     1     -41.867 -49.779  13.038  1.00  0.00     0.162 C 
ENDROOT
BRANCH   1   2
HETATM    2  N   UNL     1     -42.343 -51.140  12.860  1.00  0.00    -0.339 N 
HETATM    3  C   UNL     1     -41.718 -52.095  12.105  1.00  0.00     0.184 A 
HETATM    4  N   UNL     1     -42.369 -53.235  12.124  1.00  0.00    -0.350 N 
HETATM    5  C   UNL     1     -43.467 -53.006  12.917  1.00  0.00     0.060 A 
ATOM      6  HN  UNL     1     -42.115 -54.103  11.652  1.00  0.00     0.166 HD
HETATM    7  C   UNL     1     -44.490 -53.885  13.300  1.00  0.00     0.039 A 
HETATM    8  C   UNL     1     -43.497 -51.688  13.364  1.00  0.00     0.062 A 
HETATM    9  C   UNL     1     -45.523 -53.430  14.145  1.00  0.00    -0.054 A 
HETATM   10  C   UNL     1     -46.587 -54.401  14.576  1.00  0.00     0.049 C 
HETATM   11  C   UNL     1     -45.535 -52.088  14.581  1.00  0.00    -0.054 A 
HETATM   12  C   UNL     1     -44.533 -51.193  14.166  1.00  0.00     0.039 A 
HETATM   13  C   UNL     1     -46.602 -51.582  15.517  1.00  0.00     0.049 C 
ENDBRANCH   1   2
BRANCH   1  14
HETATM   14  C   UNL     1     -42.227 -48.826  11.880  1.00  0.00     0.146 C 
BRANCH  14  15
HETATM   15  O   UNL     1     -43.640 -48.824  11.639  1.00  0.00    -0.393 OA
HETATM   16  H   UNL     1     -43.856 -48.168  10.957  1.00  0.00     0.210 HD
ENDBRANCH  14  15
BRANCH  14  17
HETATM   17  C   UNL     1     -41.773 -47.377  12.129  1.00  0.00     0.115 C 
BRANCH  17  18
HETATM   18  S   UNL     1     -41.141 -46.572  10.619  1.00  0.00    -0.090 SA
BRANCH  18  19
HETATM   19  C   UNL     1     -42.580 -45.849   9.998  1.00  0.00     0.162 A 
HETATM   20  N   UNL     1     -43.082 -44.682  10.326  1.00  0.00    -0.279 N 
HETATM   21  N   UNL     1     -44.244 -44.511   9.604  1.00  0.00    -0.294 N 
ATOM     22  HN  UNL     1     -42.685 -44.021  10.993  1.00  0.00     0.189 HD
HETATM   23  C   UNL     1     -44.408 -45.577   8.855  1.00  0.00     0.201 A 
ATOM     24  HN  UNL     1     -44.864 -43.702   9.645  1.00  0.00     0.187 HD
HETATM   25  N   UNL     1     -43.379 -46.445   9.065  1.00  0.00    -0.326 N 
HETATM   26  C   UNL     1     -43.193 -47.710   8.407  1.00  0.00     0.159 C 
ENDBRANCH  18  19
ENDBRANCH  17  18
ENDBRANCH  14  17
ENDBRANCH   1  14
TORSDOF 6
ENDMDL
MODEL 8
REMARK VINA RESULT:      -6.0      2.359      3.157
REMARK  6 active torsions:
REMARK  status: ('A' for Active; 'I' for Inactive)
REMARK    1  A    between atoms: N_8  and  C_9 
REMARK    2  A    between atoms: C_9  and  C_10 
REMARK    3  A    between atoms: C_10  and  O_11 
REMARK    4  A    between atoms: C_10  and  C_12 
REMARK    5  A    between atoms: C_12  and  S_13 
REMARK    6  A    between atoms: S_13  and  C_14 
ROOT
HETATM    1  C   UNL     1     -41.387 -50.255  12.307  1.00  0.00     0.162 C 
ENDROOT
BRANCH   1   2
HETATM    2  N   UNL     1     -41.785 -51.638  12.505  1.00  0.00    -0.339 N 
HETATM    3  C   UNL     1     -40.998 -52.724  12.239  1.00  0.00     0.184 A 
HETATM    4  N   UNL     1     -41.613 -53.851  12.513  1.00  0.00    -0.350 N 
HETATM    5  C   UNL     1     -42.854 -53.479  12.968  1.00  0.00     0.060 A 
ATOM      6  HN  UNL     1     -41.247 -54.798  12.411  1.00  0.00     0.166 HD
HETATM    7  C   UNL     1     -43.913 -54.277  13.424  1.00  0.00     0.039 A 
HETATM    8  C   UNL     1     -43.005 -52.096  12.939  1.00  0.00     0.062 A 
HETATM    9  C   UNL     1     -45.107 -53.669  13.864  1.00  0.00    -0.054 A 
HETATM   10  C   UNL     1     -46.215 -54.541  14.388  1.00  0.00     0.049 C 
HETATM   11  C   UNL     1     -45.239 -52.264  13.821  1.00  0.00    -0.054 A 
HETATM   12  C   UNL     1     -44.193 -51.464  13.325  1.00  0.00     0.039 A 
HETATM   13  C   UNL     1     -46.486 -51.583  14.321  1.00  0.00     0.049 C 
ENDBRANCH   1   2
BRANCH   1  14
HETATM   14  C   UNL     1     -40.117 -50.077  11.451  1.00  0.00     0.146 C 
BRANCH  14  15
HETATM   15  O   UNL     1     -40.454 -49.834  10.079  1.00  0.00    -0.393 OA
HETATM   16  H   UNL     1     -41.403 -49.645  10.003  1.00  0.00     0.210 HD
ENDBRANCH  14  15
BRANCH  14  17
HETATM   17  C   UNL     1     -39.214 -48.932  11.942  1.00  0.00     0.115 C 
BRANCH  17  18
HETATM   18  S   UNL     1     -39.758 -48.248  13.542  1.00  0.00    -0.090 SA
BRANCH  18  19
HETATM   19  C   UNL     1     -38.319 -48.402  14.481  1.00  0.00     0.162 A 
HETATM   20  N   UNL     1     -37.450 -47.458  14.754  1.00  0.00    -0.279 N 
HETATM   21  N   UNL     1     -36.447 -48.022  15.513  1.00  0.00    -0.294 N 
ATOM     22  HN  UNL     1     -37.506 -46.483  14.459  1.00  0.00     0.189 HD
HETATM   23  C   UNL     1     -36.742 -49.291  15.682  1.00  0.00     0.201 A 
ATOM     24  HN  UNL     1     -35.625 -47.541  15.878  1.00  0.00     0.187 HD
HETATM   25  N   UNL     1     -37.917 -49.573  15.055  1.00  0.00    -0.326 N 
HETATM   26  C   UNL     1     -38.580 -50.850  15.038  1.00  0.00     0.159 C 
ENDBRANCH  18  19
ENDBRANCH  17  18
ENDBRANCH  14  17
ENDBRANCH   1  14
TORSDOF 6
ENDMDL
MODEL 9
REMARK VINA RESULT:      -5.8      1.330      1.819
REMARK  6 active torsions:
REMARK  status: ('A' for Active; 'I' for Inactive)
REMARK    1  A    between atoms: N_8  and  C_9 
REMARK    2  A    between atoms: C_9  and  C_10 
REMARK    3  A    between atoms: C_10  and  O_11 
REMARK    4  A    between atoms: C_10  and  C_12 
REMARK    5  A    between atoms: C_12  and  S_13 
REMARK    6  A    between atoms: S_13  and  C_14 
ROOT
HETATM    1  C   UNL     1     -41.782 -50.104  12.107  1.00  0.00     0.162 C 
ENDROOT
BRANCH   1   2
HETATM    2  N   UNL     1     -42.141 -51.486  12.374  1.00  0.00    -0.339 N 
HETATM    3  C   UNL     1     -41.356 -52.567  12.086  1.00  0.00     0.184 A 
HETATM    4  N   UNL     1     -41.931 -53.695  12.437  1.00  0.00    -0.350 N 
HETATM    5  C   UNL     1     -43.144 -53.327  12.966  1.00  0.00     0.060 A 
ATOM      6  HN  UNL     1     -41.557 -54.639  12.337  1.00  0.00     0.166 HD
HETATM    7  C   UNL     1     -44.155 -54.126  13.519  1.00  0.00     0.039 A 
HETATM    8  C   UNL     1     -43.320 -51.948  12.906  1.00  0.00     0.062 A 
HETATM    9  C   UNL     1     -45.326 -53.523  14.023  1.00  0.00    -0.054 A 
HETATM   10  C   UNL     1     -46.379 -54.395  14.649  1.00  0.00     0.049 C 
HETATM   11  C   UNL     1     -45.484 -52.123  13.947  1.00  0.00    -0.054 A 
HETATM   12  C   UNL     1     -44.489 -51.322  13.356  1.00  0.00     0.039 A 
HETATM   13  C   UNL     1     -46.704 -51.445  14.513  1.00  0.00     0.049 C 
ENDBRANCH   1   2
BRANCH   1  14
HETATM   14  C   UNL     1     -40.378 -49.920  11.495  1.00  0.00     0.146 C 
BRANCH  14  15
HETATM   15  O   UNL     1     -40.444 -49.903  10.063  1.00  0.00    -0.393 OA
HETATM   16  H   UNL     1     -39.665 -50.351   9.694  1.00  0.00     0.210 HD
ENDBRANCH  14  15
BRANCH  14  17
HETATM   17  C   UNL     1     -39.678 -48.635  11.967  1.00  0.00     0.115 C 
BRANCH  17  18
HETATM   18  S   UNL     1     -40.488 -47.125  11.343  1.00  0.00    -0.090 SA
BRANCH  18  19
HETATM   19  C   UNL     1     -40.397 -46.099  12.727  1.00  0.00     0.162 A 
HETATM   20  N   UNL     1     -39.324 -45.520  13.211  1.00  0.00    -0.279 N 
HETATM   21  N   UNL     1     -39.702 -44.809  14.330  1.00  0.00    -0.294 N 
ATOM     22  HN  UNL     1     -38.380 -45.583  12.829  1.00  0.00     0.189 HD
HETATM   23  C   UNL     1     -40.996 -44.974  14.486  1.00  0.00     0.201 A 
ATOM     24  HN  UNL     1     -39.089 -44.255  14.927  1.00  0.00     0.187 HD
HETATM   25  N   UNL     1     -41.478 -45.774  13.494  1.00  0.00    -0.326 N 
HETATM   26  C   UNL     1     -42.851 -46.159  13.313  1.00  0.00     0.159 C 
ENDBRANCH  18  19
ENDBRANCH  17  18
ENDBRANCH  14  17
ENDBRANCH   1  14
TORSDOF 6
ENDMDL
