MODEL 1
REMARK VINA RESULT:      -6.8      0.000      0.000
REMARK  6 active torsions:
REMARK  status: ('A' for Active; 'I' for Inactive)
REMARK    1  A    between atoms: C_5  and  O_6 
REMARK    2  A    between atoms: O_6  and  C_7 
REMARK    3  A    between atoms: C_7  and  C_8 
REMARK    4  A    between atoms: C_8  and  O_9 
REMARK    5  A    between atoms: C_8  and  C_10 
REMARK    6  A    between atoms: C_10  and  N_11 
ROOT
HETATM    1  N   UNL     1     -40.255 -48.085  11.932  1.00  0.00    -0.333 N 
HETATM    2  C   UNL     1     -39.484 -47.471  12.889  1.00  0.00     0.185 A 
HETATM    3  N   UNL     1     -39.718 -46.179  12.944  1.00  0.00    -0.336 N 
ATOM      4  HN  UNL     1     -39.285 -45.492  13.561  1.00  0.00     0.168 HD
HETATM    5  C   UNL     1     -40.670 -45.961  11.994  1.00  0.00     0.145 A 
HETATM    6  N   UNL     1     -41.280 -44.763  11.711  1.00  0.00    -0.287 N 
HETATM    7  C   UNL     1     -40.902 -43.536  12.380  1.00  0.00     0.163 C 
HETATM    8  C   UNL     1     -42.316 -44.727  10.774  1.00  0.00     0.332 C 
HETATM    9  O   UNL     1     -42.928 -43.682  10.539  1.00  0.00    -0.246 OA
HETATM   10  N   UNL     1     -42.636 -45.933  10.123  1.00  0.00    -0.269 N 
HETATM   11  C   UNL     1     -43.744 -45.944   9.189  1.00  0.00     0.164 C 
HETATM   12  C   UNL     1     -41.960 -47.143  10.289  1.00  0.00     0.282 C 
HETATM   13  O   UNL     1     -42.196 -48.155   9.634  1.00  0.00    -0.265 OA
HETATM   14  C   UNL     1     -40.994 -47.104  11.332  1.00  0.00     0.149 A 
ENDROOT
BRANCH   1  15
HETATM   15  C   UNL     1     -40.270 -49.502  11.659  1.00  0.00     0.164 C 
BRANCH  15  16
HETATM   16  C   UNL     1     -39.162 -50.294  12.358  1.00  0.00     0.160 C 
BRANCH  16  17
HETATM   17  C   UNL     1     -39.682 -51.382  13.318  1.00  0.00     0.209 C 
BRANCH  17  18
HETATM   18  O   UNL     1     -40.162 -52.475  12.528  1.00  0.00    -0.349 OA
BRANCH  18  19
HETATM   19  C   UNL     1     -41.335 -53.059  12.919  1.00  0.00     0.068 A 
HETATM   20  C   UNL     1     -42.466 -52.612  12.235  1.00  0.00     0.037 A 
HETATM   21  C   UNL     1     -43.726 -53.149  12.509  1.00  0.00     0.009 A 
HETATM   22  C   UNL     1     -43.868 -54.158  13.464  1.00  0.00    -0.062 A 
HETATM   23  C   UNL     1     -45.208 -54.775  13.741  1.00  0.00     0.048 C 
HETATM   24  C   UNL     1     -42.730 -54.615  14.141  1.00  0.00     0.009 A 
HETATM   25  C   UNL     1     -41.470 -54.067  13.873  1.00  0.00     0.037 A 
ENDBRANCH  18  19
ENDBRANCH  17  18
ENDBRANCH  16  17
BRANCH  16  26
HETATM   26  O   UNL     1     -38.334 -50.862  11.328  1.00  0.00    -0.392 OA
HETATM   27  H   UNL     1     -37.910 -50.134  10.840  1.00  0.00     0.210 HD
ENDBRANCH  16  26
ENDBRANCH  15  16
ENDBRANCH   1  15
TORSDOF 6
ENDMDL
MODEL 2
REMARK VINA RESULT:      -6.8      2.172      2.550
REMARK  6 active torsions:
REMARK  status: ('A' for Active; 'I' for Inactive)
REMARK    1  A    between atoms: C_5  and  O_6 
REMARK    2  A    between atoms: O_6  and  C_7 
REMARK    3  A    between atoms: C_7  and  C_8 
REMARK    4  A    between atoms: C_8  and  O_9 
REMARK    5  A    between atoms: C_8  and  C_10 
REMARK    6  A    between atoms: C_10  and  N_11 
ROOT
HETATM    1  N   UNL     1     -40.363 -48.488  11.550  1.00  0.00    -0.333 N 
HETATM    2  C   UNL     1     -39.503 -48.042  12.525  1.00  0.00     0.185 A 
HETATM    3  N   UNL     1     -39.616 -46.746  12.713  1.00  0.00    -0.336 N 
ATOM      4  HN  UNL     1     -39.098 -46.165  13.373  1.00  0.00     0.168 HD
HETATM    5  C   UNL     1     -40.579 -46.352  11.834  1.00  0.00     0.145 A 
HETATM    6  N   UNL     1     -41.086 -45.084  11.695  1.00  0.00    -0.287 N 
HETATM    7  C   UNL     1     -40.573 -43.967  12.460  1.00  0.00     0.163 C 
HETATM    8  C   UNL     1     -42.150 -44.864  10.815  1.00  0.00     0.332 C 
HETATM    9  O   UNL     1     -42.672 -43.751  10.710  1.00  0.00    -0.246 OA
HETATM   10  N   UNL     1     -42.603 -45.966  10.068  1.00  0.00    -0.269 N 
HETATM   11  C   UNL     1     -43.742 -45.787   9.189  1.00  0.00     0.164 C 
HETATM   12  C   UNL     1     -42.035 -47.242  10.085  1.00  0.00     0.282 C 
HETATM   13  O   UNL     1     -42.388 -48.159   9.348  1.00  0.00    -0.265 OA
HETATM   14  C   UNL     1     -41.031 -47.391  11.082  1.00  0.00     0.149 A 
ENDROOT
BRANCH   1  15
HETATM   15  C   UNL     1     -40.519 -49.865  11.144  1.00  0.00     0.164 C 
BRANCH  15  16
HETATM   16  C   UNL     1     -40.717 -50.848  12.300  1.00  0.00     0.160 C 
BRANCH  16  17
HETATM   17  C   UNL     1     -42.165 -51.358  12.444  1.00  0.00     0.209 C 
BRANCH  17  18
HETATM   18  O   UNL     1     -42.947 -50.307  13.022  1.00  0.00    -0.349 OA
BRANCH  18  19
HETATM   19  C   UNL     1     -44.064 -50.675  13.721  1.00  0.00     0.068 A 
HETATM   20  C   UNL     1     -44.020 -50.386  15.086  1.00  0.00     0.037 A 
HETATM   21  C   UNL     1     -45.108 -50.676  15.912  1.00  0.00     0.009 A 
HETATM   22  C   UNL     1     -46.266 -51.245  15.378  1.00  0.00    -0.062 A 
HETATM   23  C   UNL     1     -47.459 -51.524  16.245  1.00  0.00     0.048 C 
HETATM   24  C   UNL     1     -46.314 -51.522  14.007  1.00  0.00     0.009 A 
HETATM   25  C   UNL     1     -45.218 -51.242  13.181  1.00  0.00     0.037 A 
ENDBRANCH  18  19
ENDBRANCH  17  18
ENDBRANCH  16  17
BRANCH  16  26
HETATM   26  O   UNL     1     -39.801 -51.936  12.093  1.00  0.00    -0.392 OA
HETATM   27  H   UNL     1     -40.169 -52.520  11.407  1.00  0.00     0.210 HD
ENDBRANCH  16  26
ENDBRANCH  15  16
ENDBRANCH   1  15
TORSDOF 6
ENDMDL
MODEL 3
REMARK VINA RESULT:      -6.8      2.407      3.180
REMARK  6 active torsions:
REMARK  status: ('A' for Active; 'I' for Inactive)
REMARK    1  A    between atoms: C_5  and  O_6 
REMARK    2  A    between atoms: O_6  and  C_7 
REMARK    3  A    between atoms: C_7  and  C_8 
REMARK    4  A    between atoms: C_8  and  O_9 
REMARK    5  A    between atoms: C_8  and  C_10 
REMARK    6  A    between atoms: C_10  and  N_11 
ROOT
HETATM    1  N   UNL     1     -40.274 -49.720  12.142  1.00  0.00    -0.333 N 
HETATM    2  C   UNL     1     -39.407 -49.871  13.197  1.00  0.00     0.185 A 
HETATM    3  N   UNL     1     -39.029 -48.710  13.682  1.00  0.00    -0.336 N 
ATOM      4  HN  UNL     1     -38.393 -48.537  14.461  1.00  0.00     0.168 HD
HETATM    5  C   UNL     1     -39.675 -47.787  12.915  1.00  0.00     0.145 A 
HETATM    6  N   UNL     1     -39.637 -46.424  13.074  1.00  0.00    -0.287 N 
HETATM    7  C   UNL     1     -38.809 -45.794  14.080  1.00  0.00     0.163 C 
HETATM    8  C   UNL     1     -40.443 -45.618  12.265  1.00  0.00     0.332 C 
HETATM    9  O   UNL     1     -40.482 -44.394  12.420  1.00  0.00    -0.246 OA
HETATM   10  N   UNL     1     -41.213 -46.262  11.279  1.00  0.00    -0.269 N 
HETATM   11  C   UNL     1     -42.103 -45.463  10.462  1.00  0.00     0.164 C 
HETATM   12  C   UNL     1     -41.186 -47.630  11.001  1.00  0.00     0.282 C 
HETATM   13  O   UNL     1     -41.792 -48.152  10.069  1.00  0.00    -0.265 OA
HETATM   14  C   UNL     1     -40.418 -48.376  11.939  1.00  0.00     0.149 A 
ENDROOT
BRANCH   1  15
HETATM   15  C   UNL     1     -40.909 -50.800  11.424  1.00  0.00     0.164 C 
BRANCH  15  16
HETATM   16  C   UNL     1     -41.151 -52.059  12.261  1.00  0.00     0.160 C 
BRANCH  16  17
HETATM   17  C   UNL     1     -42.640 -52.350  12.534  1.00  0.00     0.209 C 
BRANCH  17  18
HETATM   18  O   UNL     1     -43.261 -51.125  12.938  1.00  0.00    -0.349 OA
BRANCH  18  19
HETATM   19  C   UNL     1     -44.379 -51.222  13.719  1.00  0.00     0.068 A 
HETATM   20  C   UNL     1     -44.163 -50.993  15.079  1.00  0.00     0.037 A 
HETATM   21  C   UNL     1     -45.223 -51.026  15.987  1.00  0.00     0.009 A 
HETATM   22  C   UNL     1     -46.524 -51.272  15.542  1.00  0.00    -0.062 A 
HETATM   23  C   UNL     1     -47.681 -51.269  16.498  1.00  0.00     0.048 C 
HETATM   24  C   UNL     1     -46.742 -51.488  14.176  1.00  0.00     0.009 A 
HETATM   25  C   UNL     1     -45.676 -51.466  13.268  1.00  0.00     0.037 A 
ENDBRANCH  18  19
ENDBRANCH  17  18
ENDBRANCH  16  17
BRANCH  16  26
HETATM   26  O   UNL     1     -40.526 -53.153  11.569  1.00  0.00    -0.392 OA
HETATM   27  H   UNL     1     -40.108 -53.734  12.229  1.00  0.00     0.210 HD
ENDBRANCH  16  26
ENDBRANCH  15  16
ENDBRANCH   1  15
TORSDOF 6
ENDMDL
MODEL 4
REMARK VINA RESULT:      -6.7      1.549      2.889
REMARK  6 active torsions:
REMARK  status: ('A' for Active; 'I' for Inactive)
REMARK    1  A    between atoms: C_5  and  O_6 
REMARK    2  A    between atoms: O_6  and  C_7 
REMARK    3  A    between atoms: C_7  and  C_8 
REMARK    4  A    between atoms: C_8  and  O_9 
REMARK    5  A    between atoms: C_8  and  C_10 
REMARK    6  A    between atoms: C_10  and  N_11 
ROOT
HETATM    1  N   UNL     1     -39.673 -49.350  11.949  1.00  0.00    -0.333 N 
HETATM    2  C   UNL     1     -40.504 -49.775  10.941  1.00  0.00     0.185 A 
HETATM    3  N   UNL     1     -41.217 -48.786  10.452  1.00  0.00    -0.336 N 
ATOM      4  HN  UNL     1     -41.907 -48.826   9.702  1.00  0.00     0.168 HD
HETATM    5  C   UNL     1     -40.830 -47.693  11.169  1.00  0.00     0.145 A 
HETATM    6  N   UNL     1     -41.261 -46.403  10.985  1.00  0.00    -0.287 N 
HETATM    7  C   UNL     1     -42.275 -46.067  10.007  1.00  0.00     0.163 C 
HETATM    8  C   UNL     1     -40.686 -45.375  11.737  1.00  0.00     0.332 C 
HETATM    9  O   UNL     1     -41.004 -44.197  11.556  1.00  0.00    -0.246 OA
HETATM   10  N   UNL     1     -39.725 -45.742  12.697  1.00  0.00    -0.269 N 
HETATM   11  C   UNL     1     -39.066 -44.696  13.454  1.00  0.00     0.164 C 
HETATM   12  C   UNL     1     -39.349 -47.051  13.003  1.00  0.00     0.282 C 
HETATM   13  O   UNL     1     -38.582 -47.349  13.915  1.00  0.00    -0.265 OA
HETATM   14  C   UNL     1     -39.910 -48.014  12.118  1.00  0.00     0.149 A 
ENDROOT
BRANCH   1  15
HETATM   15  C   UNL     1     -38.728 -50.181  12.656  1.00  0.00     0.164 C 
BRANCH  15  16
HETATM   16  C   UNL     1     -39.264 -50.783  13.958  1.00  0.00     0.160 C 
BRANCH  16  17
HETATM   17  C   UNL     1     -39.244 -52.324  13.987  1.00  0.00     0.209 C 
BRANCH  17  18
HETATM   18  O   UNL     1     -39.912 -52.795  12.812  1.00  0.00    -0.349 OA
BRANCH  18  19
HETATM   19  C   UNL     1     -41.216 -53.185  12.951  1.00  0.00     0.068 A 
HETATM   20  C   UNL     1     -41.432 -54.160  13.926  1.00  0.00     0.037 A 
HETATM   21  C   UNL     1     -42.720 -54.625  14.198  1.00  0.00     0.009 A 
HETATM   22  C   UNL     1     -43.817 -54.106  13.506  1.00  0.00    -0.062 A 
HETATM   23  C   UNL     1     -45.212 -54.564  13.815  1.00  0.00     0.048 C 
HETATM   24  C   UNL     1     -43.600 -53.119  12.537  1.00  0.00     0.009 A 
HETATM   25  C   UNL     1     -42.306 -52.662  12.258  1.00  0.00     0.037 A 
ENDBRANCH  18  19
ENDBRANCH  17  18
ENDBRANCH  16  17
BRANCH  16  26
HETATM   26  O   UNL     1     -38.482 -50.232  15.032  1.00  0.00    -0.392 OA
HETATM   27  H   UNL     1     -37.566 -50.127  14.721  1.00  0.00     0.210 HD
ENDBRANCH  16  26
ENDBRANCH  15  16
ENDBRANCH   1  15
TORSDOF 6
ENDMDL
MODEL 5
REMARK VINA RESULT:      -6.5      3.046      5.633
REMARK  6 active torsions:
REMARK  status: ('A' for Active; 'I' for Inactive)
REMARK    1  A    between atoms: C_5  and  O_6 
REMARK    2  A    between atoms: O_6  and  C_7 
REMARK    3  A    between atoms: C_7  and  C_8 
REMARK    4  A    between atoms: C_8  and  O_9 
REMARK    5  A    between atoms: C_8  and  C_10 
REMARK    6  A    between atoms: C_10  and  N_11 
ROOT
HETATM    1  N   UNL     1     -41.798 -52.884  12.984  1.00  0.00    -0.333 N 
HETATM    2  C   UNL     1     -42.954 -52.285  12.546  1.00  0.00     0.185 A 
HETATM    3  N   UNL     1     -42.731 -51.068  12.103  1.00  0.00    -0.336 N 
ATOM      4  HN  UNL     1     -43.410 -50.408  11.724  1.00  0.00     0.168 HD
HETATM    5  C   UNL     1     -41.389 -50.884  12.262  1.00  0.00     0.145 A 
HETATM    6  N   UNL     1     -40.669 -49.776  11.889  1.00  0.00    -0.287 N 
HETATM    7  C   UNL     1     -41.305 -48.603  11.326  1.00  0.00     0.163 C 
HETATM    8  C   UNL     1     -39.278 -49.786  12.026  1.00  0.00     0.332 C 
HETATM    9  O   UNL     1     -38.592 -48.833  11.645  1.00  0.00    -0.246 OA
HETATM   10  N   UNL     1     -38.697 -50.930  12.603  1.00  0.00    -0.269 N 
HETATM   11  C   UNL     1     -37.254 -50.998  12.706  1.00  0.00     0.164 C 
HETATM   12  C   UNL     1     -39.402 -52.024  13.110  1.00  0.00     0.282 C 
HETATM   13  O   UNL     1     -38.876 -52.964  13.699  1.00  0.00    -0.265 OA
HETATM   14  C   UNL     1     -40.797 -51.966  12.832  1.00  0.00     0.149 A 
ENDROOT
BRANCH   1  15
HETATM   15  C   UNL     1     -41.698 -54.235  13.482  1.00  0.00     0.164 C 
BRANCH  15  16
HETATM   16  C   UNL     1     -41.786 -54.357  15.005  1.00  0.00     0.160 C 
BRANCH  16  17
HETATM   17  C   UNL     1     -42.895 -55.312  15.492  1.00  0.00     0.209 C 
BRANCH  17  18
HETATM   18  O   UNL     1     -44.090 -55.005  14.766  1.00  0.00    -0.349 OA
BRANCH  18  19
HETATM   19  C   UNL     1     -44.929 -54.075  15.314  1.00  0.00     0.068 A 
HETATM   20  C   UNL     1     -45.885 -53.561  14.435  1.00  0.00     0.037 A 
HETATM   21  C   UNL     1     -46.829 -52.629  14.871  1.00  0.00     0.009 A 
HETATM   22  C   UNL     1     -46.841 -52.209  16.203  1.00  0.00    -0.062 A 
HETATM   23  C   UNL     1     -47.874 -51.240  16.698  1.00  0.00     0.048 C 
HETATM   24  C   UNL     1     -45.890 -52.735  17.087  1.00  0.00     0.009 A 
HETATM   25  C   UNL     1     -44.937 -53.661  16.645  1.00  0.00     0.037 A 
ENDBRANCH  18  19
ENDBRANCH  17  18
ENDBRANCH  16  17
BRANCH  16  26
HETATM   26  O   UNL     1     -40.494 -54.780  15.471  1.00  0.00    -0.392 OA
HETATM   27  H   UNL     1     -40.013 -53.998  15.794  1.00  0.00     0.210 HD
ENDBRANCH  16  26
ENDBRANCH  15  16
ENDBRANCH   1  15
TORSDOF 6
ENDMDL
MODEL 6
REMARK VINA RESULT:      -6.2      1.734      2.647
REMARK  6 active torsions:
REMARK  status: ('A' for Active; 'I' for Inactive)
REMARK    1  A    between atoms: C_5  and  O_6 
REMARK    2  A    between atoms: O_6  and  C_7 
REMARK    3  A    between atoms: C_7  and  C_8 
REMARK    4  A    between atoms: C_8  and  O_9 
REMARK    5  A    between atoms: C_8  and  C_10 
REMARK    6  A    between atoms: C_10  and  N_11 
ROOT
HETATM    1  N   UNL     1     -40.874 -49.044  12.832  1.00  0.00    -0.333 N 
HETATM    2  C   UNL     1     -41.902 -49.925  12.600  1.00  0.00     0.185 A 
HETATM    3  N   UNL     1     -42.759 -49.449  11.724  1.00  0.00    -0.336 N 
ATOM      4  HN  UNL     1     -43.607 -49.896  11.375  1.00  0.00     0.168 HD
HETATM    5  C   UNL     1     -42.262 -48.226  11.386  1.00  0.00     0.145 A 
HETATM    6  N   UNL     1     -42.787 -47.362  10.456  1.00  0.00    -0.287 N 
HETATM    7  C   UNL     1     -44.021 -47.649   9.756  1.00  0.00     0.163 C 
HETATM    8  C   UNL     1     -42.097 -46.186  10.148  1.00  0.00     0.332 C 
HETATM    9  O   UNL     1     -42.505 -45.417   9.274  1.00  0.00    -0.246 OA
HETATM   10  N   UNL     1     -40.916 -45.927  10.868  1.00  0.00    -0.269 N 
HETATM   11  C   UNL     1     -40.145 -44.746  10.533  1.00  0.00     0.164 C 
HETATM   12  C   UNL     1     -40.415 -46.713  11.907  1.00  0.00     0.282 C 
HETATM   13  O   UNL     1     -39.437 -46.411  12.586  1.00  0.00    -0.265 OA
HETATM   14  C   UNL     1     -41.127 -47.934  12.075  1.00  0.00     0.149 A 
ENDROOT
BRANCH   1  15
HETATM   15  C   UNL     1     -39.747 -49.289  13.701  1.00  0.00     0.164 C 
BRANCH  15  16
HETATM   16  C   UNL     1     -38.636 -50.135  13.073  1.00  0.00     0.160 C 
BRANCH  16  17
HETATM   17  C   UNL     1     -38.347 -51.447  13.829  1.00  0.00     0.209 C 
BRANCH  17  18
HETATM   18  O   UNL     1     -38.946 -52.520  13.094  1.00  0.00    -0.349 OA
BRANCH  18  19
HETATM   19  C   UNL     1     -40.029 -53.134  13.660  1.00  0.00     0.068 A 
HETATM   20  C   UNL     1     -41.043 -53.473  12.762  1.00  0.00     0.037 A 
HETATM   21  C   UNL     1     -42.191 -54.136  13.199  1.00  0.00     0.009 A 
HETATM   22  C   UNL     1     -42.334 -54.487  14.543  1.00  0.00    -0.062 A 
HETATM   23  C   UNL     1     -43.542 -55.237  15.022  1.00  0.00     0.048 C 
HETATM   24  C   UNL     1     -41.311 -54.157  15.441  1.00  0.00     0.009 A 
HETATM   25  C   UNL     1     -40.165 -53.482  15.003  1.00  0.00     0.037 A 
ENDBRANCH  18  19
ENDBRANCH  17  18
ENDBRANCH  16  17
BRANCH  16  26
HETATM   26  O   UNL     1     -39.019 -50.393  11.711  1.00  0.00    -0.392 OA
HETATM   27  H   UNL     1     -38.310 -50.071  11.127  1.00  0.00     0.210 HD
ENDBRANCH  16  26
ENDBRANCH  15  16
ENDBRANCH   1  15
TORSDOF 6
ENDMDL
MODEL 7
REMARK VINA RESULT:      -6.2      3.619      7.409
REMARK  6 active torsions:
REMARK  status: ('A' for Active; 'I' for Inactive)
REMARK    1  A    between atoms: C_5  and  O_6 
REMARK    2  A    between atoms: O_6  and  C_7 
REMARK    3  A    between atoms: C_7  and  C_8 
REMARK    4  A    between atoms: C_8  and  O_9 
REMARK    5  A    between atoms: C_8  and  C_10 
REMARK    6  A    between atoms: C_10  and  N_11 
ROOT
HETATM    1  N   UNL     1     -42.001 -51.074  12.595  1.00  0.00    -0.333 N 
HETATM    2  C   UNL     1     -42.790 -49.957  12.464  1.00  0.00     0.185 A 
HETATM    3  N   UNL     1     -43.986 -50.147  12.975  1.00  0.00    -0.336 N 
ATOM      4  HN  UNL     1     -44.761 -49.485  13.010  1.00  0.00     0.168 HD
HETATM    5  C   UNL     1     -43.960 -51.424  13.450  1.00  0.00     0.145 A 
HETATM    6  N   UNL     1     -44.970 -52.064  14.124  1.00  0.00    -0.287 N 
HETATM    7  C   UNL     1     -46.256 -51.438  14.349  1.00  0.00     0.163 C 
HETATM    8  C   UNL     1     -44.747 -53.344  14.639  1.00  0.00     0.332 C 
HETATM    9  O   UNL     1     -45.609 -53.925  15.303  1.00  0.00    -0.246 OA
HETATM   10  N   UNL     1     -43.496 -53.932  14.377  1.00  0.00    -0.269 N 
HETATM   11  C   UNL     1     -43.209 -55.234  14.945  1.00  0.00     0.164 C 
HETATM   12  C   UNL     1     -42.488 -53.369  13.591  1.00  0.00     0.282 C 
HETATM   13  O   UNL     1     -41.446 -53.948  13.296  1.00  0.00    -0.265 OA
HETATM   14  C   UNL     1     -42.768 -52.030  13.200  1.00  0.00     0.149 A 
ENDROOT
BRANCH   1  15
HETATM   15  C   UNL     1     -40.621 -51.172  12.182  1.00  0.00     0.164 C 
BRANCH  15  16
HETATM   16  C   UNL     1     -40.061 -49.900  11.541  1.00  0.00     0.160 C 
BRANCH  16  17
HETATM   17  C   UNL     1     -38.555 -49.685  11.793  1.00  0.00     0.209 C 
BRANCH  17  18
HETATM   18  O   UNL     1     -38.407 -48.512  12.601  1.00  0.00    -0.349 OA
BRANCH  18  19
HETATM   19  C   UNL     1     -37.738 -48.652  13.785  1.00  0.00     0.068 A 
HETATM   20  C   UNL     1     -37.592 -49.970  14.221  1.00  0.00     0.037 A 
HETATM   21  C   UNL     1     -36.899 -50.261  15.398  1.00  0.00     0.009 A 
HETATM   22  C   UNL     1     -36.324 -49.233  16.149  1.00  0.00    -0.062 A 
HETATM   23  C   UNL     1     -35.540 -49.531  17.393  1.00  0.00     0.048 C 
HETATM   24  C   UNL     1     -36.459 -47.912  15.703  1.00  0.00     0.009 A 
HETATM   25  C   UNL     1     -37.165 -47.621  14.529  1.00  0.00     0.037 A 
ENDBRANCH  18  19
ENDBRANCH  17  18
ENDBRANCH  16  17
BRANCH  16  26
HETATM   26  O   UNL     1     -40.347 -49.974  10.134  1.00  0.00    -0.392 OA
HETATM   27  H   UNL     1     -39.648 -50.500   9.706  1.00  0.00     0.210 HD
ENDBRANCH  16  26
ENDBRANCH  15  16
ENDBRANCH   1  15
TORSDOF 6
ENDMDL
MODEL 8
REMARK VINA RESULT:      -6.1      2.302      3.680
REMARK  6 active torsions:
REMARK  status: ('A' for Active; 'I' for Inactive)
REMARK    1  A    between atoms: C_5  and  O_6 
REMARK    2  A    between atoms: O_6  and  C_7 
REMARK    3  A    between atoms: C_7  and  C_8 
REMARK    4  A    between atoms: C_8  and  O_9 
REMARK    5  A    between atoms: C_8  and  C_10 
REMARK    6  A    between atoms: C_10  and  N_11 
ROOT
HETATM    1  N   UNL     1     -39.228 -51.232  13.484  1.00  0.00    -0.333 N 
HETATM    2  C   UNL     1     -38.439 -51.171  14.607  1.00  0.00     0.185 A 
HETATM    3  N   UNL     1     -38.110 -49.933  14.900  1.00  0.00    -0.336 N 
ATOM      4  HN  UNL     1     -37.535 -49.608  15.678  1.00  0.00     0.168 HD
HETATM    5  C   UNL     1     -38.708 -49.179  13.935  1.00  0.00     0.145 A 
HETATM    6  N   UNL     1     -38.698 -47.808  13.848  1.00  0.00    -0.287 N 
HETATM    7  C   UNL     1     -37.953 -46.989  14.780  1.00  0.00     0.163 C 
HETATM    8  C   UNL     1     -39.451 -47.180  12.853  1.00  0.00     0.332 C 
HETATM    9  O   UNL     1     -39.515 -45.950  12.782  1.00  0.00    -0.246 OA
HETATM   10  N   UNL     1     -40.139 -48.009  11.948  1.00  0.00    -0.269 N 
HETATM   11  C   UNL     1     -40.976 -47.390  10.940  1.00  0.00     0.164 C 
HETATM   12  C   UNL     1     -40.076 -49.404  11.924  1.00  0.00     0.282 C 
HETATM   13  O   UNL     1     -40.607 -50.099  11.061  1.00  0.00    -0.265 OA
HETATM   14  C   UNL     1     -39.371 -49.950  13.033  1.00  0.00     0.149 A 
ENDROOT
BRANCH   1  15
HETATM   15  C   UNL     1     -39.796 -52.438  12.930  1.00  0.00     0.164 C 
BRANCH  15  16
HETATM   16  C   UNL     1     -39.821 -53.627  13.895  1.00  0.00     0.160 C 
BRANCH  16  17
HETATM   17  C   UNL     1     -41.234 -54.183  14.163  1.00  0.00     0.209 C 
BRANCH  17  18
HETATM   18  O   UNL     1     -41.977 -53.179  14.863  1.00  0.00    -0.349 OA
BRANCH  18  19
HETATM   19  C   UNL     1     -43.133 -52.739  14.278  1.00  0.00     0.068 A 
HETATM   20  C   UNL     1     -43.525 -53.457  13.147  1.00  0.00     0.037 A 
HETATM   21  C   UNL     1     -44.704 -53.137  12.471  1.00  0.00     0.009 A 
HETATM   22  C   UNL     1     -45.521 -52.101  12.931  1.00  0.00    -0.062 A 
HETATM   23  C   UNL     1     -46.812 -51.772  12.242  1.00  0.00     0.048 C 
HETATM   24  C   UNL     1     -45.133 -51.390  14.073  1.00  0.00     0.009 A 
HETATM   25  C   UNL     1     -43.944 -51.705  14.743  1.00  0.00     0.037 A 
ENDBRANCH  18  19
ENDBRANCH  17  18
ENDBRANCH  16  17
BRANCH  16  26
HETATM   26  O   UNL     1     -38.960 -54.637  13.344  1.00  0.00    -0.392 OA
HETATM   27  H   UNL     1     -38.805 -55.313  14.027  1.00  0.00     0.210 HD
ENDBRANCH  16  26
ENDBRANCH  15  16
ENDBRANCH   1  15
TORSDOF 6
ENDMDL
MODEL 9
REMARK VINA RESULT:      -6.0      3.581      6.928
REMARK  6 active torsions:
REMARK  status: ('A' for Active; 'I' for Inactive)
REMARK    1  A    between atoms: C_5  and  O_6 
REMARK    2  A    between atoms: O_6  and  C_7 
REMARK    3  A    between atoms: C_7  and  C_8 
REMARK    4  A    between atoms: C_8  and  O_9 
REMARK    5  A    between atoms: C_8  and  C_10 
REMARK    6  A    between atoms: C_10  and  N_11 
ROOT
HETATM    1  N   UNL     1     -40.725 -46.851  11.967  1.00  0.00    -0.333 N 
HETATM    2  C   UNL     1     -40.989 -47.793  11.002  1.00  0.00     0.185 A 
HETATM    3  N   UNL     1     -40.256 -48.871  11.165  1.00  0.00    -0.336 N 
ATOM      4  HN  UNL     1     -40.253 -49.716  10.593  1.00  0.00     0.168 HD
HETATM    5  C   UNL     1     -39.500 -48.611  12.269  1.00  0.00     0.145 A 
HETATM    6  N   UNL     1     -38.609 -49.468  12.868  1.00  0.00    -0.287 N 
HETATM    7  C   UNL     1     -38.317 -50.774  12.317  1.00  0.00     0.163 C 
HETATM    8  C   UNL     1     -37.987 -49.086  14.060  1.00  0.00     0.332 C 
HETATM    9  O   UNL     1     -37.229 -49.853  14.658  1.00  0.00    -0.246 OA
HETATM   10  N   UNL     1     -38.273 -47.799  14.550  1.00  0.00    -0.269 N 
HETATM   11  C   UNL     1     -37.691 -47.392  15.813  1.00  0.00     0.164 C 
HETATM   12  C   UNL     1     -39.073 -46.850  13.908  1.00  0.00     0.282 C 
HETATM   13  O   UNL     1     -39.225 -45.699  14.308  1.00  0.00    -0.265 OA
HETATM   14  C   UNL     1     -39.739 -47.366  12.762  1.00  0.00     0.149 A 
ENDROOT
BRANCH   1  15
HETATM   15  C   UNL     1     -41.397 -45.580  12.096  1.00  0.00     0.164 C 
BRANCH  15  16
HETATM   16  C   UNL     1     -41.603 -44.835  10.775  1.00  0.00     0.160 C 
BRANCH  16  17
HETATM   17  C   UNL     1     -43.070 -44.452  10.497  1.00  0.00     0.209 C 
BRANCH  17  18
HETATM   18  O   UNL     1     -43.351 -44.749   9.125  1.00  0.00    -0.349 OA
BRANCH  18  19
HETATM   19  C   UNL     1     -44.071 -45.883   8.868  1.00  0.00     0.068 A 
HETATM   20  C   UNL     1     -45.431 -45.793   9.170  1.00  0.00     0.037 A 
HETATM   21  C   UNL     1     -46.290 -46.866   8.925  1.00  0.00     0.009 A 
HETATM   22  C   UNL     1     -45.801 -48.044   8.355  1.00  0.00    -0.062 A 
HETATM   23  C   UNL     1     -46.718 -49.191   8.047  1.00  0.00     0.048 C 
HETATM   24  C   UNL     1     -44.439 -48.129   8.042  1.00  0.00     0.009 A 
HETATM   25  C   UNL     1     -43.576 -47.056   8.299  1.00  0.00     0.037 A 
ENDBRANCH  18  19
ENDBRANCH  17  18
ENDBRANCH  16  17
BRANCH  16  26
HETATM   26  O   UNL     1     -40.759 -43.673  10.808  1.00  0.00    -0.392 OA
HETATM   27  H   UNL     1     -41.284 -42.904  10.523  1.00  0.00     0.210 HD
ENDBRANCH  16  26
ENDBRANCH  15  16
ENDBRANCH   1  15
TORSDOF 6
ENDMDL
