MODEL 1
REMARK VINA RESULT:      -6.2      0.000      0.000
REMARK  3 active torsions:
REMARK  status: ('A' for Active; 'I' for Inactive)
REMARK    1  A    between atoms: C_4  and  C_5 
REMARK    2  A    between atoms: C_5  and  N_6 
REMARK       I    between atoms: N_6  and  C_7 
REMARK       I    between atoms: C_7  and  N_9 
REMARK    3  A    between atoms: N_9  and  C_10 
ROOT
HETATM    1  N   UNL     1     -41.060 -51.232  11.301  1.00  0.00    -0.342 N 
HETATM    2  C   UNL     1     -41.837 -51.753  12.313  1.00  0.00     0.320 C 
HETATM    3  O   UNL     1     -41.663 -51.443  13.486  1.00  0.00    -0.247 OA
HETATM    4  N   UNL     1     -42.770 -52.646  11.838  1.00  0.00    -0.308 N 
HETATM    5  H   UNL     1     -41.544 -51.116  10.421  1.00  0.00     0.164 HD
HETATM    6  H   UNL     1     -42.564 -53.053  10.937  1.00  0.00     0.170 HD
ENDROOT
BRANCH   1   7
HETATM    7  C   UNL     1     -40.079 -50.230  11.668  1.00  0.00     0.129 C 
BRANCH   7   8
HETATM    8  C   UNL     1     -40.601 -48.793  11.678  1.00  0.00     0.008 C 
HETATM    9  C   UNL     1     -41.512 -48.498  10.482  1.00  0.00     0.038 C 
HETATM   10  C   UNL     1     -41.993 -47.045  10.486  1.00  0.00     0.117 C 
HETATM   11  C   UNL     1     -43.039 -46.759  11.561  1.00  0.00     0.039 C 
HETATM   12  O   UNL     1     -40.880 -46.150  10.569  1.00  0.00    -0.386 OA
HETATM   13  C   UNL     1     -40.035 -46.344  11.701  1.00  0.00     0.168 C 
HETATM   14  C   UNL     1     -39.474 -47.760  11.749  1.00  0.00     0.032 C 
ENDBRANCH   7   8
ENDBRANCH   1   7
BRANCH   4  15
HETATM   15  C   UNL     1     -43.740 -53.290  12.638  1.00  0.00     0.051 A 
HETATM   16  C   UNL     1     -43.437 -54.319  13.528  1.00  0.00     0.032 A 
HETATM   17  C   UNL     1     -44.453 -54.945  14.245  1.00  0.00     0.019 A 
HETATM   18  C   UNL     1     -45.751 -54.503  14.065  1.00  0.00     0.088 A 
HETATM   19  N   UNL     1     -46.088 -53.483  13.246  1.00  0.00    -0.373 N 
HETATM   20  C   UNL     1     -45.075 -52.900  12.558  1.00  0.00     0.117 A 
ATOM     21  HN  UNL     1     -47.053 -53.168  13.151  1.00  0.00     0.164 HD
ENDBRANCH   4  15
TORSDOF 3
ENDMDL
MODEL 2
REMARK VINA RESULT:      -6.0      2.075      3.006
REMARK  3 active torsions:
REMARK  status: ('A' for Active; 'I' for Inactive)
REMARK    1  A    between atoms: C_4  and  C_5 
REMARK    2  A    between atoms: C_5  and  N_6 
REMARK       I    between atoms: N_6  and  C_7 
REMARK       I    between atoms: C_7  and  N_9 
REMARK    3  A    between atoms: N_9  and  C_10 
ROOT
HETATM    1  N   UNL     1     -40.879 -49.328  10.683  1.00  0.00    -0.342 N 
HETATM    2  C   UNL     1     -41.223 -50.130  11.749  1.00  0.00     0.320 C 
HETATM    3  O   UNL     1     -41.464 -49.664  12.857  1.00  0.00    -0.247 OA
HETATM    4  N   UNL     1     -41.226 -51.464  11.410  1.00  0.00    -0.308 N 
HETATM    5  H   UNL     1     -41.191 -49.672   9.784  1.00  0.00     0.164 HD
HETATM    6  H   UNL     1     -40.681 -51.707  10.596  1.00  0.00     0.170 HD
ENDROOT
BRANCH   1   7
HETATM    7  C   UNL     1     -40.901 -47.894  10.898  1.00  0.00     0.129 C 
BRANCH   7   8
HETATM    8  C   UNL     1     -42.189 -47.197  10.460  1.00  0.00     0.008 C 
HETATM    9  C   UNL     1     -42.723 -47.746   9.133  1.00  0.00     0.038 C 
HETATM   10  C   UNL     1     -43.990 -47.011   8.689  1.00  0.00     0.117 C 
HETATM   11  C   UNL     1     -45.219 -47.371   9.521  1.00  0.00     0.039 C 
HETATM   12  O   UNL     1     -43.762 -45.598   8.654  1.00  0.00    -0.386 OA
HETATM   13  C   UNL     1     -43.322 -45.028   9.885  1.00  0.00     0.168 C 
HETATM   14  C   UNL     1     -42.035 -45.676  10.376  1.00  0.00     0.032 C 
ENDBRANCH   7   8
ENDBRANCH   1   7
BRANCH   4  15
HETATM   15  C   UNL     1     -41.596 -52.510  12.284  1.00  0.00     0.051 A 
HETATM   16  C   UNL     1     -42.917 -52.906  12.486  1.00  0.00     0.032 A 
HETATM   17  C   UNL     1     -43.213 -53.910  13.405  1.00  0.00     0.019 A 
HETATM   18  C   UNL     1     -42.167 -54.506  14.085  1.00  0.00     0.088 A 
HETATM   19  N   UNL     1     -40.870 -54.184  13.893  1.00  0.00    -0.373 N 
HETATM   20  C   UNL     1     -40.617 -53.198  12.995  1.00  0.00     0.117 A 
ATOM     21  HN  UNL     1     -40.119 -54.658  14.396  1.00  0.00     0.164 HD
ENDBRANCH   4  15
TORSDOF 3
ENDMDL
MODEL 3
REMARK VINA RESULT:      -5.9      0.765      1.580
REMARK  3 active torsions:
REMARK  status: ('A' for Active; 'I' for Inactive)
REMARK    1  A    between atoms: C_4  and  C_5 
REMARK    2  A    between atoms: C_5  and  N_6 
REMARK       I    between atoms: N_6  and  C_7 
REMARK       I    between atoms: C_7  and  N_9 
REMARK    3  A    between atoms: N_9  and  C_10 
ROOT
HETATM    1  N   UNL     1     -41.384 -50.735  11.428  1.00  0.00    -0.342 N 
HETATM    2  C   UNL     1     -42.074 -51.407  12.414  1.00  0.00     0.320 C 
HETATM    3  O   UNL     1     -41.909 -51.158  13.603  1.00  0.00    -0.247 OA
HETATM    4  N   UNL     1     -42.911 -52.368  11.893  1.00  0.00    -0.308 N 
HETATM    5  H   UNL     1     -41.898 -50.616  10.565  1.00  0.00     0.164 HD
HETATM    6  H   UNL     1     -42.681 -52.687  10.963  1.00  0.00     0.170 HD
ENDROOT
BRANCH   1   7
HETATM    7  C   UNL     1     -40.515 -49.654  11.848  1.00  0.00     0.129 C 
BRANCH   7   8
HETATM    8  C   UNL     1     -40.802 -48.305  11.190  1.00  0.00     0.008 C 
HETATM    9  C   UNL     1     -40.530 -47.129  12.134  1.00  0.00     0.038 C 
HETATM   10  C   UNL     1     -40.861 -45.789  11.474  1.00  0.00     0.117 C 
HETATM   11  C   UNL     1     -39.850 -45.377  10.406  1.00  0.00     0.039 C 
HETATM   12  O   UNL     1     -42.200 -45.797  10.969  1.00  0.00    -0.386 OA
HETATM   13  C   UNL     1     -42.486 -46.837  10.037  1.00  0.00     0.168 C 
HETATM   14  C   UNL     1     -42.226 -48.214  10.634  1.00  0.00     0.032 C 
ENDBRANCH   7   8
ENDBRANCH   1   7
BRANCH   4  15
HETATM   15  C   UNL     1     -43.783 -53.170  12.662  1.00  0.00     0.051 A 
HETATM   16  C   UNL     1     -43.348 -54.230  13.455  1.00  0.00     0.032 A 
HETATM   17  C   UNL     1     -44.271 -55.012  14.143  1.00  0.00     0.019 A 
HETATM   18  C   UNL     1     -45.612 -54.694  14.034  1.00  0.00     0.088 A 
HETATM   19  N   UNL     1     -46.077 -53.652  13.312  1.00  0.00    -0.373 N 
HETATM   20  C   UNL     1     -45.152 -52.914  12.648  1.00  0.00     0.117 A 
ATOM     21  HN  UNL     1     -47.072 -53.431  13.268  1.00  0.00     0.164 HD
ENDBRANCH   4  15
TORSDOF 3
ENDMDL
MODEL 4
REMARK VINA RESULT:      -5.9      1.951      2.185
REMARK  3 active torsions:
REMARK  status: ('A' for Active; 'I' for Inactive)
REMARK    1  A    between atoms: C_4  and  C_5 
REMARK    2  A    between atoms: C_5  and  N_6 
REMARK       I    between atoms: N_6  and  C_7 
REMARK       I    between atoms: C_7  and  N_9 
REMARK    3  A    between atoms: N_9  and  C_10 
ROOT
HETATM    1  N   UNL     1     -43.017 -49.574  12.216  1.00  0.00    -0.342 N 
HETATM    2  C   UNL     1     -43.600 -50.488  13.068  1.00  0.00     0.320 C 
HETATM    3  O   UNL     1     -43.927 -50.189  14.211  1.00  0.00    -0.247 OA
HETATM    4  N   UNL     1     -43.727 -51.728  12.483  1.00  0.00    -0.308 N 
HETATM    5  H   UNL     1     -43.246 -49.708  11.240  1.00  0.00     0.164 HD
HETATM    6  H   UNL     1     -43.113 -51.905  11.702  1.00  0.00     0.170 HD
ENDROOT
BRANCH   1   7
HETATM    7  C   UNL     1     -42.886 -48.213  12.696  1.00  0.00     0.129 C 
BRANCH   7   8
HETATM    8  C   UNL     1     -43.115 -47.133  11.638  1.00  0.00     0.008 C 
HETATM    9  C   UNL     1     -42.883 -47.655  10.217  1.00  0.00     0.038 C 
HETATM   10  C   UNL     1     -43.078 -46.552   9.174  1.00  0.00     0.117 C 
HETATM   11  C   UNL     1     -44.541 -46.166   8.969  1.00  0.00     0.039 C 
HETATM   12  O   UNL     1     -42.264 -45.418   9.487  1.00  0.00    -0.386 OA
HETATM   13  C   UNL     1     -42.486 -44.856  10.779  1.00  0.00     0.168 C 
HETATM   14  C   UNL     1     -42.267 -45.882  11.884  1.00  0.00     0.032 C 
ENDBRANCH   7   8
ENDBRANCH   1   7
BRANCH   4  15
HETATM   15  C   UNL     1     -44.342 -52.842  13.098  1.00  0.00     0.051 A 
HETATM   16  C   UNL     1     -43.626 -53.865  13.717  1.00  0.00     0.032 A 
HETATM   17  C   UNL     1     -44.297 -54.960  14.255  1.00  0.00     0.019 A 
HETATM   18  C   UNL     1     -45.677 -54.988  14.175  1.00  0.00     0.088 A 
HETATM   19  N   UNL     1     -46.415 -54.002  13.622  1.00  0.00    -0.373 N 
HETATM   20  C   UNL     1     -45.730 -52.952  13.102  1.00  0.00     0.117 A 
ATOM     21  HN  UNL     1     -47.434 -54.043  13.597  1.00  0.00     0.164 HD
ENDBRANCH   4  15
TORSDOF 3
ENDMDL
MODEL 5
REMARK VINA RESULT:      -5.8      2.175      6.849
REMARK  3 active torsions:
REMARK  status: ('A' for Active; 'I' for Inactive)
REMARK    1  A    between atoms: C_4  and  C_5 
REMARK    2  A    between atoms: C_5  and  N_6 
REMARK       I    between atoms: N_6  and  C_7 
REMARK       I    between atoms: C_7  and  N_9 
REMARK    3  A    between atoms: N_9  and  C_10 
ROOT
HETATM    1  N   UNL     1     -41.133 -53.024  11.849  1.00  0.00    -0.342 N 
HETATM    2  C   UNL     1     -40.850 -51.720  12.194  1.00  0.00     0.320 C 
HETATM    3  O   UNL     1     -40.633 -51.390  13.354  1.00  0.00    -0.247 OA
HETATM    4  N   UNL     1     -40.873 -50.883  11.101  1.00  0.00    -0.308 N 
HETATM    5  H   UNL     1     -40.802 -53.295  10.933  1.00  0.00     0.164 HD
HETATM    6  H   UNL     1     -41.396 -51.219  10.306  1.00  0.00     0.170 HD
ENDROOT
BRANCH   1   7
HETATM    7  C   UNL     1     -41.079 -54.014  12.906  1.00  0.00     0.129 C 
BRANCH   7   8
HETATM    8  C   UNL     1     -42.394 -54.232  13.653  1.00  0.00     0.008 C 
HETATM    9  C   UNL     1     -43.594 -53.653  12.896  1.00  0.00     0.038 C 
HETATM   10  C   UNL     1     -44.897 -53.844  13.676  1.00  0.00     0.117 C 
HETATM   11  C   UNL     1     -45.390 -55.289  13.682  1.00  0.00     0.039 C 
HETATM   12  O   UNL     1     -44.769 -53.316  15.001  1.00  0.00    -0.386 OA
HETATM   13  C   UNL     1     -43.703 -53.869  15.769  1.00  0.00     0.168 C 
HETATM   14  C   UNL     1     -42.357 -53.680  15.081  1.00  0.00     0.032 C 
ENDBRANCH   7   8
ENDBRANCH   1   7
BRANCH   4  15
HETATM   15  C   UNL     1     -40.562 -49.505  11.144  1.00  0.00     0.051 A 
HETATM   16  C   UNL     1     -39.477 -48.987  11.849  1.00  0.00     0.032 A 
HETATM   17  C   UNL     1     -39.263 -47.612  11.891  1.00  0.00     0.019 A 
HETATM   18  C   UNL     1     -40.137 -46.791  11.202  1.00  0.00     0.088 A 
HETATM   19  N   UNL     1     -41.177 -47.249  10.472  1.00  0.00    -0.373 N 
HETATM   20  C   UNL     1     -41.360 -48.593  10.457  1.00  0.00     0.117 A 
ATOM     21  HN  UNL     1     -41.791 -46.617   9.958  1.00  0.00     0.164 HD
ENDBRANCH   4  15
TORSDOF 3
ENDMDL
MODEL 6
REMARK VINA RESULT:      -5.7      2.039      2.901
REMARK  3 active torsions:
REMARK  status: ('A' for Active; 'I' for Inactive)
REMARK    1  A    between atoms: C_4  and  C_5 
REMARK    2  A    between atoms: C_5  and  N_6 
REMARK       I    between atoms: N_6  and  C_7 
REMARK       I    between atoms: C_7  and  N_9 
REMARK    3  A    between atoms: N_9  and  C_10 
ROOT
HETATM    1  N   UNL     1     -42.025 -52.225  11.680  1.00  0.00    -0.342 N 
HETATM    2  C   UNL     1     -42.866 -52.453  12.748  1.00  0.00     0.320 C 
HETATM    3  O   UNL     1     -42.438 -52.767  13.852  1.00  0.00    -0.247 OA
HETATM    4  N   UNL     1     -44.190 -52.310  12.399  1.00  0.00    -0.308 N 
HETATM    5  H   UNL     1     -42.357 -51.525  11.029  1.00  0.00     0.164 HD
HETATM    6  H   UNL     1     -44.393 -52.399  11.415  1.00  0.00     0.170 HD
ENDROOT
BRANCH   1   7
HETATM    7  C   UNL     1     -40.600 -52.284  11.936  1.00  0.00     0.129 C 
BRANCH   7   8
HETATM    8  C   UNL     1     -39.992 -50.996  12.490  1.00  0.00     0.008 C 
HETATM    9  C   UNL     1     -39.862 -49.908  11.419  1.00  0.00     0.038 C 
HETATM   10  C   UNL     1     -39.215 -48.640  11.980  1.00  0.00     0.117 C 
HETATM   11  C   UNL     1     -40.139 -47.849  12.904  1.00  0.00     0.039 C 
HETATM   12  O   UNL     1     -37.968 -48.950  12.609  1.00  0.00    -0.386 OA
HETATM   13  C   UNL     1     -38.045 -49.915  13.657  1.00  0.00     0.168 C 
HETATM   14  C   UNL     1     -38.639 -51.230  13.169  1.00  0.00     0.032 C 
ENDBRANCH   7   8
ENDBRANCH   1   7
BRANCH   4  15
HETATM   15  C   UNL     1     -45.271 -52.426  13.302  1.00  0.00     0.051 A 
HETATM   16  C   UNL     1     -45.849 -51.334  13.947  1.00  0.00     0.032 A 
HETATM   17  C   UNL     1     -46.877 -51.529  14.866  1.00  0.00     0.019 A 
HETATM   18  C   UNL     1     -47.312 -52.821  15.099  1.00  0.00     0.088 A 
HETATM   19  N   UNL     1     -46.811 -53.905  14.468  1.00  0.00    -0.373 N 
HETATM   20  C   UNL     1     -45.807 -53.680  13.584  1.00  0.00     0.117 A 
ATOM     21  HN  UNL     1     -47.169 -54.843  14.648  1.00  0.00     0.164 HD
ENDBRANCH   4  15
TORSDOF 3
ENDMDL
MODEL 7
REMARK VINA RESULT:      -5.7      2.049      2.920
REMARK  3 active torsions:
REMARK  status: ('A' for Active; 'I' for Inactive)
REMARK    1  A    between atoms: C_4  and  C_5 
REMARK    2  A    between atoms: C_5  and  N_6 
REMARK       I    between atoms: N_6  and  C_7 
REMARK       I    between atoms: C_7  and  N_9 
REMARK    3  A    between atoms: N_9  and  C_10 
ROOT
HETATM    1  N   UNL     1     -42.108 -50.449  11.821  1.00  0.00    -0.342 N 
HETATM    2  C   UNL     1     -42.829 -51.141  12.771  1.00  0.00     0.320 C 
HETATM    3  O   UNL     1     -42.907 -50.754  13.931  1.00  0.00    -0.247 OA
HETATM    4  N   UNL     1     -43.395 -52.285  12.255  1.00  0.00    -0.308 N 
HETATM    5  H   UNL     1     -42.485 -50.509  10.885  1.00  0.00     0.164 HD
HETATM    6  H   UNL     1     -42.964 -52.642  11.415  1.00  0.00     0.170 HD
ENDROOT
BRANCH   1   7
HETATM    7  C   UNL     1     -41.513 -49.191  12.228  1.00  0.00     0.129 C 
BRANCH   7   8
HETATM    8  C   UNL     1     -39.987 -49.193  12.298  1.00  0.00     0.008 C 
HETATM    9  C   UNL     1     -39.400 -50.599  12.131  1.00  0.00     0.038 C 
HETATM   10  C   UNL     1     -37.874 -50.589  12.243  1.00  0.00     0.117 C 
HETATM   11  C   UNL     1     -37.183 -49.979  11.025  1.00  0.00     0.039 C 
HETATM   12  O   UNL     1     -37.466 -49.958  13.461  1.00  0.00    -0.386 OA
HETATM   13  C   UNL     1     -37.936 -48.623  13.635  1.00  0.00     0.168 C 
HETATM   14  C   UNL     1     -39.457 -48.551  13.582  1.00  0.00     0.032 C 
ENDBRANCH   7   8
ENDBRANCH   1   7
BRANCH   4  15
HETATM   15  C   UNL     1     -44.235 -53.158  12.981  1.00  0.00     0.051 A 
HETATM   16  C   UNL     1     -43.761 -54.249  13.706  1.00  0.00     0.032 A 
HETATM   17  C   UNL     1     -44.653 -55.099  14.354  1.00  0.00     0.019 A 
HETATM   18  C   UNL     1     -46.005 -54.817  14.272  1.00  0.00     0.088 A 
HETATM   19  N   UNL     1     -46.508 -53.749  13.616  1.00  0.00    -0.373 N 
HETATM   20  C   UNL     1     -45.612 -52.945  12.992  1.00  0.00     0.117 A 
ATOM     21  HN  UNL     1     -47.510 -53.557  13.593  1.00  0.00     0.164 HD
ENDBRANCH   4  15
TORSDOF 3
ENDMDL
MODEL 8
REMARK VINA RESULT:      -5.6      1.860      2.271
REMARK  3 active torsions:
REMARK  status: ('A' for Active; 'I' for Inactive)
REMARK    1  A    between atoms: C_4  and  C_5 
REMARK    2  A    between atoms: C_5  and  N_6 
REMARK       I    between atoms: N_6  and  C_7 
REMARK       I    between atoms: C_7  and  N_9 
REMARK    3  A    between atoms: N_9  and  C_10 
ROOT
HETATM    1  N   UNL     1     -42.915 -49.359  12.220  1.00  0.00    -0.342 N 
HETATM    2  C   UNL     1     -43.442 -50.291  13.087  1.00  0.00     0.320 C 
HETATM    3  O   UNL     1     -42.842 -50.648  14.095  1.00  0.00    -0.247 OA
HETATM    4  N   UNL     1     -44.664 -50.759  12.660  1.00  0.00    -0.308 N 
HETATM    5  H   UNL     1     -43.605 -48.776  11.764  1.00  0.00     0.164 HD
HETATM    6  H   UNL     1     -44.853 -50.645  11.675  1.00  0.00     0.170 HD
ENDROOT
BRANCH   1   7
HETATM    7  C   UNL     1     -41.656 -48.744  12.593  1.00  0.00     0.129 C 
BRANCH   7   8
HETATM    8  C   UNL     1     -41.465 -47.313  12.092  1.00  0.00     0.008 C 
HETATM    9  C   UNL     1     -42.715 -46.773  11.389  1.00  0.00     0.038 C 
HETATM   10  C   UNL     1     -42.493 -45.354  10.859  1.00  0.00     0.117 C 
HETATM   11  C   UNL     1     -42.456 -44.297  11.961  1.00  0.00     0.039 C 
HETATM   12  O   UNL     1     -41.327 -45.306  10.031  1.00  0.00    -0.386 OA
HETATM   13  C   UNL     1     -40.124 -45.741  10.660  1.00  0.00     0.168 C 
HETATM   14  C   UNL     1     -40.244 -47.168  11.179  1.00  0.00     0.032 C 
ENDBRANCH   7   8
ENDBRANCH   1   7
BRANCH   4  15
HETATM   15  C   UNL     1     -45.463 -51.677  13.377  1.00  0.00     0.051 A 
HETATM   16  C   UNL     1     -46.278 -51.309  14.447  1.00  0.00     0.032 A 
HETATM   17  C   UNL     1     -46.997 -52.276  15.142  1.00  0.00     0.019 A 
HETATM   18  C   UNL     1     -46.895 -53.593  14.730  1.00  0.00     0.088 A 
HETATM   19  N   UNL     1     -46.152 -53.991  13.675  1.00  0.00    -0.373 N 
HETATM   20  C   UNL     1     -45.459 -53.024  13.023  1.00  0.00     0.117 A 
ATOM     21  HN  UNL     1     -46.114 -54.968  13.383  1.00  0.00     0.164 HD
ENDBRANCH   4  15
TORSDOF 3
ENDMDL
MODEL 9
REMARK VINA RESULT:      -5.5      2.424      7.167
REMARK  3 active torsions:
REMARK  status: ('A' for Active; 'I' for Inactive)
REMARK    1  A    between atoms: C_4  and  C_5 
REMARK    2  A    between atoms: C_5  and  N_6 
REMARK       I    between atoms: N_6  and  C_7 
REMARK       I    between atoms: C_7  and  N_9 
REMARK    3  A    between atoms: N_9  and  C_10 
ROOT
HETATM    1  N   UNL     1     -40.720 -50.094  10.892  1.00  0.00    -0.342 N 
HETATM    2  C   UNL     1     -40.754 -48.807  11.385  1.00  0.00     0.320 C 
HETATM    3  O   UNL     1     -40.441 -48.550  12.542  1.00  0.00    -0.247 OA
HETATM    4  N   UNL     1     -41.194 -47.907  10.442  1.00  0.00    -0.308 N 
HETATM    5  H   UNL     1     -40.488 -50.159   9.910  1.00  0.00     0.164 HD
HETATM    6  H   UNL     1     -41.732 -48.299   9.683  1.00  0.00     0.170 HD
ENDROOT
BRANCH   1   7
HETATM    7  C   UNL     1     -40.213 -51.127  11.773  1.00  0.00     0.129 C 
BRANCH   7   8
HETATM    8  C   UNL     1     -41.245 -52.169  12.204  1.00  0.00     0.008 C 
HETATM    9  C   UNL     1     -42.392 -51.550  13.009  1.00  0.00     0.038 C 
HETATM   10  C   UNL     1     -43.395 -52.612  13.467  1.00  0.00     0.117 C 
HETATM   11  C   UNL     1     -44.265 -53.150  12.332  1.00  0.00     0.039 C 
HETATM   12  O   UNL     1     -42.726 -53.662  14.172  1.00  0.00    -0.386 OA
HETATM   13  C   UNL     1     -41.688 -54.312  13.441  1.00  0.00     0.168 C 
HETATM   14  C   UNL     1     -40.619 -53.328  12.985  1.00  0.00     0.032 C 
ENDBRANCH   7   8
ENDBRANCH   1   7
BRANCH   4  15
HETATM   15  C   UNL     1     -41.274 -46.511  10.646  1.00  0.00     0.051 A 
HETATM   16  C   UNL     1     -40.168 -45.665  10.592  1.00  0.00     0.032 A 
HETATM   17  C   UNL     1     -40.313 -44.306  10.858  1.00  0.00     0.019 A 
HETATM   18  C   UNL     1     -41.576 -43.827  11.152  1.00  0.00     0.088 A 
HETATM   19  N   UNL     1     -42.684 -44.600  11.176  1.00  0.00    -0.373 N 
HETATM   20  C   UNL     1     -42.506 -45.920  10.919  1.00  0.00     0.117 A 
ATOM     21  HN  UNL     1     -43.605 -44.211  11.377  1.00  0.00     0.164 HD
ENDBRANCH   4  15
TORSDOF 3
ENDMDL
