MODEL 1
REMARK VINA RESULT:      -6.7      0.000      0.000
REMARK  6 active torsions:
REMARK  status: ('A' for Active; 'I' for Inactive)
REMARK    1  A    between atoms: O_1  and  C_2 
REMARK    2  A    between atoms: C_2  and  C_3 
REMARK    3  A    between atoms: N_12  and  C_13 
REMARK    4  A    between atoms: C_13  and  C_14 
REMARK    5  A    between atoms: C_14  and  O_15 
REMARK    6  A    between atoms: C_14  and  C_16 
ROOT
HETATM    1  C   UNL     1     -38.973 -49.734  12.060  1.00  0.00     0.108 A 
HETATM    2  N   UNL     1     -39.101 -48.569  11.448  1.00  0.00    -0.342 N 
ATOM      3  HN  UNL     1     -38.353 -47.997  11.054  1.00  0.00     0.167 HD
HETATM    4  C   UNL     1     -40.440 -48.286  11.453  1.00  0.00     0.060 A 
HETATM    5  C   UNL     1     -41.114 -47.179  10.913  1.00  0.00     0.032 A 
HETATM    6  C   UNL     1     -42.508 -47.113  11.024  1.00  0.00     0.002 A 
HETATM    7  C   UNL     1     -43.217 -48.131  11.661  1.00  0.00     0.002 A 
HETATM    8  C   UNL     1     -42.563 -49.246  12.199  1.00  0.00     0.032 A 
HETATM    9  C   UNL     1     -41.166 -49.292  12.080  1.00  0.00     0.062 A 
HETATM   10  N   UNL     1     -40.207 -50.205  12.470  1.00  0.00    -0.330 N 
ENDROOT
BRANCH  10  11
HETATM   11  C   UNL     1     -40.469 -51.505  13.071  1.00  0.00     0.167 C 
BRANCH  11  12
HETATM   12  C   UNL     1     -41.302 -52.453  12.188  1.00  0.00     0.172 C 
BRANCH  12  13
HETATM   13  O   UNL     1     -40.447 -53.374  11.497  1.00  0.00    -0.389 OA
HETATM   14  H   UNL     1     -40.995 -54.101  11.165  1.00  0.00     0.210 HD
ENDBRANCH  12  13
BRANCH  12  15
HETATM   15  C   UNL     1     -42.368 -53.280  12.888  1.00  0.00     0.011 A 
HETATM   16  C   UNL     1     -43.708 -53.118  12.486  1.00  0.00     0.013 A 
HETATM   17  C   UNL     1     -44.741 -53.840  13.091  1.00  0.00     0.001 A 
HETATM   18  C   UNL     1     -44.455 -54.739  14.115  1.00  0.00     0.003 A 
HETATM   19  C   UNL     1     -43.139 -54.914  14.530  1.00  0.00     0.043 A 
HETATM   20  C   UNL     1     -42.113 -54.191  13.919  1.00  0.00     0.125 A 
HETATM   21  F   UNL     1     -40.865 -54.409  14.356  1.00  0.00    -0.205 F 
ENDBRANCH  12  15
ENDBRANCH  11  12
ENDBRANCH  10  11
BRANCH   1  22
HETATM   22  C   UNL     1     -37.689 -50.468  12.226  1.00  0.00     0.240 C 
BRANCH  22  23
HETATM   23  O   UNL     1     -37.416 -51.183  11.027  1.00  0.00    -0.393 OA
HETATM   24  H   UNL     1     -38.086 -50.903  10.381  1.00  0.00     0.209 HD
ENDBRANCH  22  23
ENDBRANCH   1  22
TORSDOF 6
ENDMDL
MODEL 2
REMARK VINA RESULT:      -6.3      3.263      4.909
REMARK  6 active torsions:
REMARK  status: ('A' for Active; 'I' for Inactive)
REMARK    1  A    between atoms: O_1  and  C_2 
REMARK    2  A    between atoms: C_2  and  C_3 
REMARK    3  A    between atoms: N_12  and  C_13 
REMARK    4  A    between atoms: C_13  and  C_14 
REMARK    5  A    between atoms: C_14  and  O_15 
REMARK    6  A    between atoms: C_14  and  C_16 
ROOT
HETATM    1  C   UNL     1     -42.037 -46.898  10.255  1.00  0.00     0.108 A 
HETATM    2  N   UNL     1     -41.507 -45.693  10.132  1.00  0.00    -0.342 N 
ATOM      3  HN  UNL     1     -41.698 -45.010   9.399  1.00  0.00     0.167 HD
HETATM    4  C   UNL     1     -40.648 -45.549  11.189  1.00  0.00     0.060 A 
HETATM    5  C   UNL     1     -39.850 -44.449  11.539  1.00  0.00     0.032 A 
HETATM    6  C   UNL     1     -39.055 -44.526  12.688  1.00  0.00     0.002 A 
HETATM    7  C   UNL     1     -39.057 -45.678  13.475  1.00  0.00     0.002 A 
HETATM    8  C   UNL     1     -39.853 -46.782  13.147  1.00  0.00     0.032 A 
HETATM    9  C   UNL     1     -40.639 -46.686  11.990  1.00  0.00     0.062 A 
HETATM   10  N   UNL     1     -41.528 -47.541  11.368  1.00  0.00    -0.330 N 
ENDROOT
BRANCH  10  11
HETATM   11  C   UNL     1     -41.963 -48.831  11.884  1.00  0.00     0.167 C 
BRANCH  11  12
HETATM   12  C   UNL     1     -41.047 -50.007  11.498  1.00  0.00     0.172 C 
BRANCH  12  13
HETATM   13  O   UNL     1     -40.591 -49.864  10.146  1.00  0.00    -0.389 OA
HETATM   14  H   UNL     1     -40.930 -50.613   9.633  1.00  0.00     0.210 HD
ENDBRANCH  12  13
BRANCH  12  15
HETATM   15  C   UNL     1     -39.814 -50.226  12.358  1.00  0.00     0.011 A 
HETATM   16  C   UNL     1     -38.547 -50.045  11.768  1.00  0.00     0.013 A 
HETATM   17  C   UNL     1     -37.370 -50.237  12.498  1.00  0.00     0.001 A 
HETATM   18  C   UNL     1     -37.435 -50.618  13.836  1.00  0.00     0.003 A 
HETATM   19  C   UNL     1     -38.675 -50.805  14.439  1.00  0.00     0.043 A 
HETATM   20  C   UNL     1     -39.845 -50.609  13.704  1.00  0.00     0.125 A 
HETATM   21  F   UNL     1     -41.009 -50.795  14.342  1.00  0.00    -0.205 F 
ENDBRANCH  12  15
ENDBRANCH  11  12
ENDBRANCH  10  11
BRANCH   1  22
HETATM   22  C   UNL     1     -43.085 -47.459   9.359  1.00  0.00     0.240 C 
BRANCH  22  23
HETATM   23  O   UNL     1     -42.462 -48.319   8.413  1.00  0.00    -0.393 OA
HETATM   24  H   UNL     1     -42.453 -47.839   7.568  1.00  0.00     0.209 HD
ENDBRANCH  22  23
ENDBRANCH   1  22
TORSDOF 6
ENDMDL
MODEL 3
REMARK VINA RESULT:      -6.3      2.795      5.517
REMARK  6 active torsions:
REMARK  status: ('A' for Active; 'I' for Inactive)
REMARK    1  A    between atoms: O_1  and  C_2 
REMARK    2  A    between atoms: C_2  and  C_3 
REMARK    3  A    between atoms: N_12  and  C_13 
REMARK    4  A    between atoms: C_13  and  C_14 
REMARK    5  A    between atoms: C_14  and  O_15 
REMARK    6  A    between atoms: C_14  and  C_16 
ROOT
HETATM    1  C   UNL     1     -42.293 -53.240  12.956  1.00  0.00     0.108 A 
HETATM    2  N   UNL     1     -43.394 -53.437  12.250  1.00  0.00    -0.342 N 
ATOM      3  HN  UNL     1     -43.488 -53.994  11.400  1.00  0.00     0.167 HD
HETATM    4  C   UNL     1     -44.383 -52.740  12.892  1.00  0.00     0.060 A 
HETATM    5  C   UNL     1     -45.745 -52.633  12.569  1.00  0.00     0.032 A 
HETATM    6  C   UNL     1     -46.579 -51.869  13.394  1.00  0.00     0.002 A 
HETATM    7  C   UNL     1     -46.066 -51.225  14.519  1.00  0.00     0.002 A 
HETATM    8  C   UNL     1     -44.712 -51.326  14.862  1.00  0.00     0.032 A 
HETATM    9  C   UNL     1     -43.892 -52.094  14.021  1.00  0.00     0.062 A 
HETATM   10  N   UNL     1     -42.550 -52.419  14.038  1.00  0.00    -0.330 N 
ENDROOT
BRANCH  10  11
HETATM   11  C   UNL     1     -41.609 -52.079  15.096  1.00  0.00     0.167 C 
BRANCH  11  12
HETATM   12  C   UNL     1     -40.958 -50.693  14.940  1.00  0.00     0.172 C 
BRANCH  12  13
HETATM   13  O   UNL     1     -40.360 -50.279  16.176  1.00  0.00    -0.389 OA
HETATM   14  H   UNL     1     -41.064 -50.188  16.835  1.00  0.00     0.210 HD
ENDBRANCH  12  13
BRANCH  12  15
HETATM   15  C   UNL     1     -39.892 -50.554  13.866  1.00  0.00     0.011 A 
HETATM   16  C   UNL     1     -38.573 -50.931  14.182  1.00  0.00     0.013 A 
HETATM   17  C   UNL     1     -37.541 -50.822  13.245  1.00  0.00     0.001 A 
HETATM   18  C   UNL     1     -37.807 -50.328  11.970  1.00  0.00     0.003 A 
HETATM   19  C   UNL     1     -39.102 -49.946  11.637  1.00  0.00     0.043 A 
HETATM   20  C   UNL     1     -40.127 -50.061  12.577  1.00  0.00     0.125 A 
HETATM   21  F   UNL     1     -41.356 -49.686  12.194  1.00  0.00    -0.205 F 
ENDBRANCH  12  15
ENDBRANCH  11  12
ENDBRANCH  10  11
BRANCH   1  22
HETATM   22  C   UNL     1     -40.976 -53.868  12.663  1.00  0.00     0.240 C 
BRANCH  22  23
HETATM   23  O   UNL     1     -40.508 -53.382  11.412  1.00  0.00    -0.393 OA
HETATM   24  H   UNL     1     -41.298 -53.180  10.882  1.00  0.00     0.209 HD
ENDBRANCH  22  23
ENDBRANCH   1  22
TORSDOF 6
ENDMDL
MODEL 4
REMARK VINA RESULT:      -6.2      3.716      6.160
REMARK  6 active torsions:
REMARK  status: ('A' for Active; 'I' for Inactive)
REMARK    1  A    between atoms: O_1  and  C_2 
REMARK    2  A    between atoms: C_2  and  C_3 
REMARK    3  A    between atoms: N_12  and  C_13 
REMARK    4  A    between atoms: C_13  and  C_14 
REMARK    5  A    between atoms: C_14  and  O_15 
REMARK    6  A    between atoms: C_14  and  C_16 
ROOT
HETATM    1  C   UNL     1     -40.110 -53.679  13.989  1.00  0.00     0.108 A 
HETATM    2  N   UNL     1     -38.964 -54.322  14.133  1.00  0.00    -0.342 N 
ATOM      3  HN  UNL     1     -38.179 -54.333  13.481  1.00  0.00     0.167 HD
HETATM    4  C   UNL     1     -39.045 -54.971  15.336  1.00  0.00     0.060 A 
HETATM    5  C   UNL     1     -38.090 -55.777  15.975  1.00  0.00     0.032 A 
HETATM    6  C   UNL     1     -38.393 -56.327  17.226  1.00  0.00     0.002 A 
HETATM    7  C   UNL     1     -39.626 -56.077  17.830  1.00  0.00     0.002 A 
HETATM    8  C   UNL     1     -40.588 -55.269  17.212  1.00  0.00     0.032 A 
HETATM    9  C   UNL     1     -40.266 -54.730  15.957  1.00  0.00     0.062 A 
HETATM   10  N   UNL     1     -40.936 -53.909  15.073  1.00  0.00    -0.330 N 
ENDROOT
BRANCH  10  11
HETATM   11  C   UNL     1     -42.225 -53.276  15.315  1.00  0.00     0.167 C 
BRANCH  11  12
HETATM   12  C   UNL     1     -43.412 -53.977  14.629  1.00  0.00     0.172 C 
BRANCH  12  13
HETATM   13  O   UNL     1     -43.935 -55.015  15.469  1.00  0.00    -0.389 OA
HETATM   14  H   UNL     1     -44.479 -55.599  14.920  1.00  0.00     0.210 HD
ENDBRANCH  12  13
BRANCH  12  15
HETATM   15  C   UNL     1     -44.586 -53.100  14.228  1.00  0.00     0.011 A 
HETATM   16  C   UNL     1     -45.304 -52.440  15.244  1.00  0.00     0.013 A 
HETATM   17  C   UNL     1     -46.400 -51.624  14.949  1.00  0.00     0.001 A 
HETATM   18  C   UNL     1     -46.805 -51.455  13.627  1.00  0.00     0.003 A 
HETATM   19  C   UNL     1     -46.113 -52.099  12.607  1.00  0.00     0.043 A 
HETATM   20  C   UNL     1     -45.019 -52.909  12.910  1.00  0.00     0.125 A 
HETATM   21  F   UNL     1     -44.386 -53.496  11.884  1.00  0.00    -0.205 F 
ENDBRANCH  12  15
ENDBRANCH  11  12
ENDBRANCH  10  11
BRANCH   1  22
HETATM   22  C   UNL     1     -40.439 -52.780  12.849  1.00  0.00     0.240 C 
BRANCH  22  23
HETATM   23  O   UNL     1     -40.519 -53.559  11.663  1.00  0.00    -0.393 OA
HETATM   24  H   UNL     1     -41.258 -53.197  11.144  1.00  0.00     0.209 HD
ENDBRANCH  22  23
ENDBRANCH   1  22
TORSDOF 6
ENDMDL
MODEL 5
REMARK VINA RESULT:      -6.2      2.738      5.069
REMARK  6 active torsions:
REMARK  status: ('A' for Active; 'I' for Inactive)
REMARK    1  A    between atoms: O_1  and  C_2 
REMARK    2  A    between atoms: C_2  and  C_3 
REMARK    3  A    between atoms: N_12  and  C_13 
REMARK    4  A    between atoms: C_13  and  C_14 
REMARK    5  A    between atoms: C_14  and  O_15 
REMARK    6  A    between atoms: C_14  and  C_16 
ROOT
HETATM    1  C   UNL     1     -40.086 -52.182  13.829  1.00  0.00     0.108 A 
HETATM    2  N   UNL     1     -39.685 -52.994  14.792  1.00  0.00    -0.342 N 
ATOM      3  HN  UNL     1     -38.777 -52.995  15.257  1.00  0.00     0.167 HD
HETATM    4  C   UNL     1     -40.738 -53.834  15.038  1.00  0.00     0.060 A 
HETATM    5  C   UNL     1     -40.844 -54.869  15.981  1.00  0.00     0.032 A 
HETATM    6  C   UNL     1     -42.040 -55.591  16.063  1.00  0.00     0.002 A 
HETATM    7  C   UNL     1     -43.111 -55.287  15.223  1.00  0.00     0.002 A 
HETATM    8  C   UNL     1     -43.027 -54.253  14.282  1.00  0.00     0.032 A 
HETATM    9  C   UNL     1     -41.819 -53.544  14.213  1.00  0.00     0.062 A 
HETATM   10  N   UNL     1     -41.376 -52.489  13.440  1.00  0.00    -0.330 N 
ENDROOT
BRANCH  10  11
HETATM   11  C   UNL     1     -42.185 -51.737  12.490  1.00  0.00     0.167 C 
BRANCH  11  12
HETATM   12  C   UNL     1     -42.956 -50.558  13.110  1.00  0.00     0.172 C 
BRANCH  12  13
HETATM   13  O   UNL     1     -43.238 -49.565  12.115  1.00  0.00    -0.389 OA
HETATM   14  H   UNL     1     -43.270 -50.005  11.252  1.00  0.00     0.210 HD
ENDBRANCH  12  13
BRANCH  12  15
HETATM   15  C   UNL     1     -44.274 -50.885  13.793  1.00  0.00     0.011 A 
HETATM   16  C   UNL     1     -45.371 -51.248  12.988  1.00  0.00     0.013 A 
HETATM   17  C   UNL     1     -46.615 -51.554  13.548  1.00  0.00     0.001 A 
HETATM   18  C   UNL     1     -46.789 -51.499  14.929  1.00  0.00     0.003 A 
HETATM   19  C   UNL     1     -45.720 -51.140  15.744  1.00  0.00     0.043 A 
HETATM   20  C   UNL     1     -44.481 -50.839  15.177  1.00  0.00     0.125 A 
HETATM   21  F   UNL     1     -43.487 -50.509  16.013  1.00  0.00    -0.205 F 
ENDBRANCH  12  15
ENDBRANCH  11  12
ENDBRANCH  10  11
BRANCH   1  22
HETATM   22  C   UNL     1     -39.284 -51.052  13.285  1.00  0.00     0.240 C 
BRANCH  22  23
HETATM   23  O   UNL     1     -38.732 -51.446  12.035  1.00  0.00    -0.393 OA
HETATM   24  H   UNL     1     -38.707 -52.418  12.039  1.00  0.00     0.209 HD
ENDBRANCH  22  23
ENDBRANCH   1  22
TORSDOF 6
ENDMDL
MODEL 6
REMARK VINA RESULT:      -6.1      2.710      5.915
REMARK  6 active torsions:
REMARK  status: ('A' for Active; 'I' for Inactive)
REMARK    1  A    between atoms: O_1  and  C_2 
REMARK    2  A    between atoms: C_2  and  C_3 
REMARK    3  A    between atoms: N_12  and  C_13 
REMARK    4  A    between atoms: C_13  and  C_14 
REMARK    5  A    between atoms: C_14  and  O_15 
REMARK    6  A    between atoms: C_14  and  C_16 
ROOT
HETATM    1  C   UNL     1     -42.195 -53.155  12.959  1.00  0.00     0.108 A 
HETATM    2  N   UNL     1     -43.256 -53.934  12.830  1.00  0.00    -0.342 N 
ATOM      3  HN  UNL     1     -43.275 -54.893  12.481  1.00  0.00     0.167 HD
HETATM    4  C   UNL     1     -44.323 -53.190  13.258  1.00  0.00     0.060 A 
HETATM    5  C   UNL     1     -45.676 -53.552  13.347  1.00  0.00     0.032 A 
HETATM    6  C   UNL     1     -46.597 -52.619  13.838  1.00  0.00     0.002 A 
HETATM    7  C   UNL     1     -46.176 -51.350  14.236  1.00  0.00     0.002 A 
HETATM    8  C   UNL     1     -44.829 -50.974  14.162  1.00  0.00     0.032 A 
HETATM    9  C   UNL     1     -43.923 -51.922  13.664  1.00  0.00     0.062 A 
HETATM   10  N   UNL     1     -42.558 -51.917  13.455  1.00  0.00    -0.330 N 
ENDROOT
BRANCH  10  11
HETATM   11  C   UNL     1     -41.647 -50.847  13.835  1.00  0.00     0.167 C 
BRANCH  11  12
HETATM   12  C   UNL     1     -41.202 -49.951  12.664  1.00  0.00     0.172 C 
BRANCH  12  13
HETATM   13  O   UNL     1     -41.760 -50.425  11.431  1.00  0.00    -0.389 OA
HETATM   14  H   UNL     1     -41.526 -49.794  10.734  1.00  0.00     0.210 HD
ENDBRANCH  12  13
BRANCH  12  15
HETATM   15  C   UNL     1     -41.542 -48.474  12.764  1.00  0.00     0.011 A 
HETATM   16  C   UNL     1     -42.671 -48.099  13.519  1.00  0.00     0.013 A 
HETATM   17  C   UNL     1     -43.048 -46.758  13.647  1.00  0.00     0.001 A 
HETATM   18  C   UNL     1     -42.304 -45.763  13.018  1.00  0.00     0.003 A 
HETATM   19  C   UNL     1     -41.188 -46.110  12.265  1.00  0.00     0.043 A 
HETATM   20  C   UNL     1     -40.817 -47.450  12.144  1.00  0.00     0.125 A 
HETATM   21  F   UNL     1     -39.726 -47.721  11.413  1.00  0.00    -0.205 F 
ENDBRANCH  12  15
ENDBRANCH  11  12
ENDBRANCH  10  11
BRANCH   1  22
HETATM   22  C   UNL     1     -40.795 -53.576  12.675  1.00  0.00     0.240 C 
BRANCH  22  23
HETATM   23  O   UNL     1     -40.501 -53.284  11.314  1.00  0.00    -0.393 OA
HETATM   24  H   UNL     1     -40.378 -52.321  11.259  1.00  0.00     0.209 HD
ENDBRANCH  22  23
ENDBRANCH   1  22
TORSDOF 6
ENDMDL
MODEL 7
REMARK VINA RESULT:      -6.1      2.923      4.245
REMARK  6 active torsions:
REMARK  status: ('A' for Active; 'I' for Inactive)
REMARK    1  A    between atoms: O_1  and  C_2 
REMARK    2  A    between atoms: C_2  and  C_3 
REMARK    3  A    between atoms: N_12  and  C_13 
REMARK    4  A    between atoms: C_13  and  C_14 
REMARK    5  A    between atoms: C_14  and  O_15 
REMARK    6  A    between atoms: C_14  and  C_16 
ROOT
HETATM    1  C   UNL     1     -41.033 -48.775  11.412  1.00  0.00     0.108 A 
HETATM    2  N   UNL     1     -39.801 -48.907  10.950  1.00  0.00    -0.342 N 
ATOM      3  HN  UNL     1     -39.412 -48.481  10.108  1.00  0.00     0.167 HD
HETATM    4  C   UNL     1     -39.155 -49.731  11.832  1.00  0.00     0.060 A 
HETATM    5  C   UNL     1     -37.823 -50.174  11.818  1.00  0.00     0.032 A 
HETATM    6  C   UNL     1     -37.374 -51.010  12.847  1.00  0.00     0.002 A 
HETATM    7  C   UNL     1     -38.238 -51.396  13.872  1.00  0.00     0.002 A 
HETATM    8  C   UNL     1     -39.567 -50.958  13.908  1.00  0.00     0.032 A 
HETATM    9  C   UNL     1     -39.998 -50.124  12.865  1.00  0.00     0.062 A 
HETATM   10  N   UNL     1     -41.198 -49.509  12.572  1.00  0.00    -0.330 N 
ENDROOT
BRANCH  10  11
HETATM   11  C   UNL     1     -42.382 -49.512  13.420  1.00  0.00     0.167 C 
BRANCH  11  12
HETATM   12  C   UNL     1     -43.518 -50.420  12.914  1.00  0.00     0.172 C 
BRANCH  12  13
HETATM   13  O   UNL     1     -42.991 -51.664  12.436  1.00  0.00    -0.389 OA
HETATM   14  H   UNL     1     -42.408 -52.026  13.121  1.00  0.00     0.210 HD
ENDBRANCH  12  13
BRANCH  12  15
HETATM   15  C   UNL     1     -44.617 -50.759  13.907  1.00  0.00     0.011 A 
HETATM   16  C   UNL     1     -44.376 -50.525  15.275  1.00  0.00     0.013 A 
HETATM   17  C   UNL     1     -45.339 -50.821  16.245  1.00  0.00     0.001 A 
HETATM   18  C   UNL     1     -46.565 -51.361  15.866  1.00  0.00     0.003 A 
HETATM   19  C   UNL     1     -46.825 -51.602  14.521  1.00  0.00     0.043 A 
HETATM   20  C   UNL     1     -45.859 -51.302  13.559  1.00  0.00     0.125 A 
HETATM   21  F   UNL     1     -46.171 -51.548  12.279  1.00  0.00    -0.205 F 
ENDBRANCH  12  15
ENDBRANCH  11  12
ENDBRANCH  10  11
BRANCH   1  22
HETATM   22  C   UNL     1     -42.077 -47.905  10.804  1.00  0.00     0.240 C 
BRANCH  22  23
HETATM   23  O   UNL     1     -42.300 -48.329   9.466  1.00  0.00    -0.393 OA
HETATM   24  H   UNL     1     -42.003 -49.253   9.417  1.00  0.00     0.209 HD
ENDBRANCH  22  23
ENDBRANCH   1  22
TORSDOF 6
ENDMDL
MODEL 8
REMARK VINA RESULT:      -6.0      3.180      5.464
REMARK  6 active torsions:
REMARK  status: ('A' for Active; 'I' for Inactive)
REMARK    1  A    between atoms: O_1  and  C_2 
REMARK    2  A    between atoms: C_2  and  C_3 
REMARK    3  A    between atoms: N_12  and  C_13 
REMARK    4  A    between atoms: C_13  and  C_14 
REMARK    5  A    between atoms: C_14  and  O_15 
REMARK    6  A    between atoms: C_14  and  C_16 
ROOT
HETATM    1  C   UNL     1     -42.163 -52.370  12.814  1.00  0.00     0.108 A 
HETATM    2  N   UNL     1     -43.451 -52.332  12.518  1.00  0.00    -0.342 N 
ATOM      3  HN  UNL     1     -43.871 -52.026  11.639  1.00  0.00     0.167 HD
HETATM    4  C   UNL     1     -44.107 -52.786  13.631  1.00  0.00     0.060 A 
HETATM    5  C   UNL     1     -45.484 -52.964  13.837  1.00  0.00     0.032 A 
HETATM    6  C   UNL     1     -45.926 -53.465  15.067  1.00  0.00     0.002 A 
HETATM    7  C   UNL     1     -45.014 -53.784  16.072  1.00  0.00     0.002 A 
HETATM    8  C   UNL     1     -43.636 -53.621  15.882  1.00  0.00     0.032 A 
HETATM    9  C   UNL     1     -43.213 -53.115  14.644  1.00  0.00     0.062 A 
HETATM   10  N   UNL     1     -41.974 -52.831  14.103  1.00  0.00    -0.330 N 
ENDROOT
BRANCH  10  11
HETATM   11  C   UNL     1     -40.691 -53.114  14.731  1.00  0.00     0.167 C 
BRANCH  11  12
HETATM   12  C   UNL     1     -40.141 -54.522  14.438  1.00  0.00     0.172 C 
BRANCH  12  13
HETATM   13  O   UNL     1     -39.046 -54.450  13.516  1.00  0.00    -0.389 OA
HETATM   14  H   UNL     1     -38.379 -55.097  13.790  1.00  0.00     0.210 HD
ENDBRANCH  12  13
BRANCH  12  15
HETATM   15  C   UNL     1     -39.661 -55.332  15.631  1.00  0.00     0.011 A 
HETATM   16  C   UNL     1     -38.290 -55.298  15.952  1.00  0.00     0.013 A 
HETATM   17  C   UNL     1     -37.777 -56.025  17.030  1.00  0.00     0.001 A 
HETATM   18  C   UNL     1     -38.626 -56.805  17.811  1.00  0.00     0.003 A 
HETATM   19  C   UNL     1     -39.983 -56.856  17.511  1.00  0.00     0.043 A 
HETATM   20  C   UNL     1     -40.488 -56.125  16.435  1.00  0.00     0.125 A 
HETATM   21  F   UNL     1     -41.805 -56.207  16.201  1.00  0.00    -0.205 F 
ENDBRANCH  12  15
ENDBRANCH  11  12
ENDBRANCH  10  11
BRANCH   1  22
HETATM   22  C   UNL     1     -41.065 -52.027  11.868  1.00  0.00     0.240 C 
BRANCH  22  23
HETATM   23  O   UNL     1     -40.628 -53.219  11.228  1.00  0.00    -0.393 OA
HETATM   24  H   UNL     1     -41.158 -53.305  10.417  1.00  0.00     0.209 HD
ENDBRANCH  22  23
ENDBRANCH   1  22
TORSDOF 6
ENDMDL
MODEL 9
REMARK VINA RESULT:      -6.0      3.068      4.491
REMARK  6 active torsions:
REMARK  status: ('A' for Active; 'I' for Inactive)
REMARK    1  A    between atoms: O_1  and  C_2 
REMARK    2  A    between atoms: C_2  and  C_3 
REMARK    3  A    between atoms: N_12  and  C_13 
REMARK    4  A    between atoms: C_13  and  C_14 
REMARK    5  A    between atoms: C_14  and  O_15 
REMARK    6  A    between atoms: C_14  and  C_16 
ROOT
HETATM    1  C   UNL     1     -42.299 -50.771  14.946  1.00  0.00     0.108 A 
HETATM    2  N   UNL     1     -43.304 -50.537  15.772  1.00  0.00    -0.342 N 
ATOM      3  HN  UNL     1     -43.251 -50.119  16.702  1.00  0.00     0.167 HD
HETATM    4  C   UNL     1     -44.431 -50.970  15.126  1.00  0.00     0.060 A 
HETATM    5  C   UNL     1     -45.767 -50.932  15.554  1.00  0.00     0.032 A 
HETATM    6  C   UNL     1     -46.766 -51.423  14.704  1.00  0.00     0.002 A 
HETATM    7  C   UNL     1     -46.438 -51.941  13.451  1.00  0.00     0.002 A 
HETATM    8  C   UNL     1     -45.111 -51.979  13.004  1.00  0.00     0.032 A 
HETATM    9  C   UNL     1     -44.126 -51.485  13.871  1.00  0.00     0.062 A 
HETATM   10  N   UNL     1     -42.754 -51.357  13.780  1.00  0.00    -0.330 N 
ENDROOT
BRANCH  10  11
HETATM   11  C   UNL     1     -41.953 -51.650  12.601  1.00  0.00     0.167 C 
BRANCH  11  12
HETATM   12  C   UNL     1     -41.590 -53.138  12.437  1.00  0.00     0.172 C 
BRANCH  12  13
HETATM   13  O   UNL     1     -40.618 -53.305  11.396  1.00  0.00    -0.389 OA
HETATM   14  H   UNL     1     -41.004 -52.980  10.569  1.00  0.00     0.210 HD
ENDBRANCH  12  13
BRANCH  12  15
HETATM   15  C   UNL     1     -41.049 -53.850  13.665  1.00  0.00     0.011 A 
HETATM   16  C   UNL     1     -39.653 -53.883  13.857  1.00  0.00     0.013 A 
HETATM   17  C   UNL     1     -39.086 -54.528  14.960  1.00  0.00     0.001 A 
HETATM   18  C   UNL     1     -39.903 -55.157  15.895  1.00  0.00     0.003 A 
HETATM   19  C   UNL     1     -41.283 -55.140  15.725  1.00  0.00     0.043 A 
HETATM   20  C   UNL     1     -41.842 -54.492  14.623  1.00  0.00     0.125 A 
HETATM   21  F   UNL     1     -43.179 -54.501  14.518  1.00  0.00    -0.205 F 
ENDBRANCH  12  15
ENDBRANCH  11  12
ENDBRANCH  10  11
BRANCH   1  22
HETATM   22  C   UNL     1     -40.882 -50.394  15.207  1.00  0.00     0.240 C 
BRANCH  22  23
HETATM   23  O   UNL     1     -40.338 -51.302  16.157  1.00  0.00    -0.393 OA
HETATM   24  H   UNL     1     -39.569 -51.718  15.731  1.00  0.00     0.209 HD
ENDBRANCH  22  23
ENDBRANCH   1  22
TORSDOF 6
ENDMDL
