MODEL 1
REMARK VINA RESULT:      -5.9      0.000      0.000
REMARK  4 active torsions:
REMARK  status: ('A' for Active; 'I' for Inactive)
REMARK       I    between atoms: N_1  and  C_2 
REMARK    1  A    between atoms: C_2  and  C_4 
REMARK    2  A    between atoms: C_4  and  C_5 
REMARK    3  A    between atoms: C_8  and  N_9 
REMARK       I    between atoms: N_9  and  C_10 
REMARK    4  A    between atoms: C_10  and  C_12 
ROOT
HETATM    1  C   UNL     1     -42.642 -47.159   9.953  1.00  0.00     0.026 A 
HETATM    2  C   UNL     1     -41.722 -46.308  10.542  1.00  0.00     0.078 A 
HETATM    3  S   UNL     1     -40.521 -47.220  11.367  1.00  0.00    -0.064 SA
HETATM    4  C   UNL     1     -41.269 -48.653  10.827  1.00  0.00     0.151 A 
HETATM    5  N   UNL     1     -42.364 -48.508  10.131  1.00  0.00    -0.339 N 
ATOM      6  HN  UNL     1     -42.932 -49.275   9.771  1.00  0.00     0.168 HD
ENDROOT
BRANCH   4   7
HETATM    7  N   UNL     1     -40.637 -49.808  11.198  1.00  0.00    -0.307 N 
HETATM    8  C   UNL     1     -41.175 -50.647  12.147  1.00  0.00     0.228 C 
HETATM    9  O   UNL     1     -42.282 -50.526  12.672  1.00  0.00    -0.273 OA
HETATM   10  H   UNL     1     -39.806 -50.065  10.687  1.00  0.00     0.171 HD
BRANCH   8  11
HETATM   11  C   UNL     1     -40.273 -51.822  12.519  1.00  0.00     0.082 C 
HETATM   12  C   UNL     1     -40.957 -53.156  12.167  1.00  0.00     0.018 C 
HETATM   13  C   UNL     1     -41.218 -54.166  13.283  1.00  0.00     0.027 C 
HETATM   14  C   UNL     1     -40.615 -53.869  14.609  1.00  0.00    -0.031 C 
HETATM   15  C   UNL     1     -39.947 -52.750  14.900  1.00  0.00    -0.030 C 
HETATM   16  C   UNL     1     -39.707 -51.640  13.935  1.00  0.00     0.041 C 
ENDBRANCH   8  11
ENDBRANCH   4   7
BRANCH   1  17
HETATM   17  C   UNL     1     -43.873 -46.776   9.195  1.00  0.00     0.160 C 
BRANCH  17  18
HETATM   18  C   UNL     1     -44.273 -47.776   8.126  1.00  0.00     0.221 C 
HETATM   19  N   UNL     1     -45.565 -48.209   8.129  1.00  0.00    -0.370 N 
HETATM   20  H   UNL     1     -45.877 -48.865   7.428  1.00  0.00     0.159 HD
HETATM   21  H   UNL     1     -46.218 -47.924   8.861  1.00  0.00     0.159 HD
HETATM   22  O   UNL     1     -43.499 -48.131   7.239  1.00  0.00    -0.273 OA
ENDBRANCH  17  18
ENDBRANCH   1  17
TORSDOF 4
ENDMDL
MODEL 2
REMARK VINA RESULT:      -5.9      2.054      2.556
REMARK  4 active torsions:
REMARK  status: ('A' for Active; 'I' for Inactive)
REMARK       I    between atoms: N_1  and  C_2 
REMARK    1  A    between atoms: C_2  and  C_4 
REMARK    2  A    between atoms: C_4  and  C_5 
REMARK    3  A    between atoms: C_8  and  N_9 
REMARK       I    between atoms: N_9  and  C_10 
REMARK    4  A    between atoms: C_10  and  C_12 
ROOT
HETATM    1  C   UNL     1     -41.282 -47.852  11.033  1.00  0.00     0.026 A 
HETATM    2  C   UNL     1     -40.085 -47.933  11.724  1.00  0.00     0.078 A 
HETATM    3  S   UNL     1     -39.843 -49.535  12.297  1.00  0.00    -0.064 SA
HETATM    4  C   UNL     1     -41.292 -50.004  11.535  1.00  0.00     0.151 A 
HETATM    5  N   UNL     1     -41.965 -49.058  10.937  1.00  0.00    -0.339 N 
ATOM      6  HN  UNL     1     -42.862 -49.187  10.468  1.00  0.00     0.168 HD
ENDROOT
BRANCH   4   7
HETATM    7  N   UNL     1     -41.598 -51.333  11.647  1.00  0.00    -0.307 N 
HETATM    8  C   UNL     1     -42.520 -51.781  12.564  1.00  0.00     0.228 C 
HETATM    9  O   UNL     1     -43.224 -51.074  13.285  1.00  0.00    -0.273 OA
HETATM   10  H   UNL     1     -41.188 -51.960  10.972  1.00  0.00     0.171 HD
BRANCH   8  11
HETATM   11  C   UNL     1     -42.642 -53.303  12.628  1.00  0.00     0.082 C 
HETATM   12  C   UNL     1     -44.119 -53.726  12.542  1.00  0.00     0.018 C 
HETATM   13  C   UNL     1     -44.723 -54.528  13.694  1.00  0.00     0.027 C 
HETATM   14  C   UNL     1     -43.782 -55.013  14.738  1.00  0.00    -0.031 C 
HETATM   15  C   UNL     1     -42.480 -54.719  14.774  1.00  0.00    -0.030 C 
HETATM   16  C   UNL     1     -41.783 -53.865  13.770  1.00  0.00     0.041 C 
ENDBRANCH   8  11
ENDBRANCH   4   7
BRANCH   1  17
HETATM   17  C   UNL     1     -41.897 -46.631  10.427  1.00  0.00     0.160 C 
BRANCH  17  18
HETATM   18  C   UNL     1     -43.114 -46.918   9.567  1.00  0.00     0.221 C 
HETATM   19  N   UNL     1     -43.013 -46.655   8.234  1.00  0.00    -0.370 N 
HETATM   20  H   UNL     1     -43.795 -46.843   7.623  1.00  0.00     0.159 HD
HETATM   21  H   UNL     1     -42.176 -46.218   7.842  1.00  0.00     0.159 HD
HETATM   22  O   UNL     1     -44.130 -47.442  10.023  1.00  0.00    -0.273 OA
ENDBRANCH  17  18
ENDBRANCH   1  17
TORSDOF 4
ENDMDL
MODEL 3
REMARK VINA RESULT:      -5.8      3.721      5.252
REMARK  4 active torsions:
REMARK  status: ('A' for Active; 'I' for Inactive)
REMARK       I    between atoms: N_1  and  C_2 
REMARK    1  A    between atoms: C_2  and  C_4 
REMARK    2  A    between atoms: C_4  and  C_5 
REMARK    3  A    between atoms: C_8  and  N_9 
REMARK       I    between atoms: N_9  and  C_10 
REMARK    4  A    between atoms: C_10  and  C_12 
ROOT
HETATM    1  C   UNL     1     -39.452 -49.400  12.446  1.00  0.00     0.026 A 
HETATM    2  C   UNL     1     -40.187 -48.227  12.425  1.00  0.00     0.078 A 
HETATM    3  S   UNL     1     -41.851 -48.580  12.177  1.00  0.00    -0.064 SA
HETATM    4  C   UNL     1     -41.478 -50.242  12.186  1.00  0.00     0.151 A 
HETATM    5  N   UNL     1     -40.215 -50.552  12.305  1.00  0.00    -0.339 N 
ATOM      6  HN  UNL     1     -39.844 -51.502  12.295  1.00  0.00     0.168 HD
ENDROOT
BRANCH   4   7
HETATM    7  N   UNL     1     -42.555 -51.075  12.054  1.00  0.00    -0.307 N 
HETATM    8  C   UNL     1     -42.857 -52.012  13.015  1.00  0.00     0.228 C 
HETATM    9  O   UNL     1     -42.294 -52.139  14.102  1.00  0.00    -0.273 OA
HETATM   10  H   UNL     1     -43.169 -50.918  11.270  1.00  0.00     0.171 HD
BRANCH   8  11
HETATM   11  C   UNL     1     -44.019 -52.931  12.642  1.00  0.00     0.082 C 
HETATM   12  C   UNL     1     -45.364 -52.234  12.915  1.00  0.00     0.018 C 
HETATM   13  C   UNL     1     -46.344 -52.881  13.893  1.00  0.00     0.027 C 
HETATM   14  C   UNL     1     -46.008 -54.249  14.370  1.00  0.00    -0.031 C 
HETATM   15  C   UNL     1     -44.879 -54.896  14.069  1.00  0.00    -0.030 C 
HETATM   16  C   UNL     1     -43.795 -54.341  13.209  1.00  0.00     0.041 C 
ENDBRANCH   8  11
ENDBRANCH   4   7
BRANCH   1  17
HETATM   17  C   UNL     1     -37.969 -49.536  12.577  1.00  0.00     0.160 C 
BRANCH  17  18
HETATM   18  C   UNL     1     -37.362 -50.572  11.649  1.00  0.00     0.221 C 
HETATM   19  N   UNL     1     -37.198 -50.222  10.343  1.00  0.00    -0.370 N 
HETATM   20  H   UNL     1     -36.786 -50.876   9.694  1.00  0.00     0.159 HD
HETATM   21  H   UNL     1     -37.532 -49.323   9.990  1.00  0.00     0.159 HD
HETATM   22  O   UNL     1     -36.957 -51.660  12.058  1.00  0.00    -0.273 OA
ENDBRANCH  17  18
ENDBRANCH   1  17
TORSDOF 4
ENDMDL
MODEL 4
REMARK VINA RESULT:      -5.7      3.600      5.057
REMARK  4 active torsions:
REMARK  status: ('A' for Active; 'I' for Inactive)
REMARK       I    between atoms: N_1  and  C_2 
REMARK    1  A    between atoms: C_2  and  C_4 
REMARK    2  A    between atoms: C_4  and  C_5 
REMARK    3  A    between atoms: C_8  and  N_9 
REMARK       I    between atoms: N_9  and  C_10 
REMARK    4  A    between atoms: C_10  and  C_12 
ROOT
HETATM    1  C   UNL     1     -40.014 -50.303  12.035  1.00  0.00     0.026 A 
HETATM    2  C   UNL     1     -39.412 -51.248  12.848  1.00  0.00     0.078 A 
HETATM    3  S   UNL     1     -40.542 -52.476  13.259  1.00  0.00    -0.064 SA
HETATM    4  C   UNL     1     -41.705 -51.702  12.283  1.00  0.00     0.151 A 
HETATM    5  N   UNL     1     -41.338 -50.582  11.723  1.00  0.00    -0.339 N 
ATOM      6  HN  UNL     1     -41.937 -49.997  11.140  1.00  0.00     0.168 HD
ENDROOT
BRANCH   4   7
HETATM    7  N   UNL     1     -42.911 -52.344  12.205  1.00  0.00    -0.307 N 
HETATM    8  C   UNL     1     -44.025 -51.856  12.848  1.00  0.00     0.228 C 
HETATM    9  O   UNL     1     -44.099 -50.784  13.450  1.00  0.00    -0.273 OA
HETATM   10  H   UNL     1     -42.973 -53.140  11.588  1.00  0.00     0.171 HD
BRANCH   8  11
HETATM   11  C   UNL     1     -45.247 -52.766  12.748  1.00  0.00     0.082 C 
HETATM   12  C   UNL     1     -46.382 -52.241  13.646  1.00  0.00     0.018 C 
HETATM   13  C   UNL     1     -46.919 -53.144  14.756  1.00  0.00     0.027 C 
HETATM   14  C   UNL     1     -46.437 -54.550  14.768  1.00  0.00    -0.031 C 
HETATM   15  C   UNL     1     -45.512 -55.037  13.937  1.00  0.00    -0.030 C 
HETATM   16  C   UNL     1     -44.834 -54.240  12.875  1.00  0.00     0.041 C 
ENDBRANCH   8  11
ENDBRANCH   4   7
BRANCH   1  17
HETATM   17  C   UNL     1     -39.403 -49.045  11.505  1.00  0.00     0.160 C 
BRANCH  17  18
HETATM   18  C   UNL     1     -40.320 -47.838  11.577  1.00  0.00     0.221 C 
HETATM   19  N   UNL     1     -40.175 -46.885  10.614  1.00  0.00    -0.370 N 
HETATM   20  H   UNL     1     -40.773 -46.072  10.616  1.00  0.00     0.159 HD
HETATM   21  H   UNL     1     -39.434 -46.949   9.913  1.00  0.00     0.159 HD
HETATM   22  O   UNL     1     -41.216 -47.745  12.415  1.00  0.00    -0.273 OA
ENDBRANCH  17  18
ENDBRANCH   1  17
TORSDOF 4
ENDMDL
MODEL 5
REMARK VINA RESULT:      -5.6      2.742      3.654
REMARK  4 active torsions:
REMARK  status: ('A' for Active; 'I' for Inactive)
REMARK       I    between atoms: N_1  and  C_2 
REMARK    1  A    between atoms: C_2  and  C_4 
REMARK    2  A    between atoms: C_4  and  C_5 
REMARK    3  A    between atoms: C_8  and  N_9 
REMARK       I    between atoms: N_9  and  C_10 
REMARK    4  A    between atoms: C_10  and  C_12 
ROOT
HETATM    1  C   UNL     1     -40.842 -48.259  11.153  1.00  0.00     0.026 A 
HETATM    2  C   UNL     1     -39.621 -48.494  11.762  1.00  0.00     0.078 A 
HETATM    3  S   UNL     1     -39.531 -50.128  12.290  1.00  0.00    -0.064 SA
HETATM    4  C   UNL     1     -41.071 -50.407  11.616  1.00  0.00     0.151 A 
HETATM    5  N   UNL     1     -41.665 -49.375  11.080  1.00  0.00    -0.339 N 
ATOM      6  HN  UNL     1     -42.598 -49.387  10.669  1.00  0.00     0.168 HD
ENDROOT
BRANCH   4   7
HETATM    7  N   UNL     1     -41.522 -51.694  11.723  1.00  0.00    -0.307 N 
HETATM    8  C   UNL     1     -42.488 -52.041  12.639  1.00  0.00     0.228 C 
HETATM    9  O   UNL     1     -43.110 -51.262  13.361  1.00  0.00    -0.273 OA
HETATM   10  H   UNL     1     -41.184 -52.361  11.046  1.00  0.00     0.171 HD
BRANCH   8  11
HETATM   11  C   UNL     1     -42.778 -53.540  12.698  1.00  0.00     0.082 C 
HETATM   12  C   UNL     1     -44.280 -53.805  12.484  1.00  0.00     0.018 C 
HETATM   13  C   UNL     1     -45.064 -54.522  13.582  1.00  0.00     0.027 C 
HETATM   14  C   UNL     1     -44.274 -55.091  14.706  1.00  0.00    -0.031 C 
HETATM   15  C   UNL     1     -42.956 -54.937  14.855  1.00  0.00    -0.030 C 
HETATM   16  C   UNL     1     -42.087 -54.175  13.913  1.00  0.00     0.041 C 
ENDBRANCH   8  11
ENDBRANCH   4   7
BRANCH   1  17
HETATM   17  C   UNL     1     -41.347 -46.960  10.611  1.00  0.00     0.160 C 
BRANCH  17  18
HETATM   18  C   UNL     1     -40.400 -45.794  10.827  1.00  0.00     0.221 C 
HETATM   19  N   UNL     1     -39.580 -45.455   9.793  1.00  0.00    -0.370 N 
HETATM   20  H   UNL     1     -38.943 -44.678   9.888  1.00  0.00     0.159 HD
HETATM   21  H   UNL     1     -39.557 -46.008   8.933  1.00  0.00     0.159 HD
HETATM   22  O   UNL     1     -40.414 -45.120  11.856  1.00  0.00    -0.273 OA
ENDBRANCH  17  18
ENDBRANCH   1  17
TORSDOF 4
ENDMDL
MODEL 6
REMARK VINA RESULT:      -5.6      4.371      5.317
REMARK  4 active torsions:
REMARK  status: ('A' for Active; 'I' for Inactive)
REMARK       I    between atoms: N_1  and  C_2 
REMARK    1  A    between atoms: C_2  and  C_4 
REMARK    2  A    between atoms: C_4  and  C_5 
REMARK    3  A    between atoms: C_8  and  N_9 
REMARK       I    between atoms: N_9  and  C_10 
REMARK    4  A    between atoms: C_10  and  C_12 
ROOT
HETATM    1  C   UNL     1     -39.148 -49.609  13.193  1.00  0.00     0.026 A 
HETATM    2  C   UNL     1     -39.906 -48.718  13.933  1.00  0.00     0.078 A 
HETATM    3  S   UNL     1     -41.441 -49.403  14.287  1.00  0.00    -0.064 SA
HETATM    4  C   UNL     1     -40.959 -50.835  13.500  1.00  0.00     0.151 A 
HETATM    5  N   UNL     1     -39.775 -50.824  12.952  1.00  0.00    -0.339 N 
ATOM      6  HN  UNL     1     -39.369 -51.597  12.423  1.00  0.00     0.168 HD
ENDROOT
BRANCH   4   7
HETATM    7  N   UNL     1     -41.884 -51.843  13.520  1.00  0.00    -0.307 N 
HETATM    8  C   UNL     1     -41.563 -53.118  13.113  1.00  0.00     0.228 C 
HETATM    9  O   UNL     1     -40.441 -53.514  12.799  1.00  0.00    -0.273 OA
HETATM   10  H   UNL     1     -42.784 -51.638  13.928  1.00  0.00     0.171 HD
BRANCH   8  11
HETATM   11  C   UNL     1     -42.750 -54.079  13.090  1.00  0.00     0.082 C 
HETATM   12  C   UNL     1     -43.957 -53.425  12.393  1.00  0.00     0.018 C 
HETATM   13  C   UNL     1     -45.259 -53.259  13.177  1.00  0.00     0.027 C 
HETATM   14  C   UNL     1     -45.328 -53.922  14.507  1.00  0.00    -0.031 C 
HETATM   15  C   UNL     1     -44.310 -54.564  15.083  1.00  0.00    -0.030 C 
HETATM   16  C   UNL     1     -42.957 -54.713  14.474  1.00  0.00     0.041 C 
ENDBRANCH   8  11
ENDBRANCH   4   7
BRANCH   1  17
HETATM   17  C   UNL     1     -37.781 -49.384  12.630  1.00  0.00     0.160 C 
BRANCH  17  18
HETATM   18  C   UNL     1     -37.318 -50.477  11.684  1.00  0.00     0.221 C 
HETATM   19  N   UNL     1     -37.300 -50.185  10.353  1.00  0.00    -0.370 N 
HETATM   20  H   UNL     1     -36.987 -50.878   9.690  1.00  0.00     0.159 HD
HETATM   21  H   UNL     1     -37.648 -49.290  10.003  1.00  0.00     0.159 HD
HETATM   22  O   UNL     1     -36.898 -51.559  12.090  1.00  0.00    -0.273 OA
ENDBRANCH  17  18
ENDBRANCH   1  17
TORSDOF 4
ENDMDL
MODEL 7
REMARK VINA RESULT:      -5.6      5.697      8.537
REMARK  4 active torsions:
REMARK  status: ('A' for Active; 'I' for Inactive)
REMARK       I    between atoms: N_1  and  C_2 
REMARK    1  A    between atoms: C_2  and  C_4 
REMARK    2  A    between atoms: C_4  and  C_5 
REMARK    3  A    between atoms: C_8  and  N_9 
REMARK       I    between atoms: N_9  and  C_10 
REMARK    4  A    between atoms: C_10  and  C_12 
ROOT
HETATM    1  C   UNL     1     -39.745 -54.675  15.027  1.00  0.00     0.026 A 
HETATM    2  C   UNL     1     -39.291 -53.882  13.988  1.00  0.00     0.078 A 
HETATM    3  S   UNL     1     -40.622 -53.182  13.155  1.00  0.00    -0.064 SA
HETATM    4  C   UNL     1     -41.679 -53.923  14.267  1.00  0.00     0.151 A 
HETATM    5  N   UNL     1     -41.127 -54.687  15.170  1.00  0.00    -0.339 N 
ATOM      6  HN  UNL     1     -41.637 -55.216  15.878  1.00  0.00     0.168 HD
ENDROOT
BRANCH   4   7
HETATM    7  N   UNL     1     -43.004 -53.640  14.079  1.00  0.00    -0.307 N 
HETATM    8  C   UNL     1     -43.982 -54.562  14.368  1.00  0.00     0.228 C 
HETATM    9  O   UNL     1     -43.806 -55.657  14.904  1.00  0.00    -0.273 OA
HETATM   10  H   UNL     1     -43.241 -52.698  13.803  1.00  0.00     0.171 HD
BRANCH   8  11
HETATM   11  C   UNL     1     -45.391 -54.115  13.982  1.00  0.00     0.082 C 
HETATM   12  C   UNL     1     -45.334 -53.101  12.826  1.00  0.00     0.018 C 
HETATM   13  C   UNL     1     -45.921 -51.707  13.040  1.00  0.00     0.027 C 
HETATM   14  C   UNL     1     -46.685 -51.488  14.297  1.00  0.00    -0.031 C 
HETATM   15  C   UNL     1     -46.810 -52.393  15.270  1.00  0.00    -0.030 C 
HETATM   16  C   UNL     1     -46.204 -53.755  15.234  1.00  0.00     0.041 C 
ENDBRANCH   8  11
ENDBRANCH   4   7
BRANCH   1  17
HETATM   17  C   UNL     1     -38.922 -55.508  15.957  1.00  0.00     0.160 C 
BRANCH  17  18
HETATM   18  C   UNL     1     -39.739 -56.286  16.972  1.00  0.00     0.221 C 
HETATM   19  N   UNL     1     -39.884 -55.737  18.210  1.00  0.00    -0.370 N 
HETATM   20  H   UNL     1     -40.430 -56.215  18.912  1.00  0.00     0.159 HD
HETATM   21  H   UNL     1     -39.405 -54.871  18.465  1.00  0.00     0.159 HD
HETATM   22  O   UNL     1     -40.320 -57.331  16.682  1.00  0.00    -0.273 OA
ENDBRANCH  17  18
ENDBRANCH   1  17
TORSDOF 4
ENDMDL
MODEL 8
REMARK VINA RESULT:      -5.4      4.379      5.882
REMARK  4 active torsions:
REMARK  status: ('A' for Active; 'I' for Inactive)
REMARK       I    between atoms: N_1  and  C_2 
REMARK    1  A    between atoms: C_2  and  C_4 
REMARK    2  A    between atoms: C_4  and  C_5 
REMARK    3  A    between atoms: C_8  and  N_9 
REMARK       I    between atoms: N_9  and  C_10 
REMARK    4  A    between atoms: C_10  and  C_12 
ROOT
HETATM    1  C   UNL     1     -38.933 -51.495  13.537  1.00  0.00     0.026 A 
HETATM    2  C   UNL     1     -39.071 -51.713  14.897  1.00  0.00     0.078 A 
HETATM    3  S   UNL     1     -40.636 -52.337  15.238  1.00  0.00    -0.064 SA
HETATM    4  C   UNL     1     -40.977 -52.333  13.569  1.00  0.00     0.151 A 
HETATM    5  N   UNL     1     -40.045 -51.857  12.788  1.00  0.00    -0.339 N 
ATOM      6  HN  UNL     1     -40.123 -51.766  11.775  1.00  0.00     0.168 HD
ENDROOT
BRANCH   4   7
HETATM    7  N   UNL     1     -42.209 -52.823  13.231  1.00  0.00    -0.307 N 
HETATM    8  C   UNL     1     -43.272 -51.985  12.986  1.00  0.00     0.228 C 
HETATM    9  O   UNL     1     -43.225 -50.756  12.937  1.00  0.00    -0.273 OA
HETATM   10  H   UNL     1     -42.286 -53.818  13.082  1.00  0.00     0.171 HD
BRANCH   8  11
HETATM   11  C   UNL     1     -44.593 -52.713  12.743  1.00  0.00     0.082 C 
HETATM   12  C   UNL     1     -45.727 -52.049  13.546  1.00  0.00     0.018 C 
HETATM   13  C   UNL     1     -46.490 -52.886  14.571  1.00  0.00     0.027 C 
HETATM   14  C   UNL     1     -46.210 -54.346  14.586  1.00  0.00    -0.031 C 
HETATM   15  C   UNL     1     -45.284 -54.943  13.832  1.00  0.00    -0.030 C 
HETATM   16  C   UNL     1     -44.402 -54.232  12.863  1.00  0.00     0.041 C 
ENDBRANCH   8  11
ENDBRANCH   4   7
BRANCH   1  17
HETATM   17  C   UNL     1     -37.755 -50.905  12.830  1.00  0.00     0.160 C 
BRANCH  17  18
HETATM   18  C   UNL     1     -38.124 -49.917  11.740  1.00  0.00     0.221 C 
HETATM   19  N   UNL     1     -37.465 -50.023  10.552  1.00  0.00    -0.370 N 
HETATM   20  H   UNL     1     -37.688 -49.393   9.795  1.00  0.00     0.159 HD
HETATM   21  H   UNL     1     -36.707 -50.696  10.425  1.00  0.00     0.159 HD
HETATM   22  O   UNL     1     -39.032 -49.099  11.877  1.00  0.00    -0.273 OA
ENDBRANCH  17  18
ENDBRANCH   1  17
TORSDOF 4
ENDMDL
MODEL 9
REMARK VINA RESULT:      -5.4      1.673      2.187
REMARK  4 active torsions:
REMARK  status: ('A' for Active; 'I' for Inactive)
REMARK       I    between atoms: N_1  and  C_2 
REMARK    1  A    between atoms: C_2  and  C_4 
REMARK    2  A    between atoms: C_4  and  C_5 
REMARK    3  A    between atoms: C_8  and  N_9 
REMARK       I    between atoms: N_9  and  C_10 
REMARK    4  A    between atoms: C_10  and  C_12 
ROOT
HETATM    1  C   UNL     1     -42.448 -47.101   9.850  1.00  0.00     0.026 A 
HETATM    2  C   UNL     1     -42.244 -46.152  10.836  1.00  0.00     0.078 A 
HETATM    3  S   UNL     1     -41.068 -46.713  11.958  1.00  0.00    -0.064 SA
HETATM    4  C   UNL     1     -40.876 -48.122  11.019  1.00  0.00     0.151 A 
HETATM    5  N   UNL     1     -41.651 -48.231   9.974  1.00  0.00    -0.339 N 
ATOM      6  HN  UNL     1     -41.667 -49.031   9.341  1.00  0.00     0.168 HD
ENDROOT
BRANCH   4   7
HETATM    7  N   UNL     1     -39.929 -48.995  11.478  1.00  0.00    -0.307 N 
HETATM    8  C   UNL     1     -40.271 -50.243  11.946  1.00  0.00     0.228 C 
HETATM    9  O   UNL     1     -41.396 -50.743  11.912  1.00  0.00    -0.273 OA
HETATM   10  H   UNL     1     -38.962 -48.724  11.378  1.00  0.00     0.171 HD
BRANCH   8  11
HETATM   11  C   UNL     1     -39.099 -51.030  12.528  1.00  0.00     0.082 C 
HETATM   12  C   UNL     1     -39.596 -52.023  13.594  1.00  0.00     0.018 C 
HETATM   13  C   UNL     1     -39.056 -51.904  15.019  1.00  0.00     0.027 C 
HETATM   14  C   UNL     1     -37.934 -50.951  15.232  1.00  0.00    -0.031 C 
HETATM   15  C   UNL     1     -37.440 -50.145  14.290  1.00  0.00    -0.030 C 
HETATM   16  C   UNL     1     -37.941 -50.088  12.886  1.00  0.00     0.041 C 
ENDBRANCH   8  11
ENDBRANCH   4   7
BRANCH   1  17
HETATM   17  C   UNL     1     -43.428 -47.037   8.721  1.00  0.00     0.160 C 
BRANCH  17  18
HETATM   18  C   UNL     1     -44.430 -45.903   8.841  1.00  0.00     0.221 C 
HETATM   19  N   UNL     1     -45.746 -46.241   8.934  1.00  0.00    -0.370 N 
HETATM   20  H   UNL     1     -46.446 -45.519   9.028  1.00  0.00     0.159 HD
HETATM   21  H   UNL     1     -46.050 -47.214   8.859  1.00  0.00     0.159 HD
HETATM   22  O   UNL     1     -44.081 -44.727   8.931  1.00  0.00    -0.273 OA
ENDBRANCH  17  18
ENDBRANCH   1  17
TORSDOF 4
ENDMDL
