MODEL 1
REMARK VINA RESULT:      -6.5      0.000      0.000
REMARK  5 active torsions:
REMARK  status: ('A' for Active; 'I' for Inactive)
REMARK    1  A    between atoms: N_4  and  C_9 
REMARK    2  A    between atoms: C_12  and  C_16 
REMARK       I    between atoms: C_16  and  N_18 
REMARK    3  A    between atoms: N_18  and  C_19 
REMARK    4  A    between atoms: C_19  and  C_20 
REMARK    5  A    between atoms: C_20  and  N_21 
REMARK       I    between atoms: N_21  and  C_22 
ROOT
HETATM    1  C   UNL     1     -42.917 -51.763  13.821  1.00  0.00     0.103 A 
HETATM    2  C   UNL     1     -43.632 -50.561  13.823  1.00  0.00     0.049 A 
HETATM    3  C   UNL     1     -43.277 -49.523  12.963  1.00  0.00     0.022 A 
HETATM    4  C   UNL     1     -42.219 -49.705  12.084  1.00  0.00     0.047 A 
HETATM    5  C   UNL     1     -41.526 -50.902  12.162  1.00  0.00     0.106 A 
HETATM    6  N   UNL     1     -41.847 -51.920  13.013  1.00  0.00    -0.351 N 
ATOM      7  HN  UNL     1     -41.293 -52.776  13.036  1.00  0.00     0.166 HD
ENDROOT
BRANCH   4   8
HETATM    8  C   UNL     1     -41.871 -48.612  11.148  1.00  0.00     0.253 C 
HETATM    9  O   UNL     1     -40.773 -48.071  11.219  1.00  0.00    -0.268 OA
HETATM   10  N   UNL     1     -42.851 -48.209  10.267  1.00  0.00    -0.355 N 
HETATM   11  H   UNL     1     -43.777 -48.614  10.301  1.00  0.00     0.162 HD
BRANCH  10  12
HETATM   12  C   UNL     1     -42.652 -47.056   9.401  1.00  0.00     0.142 C 
BRANCH  12  13
HETATM   13  C   UNL     1     -43.573 -47.077   8.179  1.00  0.00     0.142 C 
BRANCH  13  14
HETATM   14  N   UNL     1     -44.669 -48.022   8.312  1.00  0.00    -0.360 N 
HETATM   15  C   UNL     1     -45.922 -47.625   8.711  1.00  0.00     0.213 C 
HETATM   16  O   UNL     1     -46.215 -46.459   8.959  1.00  0.00    -0.274 OA
HETATM   17  C   UNL     1     -46.923 -48.744   8.835  1.00  0.00     0.117 C 
HETATM   18  H   UNL     1     -44.504 -48.984   8.047  1.00  0.00     0.162 HD
ENDBRANCH  13  14
ENDBRANCH  12  13
ENDBRANCH  10  12
ENDBRANCH   4   8
BRANCH   1  19
HETATM   19  N   UNL     1     -43.277 -52.759  14.694  1.00  0.00    -0.362 N 
HETATM   20  C   UNL     1     -44.632 -52.855  15.233  1.00  0.00     0.156 C 
HETATM   21  C   UNL     1     -45.009 -54.360  15.294  1.00  0.00     0.136 C 
HETATM   22  C   UNL     1     -45.270 -54.940  13.901  1.00  0.00     0.041 C 
HETATM   23  O   UNL     1     -44.021 -55.148  16.003  1.00  0.00    -0.378 OA
HETATM   24  C   UNL     1     -42.682 -54.972  15.491  1.00  0.00     0.136 C 
HETATM   25  C   UNL     1     -42.283 -53.485  15.486  1.00  0.00     0.156 C 
HETATM   26  C   UNL     1     -41.730 -55.789  16.353  1.00  0.00     0.041 C 
ENDBRANCH   1  19
TORSDOF 5
ENDMDL
MODEL 2
REMARK VINA RESULT:      -6.3      1.764      2.790
REMARK  5 active torsions:
REMARK  status: ('A' for Active; 'I' for Inactive)
REMARK    1  A    between atoms: N_4  and  C_9 
REMARK    2  A    between atoms: C_12  and  C_16 
REMARK       I    between atoms: C_16  and  N_18 
REMARK    3  A    between atoms: N_18  and  C_19 
REMARK    4  A    between atoms: C_19  and  C_20 
REMARK    5  A    between atoms: C_20  and  N_21 
REMARK       I    between atoms: N_21  and  C_22 
ROOT
HETATM    1  C   UNL     1     -41.785 -52.350  13.198  1.00  0.00     0.103 A 
HETATM    2  C   UNL     1     -40.408 -52.134  13.307  1.00  0.00     0.049 A 
HETATM    3  C   UNL     1     -39.832 -50.964  12.814  1.00  0.00     0.022 A 
HETATM    4  C   UNL     1     -40.646 -50.003  12.232  1.00  0.00     0.047 A 
HETATM    5  C   UNL     1     -41.994 -50.297  12.116  1.00  0.00     0.106 A 
HETATM    6  N   UNL     1     -42.571 -51.446  12.575  1.00  0.00    -0.351 N 
ATOM      7  HN  UNL     1     -43.569 -51.616  12.451  1.00  0.00     0.166 HD
ENDROOT
BRANCH   4   8
HETATM    8  C   UNL     1     -40.032 -48.747  11.743  1.00  0.00     0.253 C 
HETATM    9  O   UNL     1     -38.815 -48.669  11.616  1.00  0.00    -0.268 OA
HETATM   10  N   UNL     1     -40.881 -47.686  11.514  1.00  0.00    -0.355 N 
HETATM   11  H   UNL     1     -41.869 -47.758  11.720  1.00  0.00     0.162 HD
BRANCH  10  12
HETATM   12  C   UNL     1     -40.361 -46.373  11.162  1.00  0.00     0.142 C 
BRANCH  12  13
HETATM   13  C   UNL     1     -41.299 -45.604  10.229  1.00  0.00     0.142 C 
BRANCH  13  14
HETATM   14  N   UNL     1     -42.382 -46.423   9.713  1.00  0.00    -0.360 N 
HETATM   15  C   UNL     1     -43.542 -45.867   9.229  1.00  0.00     0.213 C 
HETATM   16  O   UNL     1     -43.741 -44.658   9.175  1.00  0.00    -0.274 OA
HETATM   17  C   UNL     1     -44.573 -46.868   8.775  1.00  0.00     0.117 C 
HETATM   18  H   UNL     1     -42.242 -47.423   9.664  1.00  0.00     0.162 HD
ENDBRANCH  13  14
ENDBRANCH  12  13
ENDBRANCH  10  12
ENDBRANCH   4   8
BRANCH   1  19
HETATM   19  N   UNL     1     -42.320 -53.520  13.674  1.00  0.00    -0.362 N 
HETATM   20  C   UNL     1     -41.508 -54.500  14.393  1.00  0.00     0.156 C 
HETATM   21  C   UNL     1     -42.374 -55.077  15.545  1.00  0.00     0.136 C 
HETATM   22  C   UNL     1     -42.570 -54.061  16.675  1.00  0.00     0.041 C 
HETATM   23  O   UNL     1     -43.650 -55.578  15.077  1.00  0.00    -0.378 OA
HETATM   24  C   UNL     1     -44.394 -54.609  14.308  1.00  0.00     0.136 C 
HETATM   25  C   UNL     1     -43.557 -54.080  13.128  1.00  0.00     0.156 C 
HETATM   26  C   UNL     1     -45.673 -55.270  13.816  1.00  0.00     0.041 C 
ENDBRANCH   1  19
TORSDOF 5
ENDMDL
MODEL 3
REMARK VINA RESULT:      -6.2      1.703      2.630
REMARK  5 active torsions:
REMARK  status: ('A' for Active; 'I' for Inactive)
REMARK    1  A    between atoms: N_4  and  C_9 
REMARK    2  A    between atoms: C_12  and  C_16 
REMARK       I    between atoms: C_16  and  N_18 
REMARK    3  A    between atoms: N_18  and  C_19 
REMARK    4  A    between atoms: C_19  and  C_20 
REMARK    5  A    between atoms: C_20  and  N_21 
REMARK       I    between atoms: N_21  and  C_22 
ROOT
HETATM    1  C   UNL     1     -40.805 -51.790  12.914  1.00  0.00     0.103 A 
HETATM    2  C   UNL     1     -42.028 -51.114  12.958  1.00  0.00     0.049 A 
HETATM    3  C   UNL     1     -42.192 -49.899  12.295  1.00  0.00     0.022 A 
HETATM    4  C   UNL     1     -41.131 -49.377  11.569  1.00  0.00     0.047 A 
HETATM    5  C   UNL     1     -39.935 -50.073  11.601  1.00  0.00     0.106 A 
HETATM    6  N   UNL     1     -39.752 -51.254  12.261  1.00  0.00    -0.351 N 
ATOM      7  HN  UNL     1     -38.844 -51.717  12.261  1.00  0.00     0.166 HD
ENDROOT
BRANCH   4   8
HETATM    8  C   UNL     1     -41.323 -48.104  10.837  1.00  0.00     0.253 C 
HETATM    9  O   UNL     1     -40.422 -47.273  10.808  1.00  0.00    -0.268 OA
HETATM   10  N   UNL     1     -42.561 -47.890  10.270  1.00  0.00    -0.355 N 
HETATM   11  H   UNL     1     -43.311 -48.557  10.395  1.00  0.00     0.162 HD
BRANCH  10  12
HETATM   12  C   UNL     1     -42.890 -46.617   9.647  1.00  0.00     0.142 C 
BRANCH  12  13
HETATM   13  C   UNL     1     -43.638 -46.789   8.323  1.00  0.00     0.142 C 
BRANCH  13  14
HETATM   14  N   UNL     1     -44.602 -47.875   8.355  1.00  0.00    -0.360 N 
HETATM   15  C   UNL     1     -45.915 -47.668   8.706  1.00  0.00     0.213 C 
HETATM   16  O   UNL     1     -46.372 -46.566   8.992  1.00  0.00    -0.274 OA
HETATM   17  C   UNL     1     -46.762 -48.914   8.726  1.00  0.00     0.117 C 
HETATM   18  H   UNL     1     -44.299 -48.792   8.055  1.00  0.00     0.162 HD
ENDBRANCH  13  14
ENDBRANCH  12  13
ENDBRANCH  10  12
ENDBRANCH   4   8
BRANCH   1  19
HETATM   19  N   UNL     1     -40.668 -52.974  13.593  1.00  0.00    -0.362 N 
HETATM   20  C   UNL     1     -39.361 -53.595  13.800  1.00  0.00     0.156 C 
HETATM   21  C   UNL     1     -39.345 -54.196  15.232  1.00  0.00     0.136 C 
HETATM   22  C   UNL     1     -39.259 -53.108  16.306  1.00  0.00     0.041 C 
HETATM   23  O   UNL     1     -40.474 -55.071  15.474  1.00  0.00    -0.378 OA
HETATM   24  C   UNL     1     -41.745 -54.450  15.190  1.00  0.00     0.136 C 
HETATM   25  C   UNL     1     -41.785 -53.906  13.750  1.00  0.00     0.156 C 
HETATM   26  C   UNL     1     -42.841 -55.482  15.414  1.00  0.00     0.041 C 
ENDBRANCH   1  19
TORSDOF 5
ENDMDL
MODEL 4
REMARK VINA RESULT:      -6.2      2.053      7.756
REMARK  5 active torsions:
REMARK  status: ('A' for Active; 'I' for Inactive)
REMARK    1  A    between atoms: N_4  and  C_9 
REMARK    2  A    between atoms: C_12  and  C_16 
REMARK       I    between atoms: C_16  and  N_18 
REMARK    3  A    between atoms: N_18  and  C_19 
REMARK    4  A    between atoms: C_19  and  C_20 
REMARK    5  A    between atoms: C_20  and  N_21 
REMARK       I    between atoms: N_21  and  C_22 
ROOT
HETATM    1  C   UNL     1     -41.951 -48.566  10.932  1.00  0.00     0.103 A 
HETATM    2  C   UNL     1     -42.764 -49.034  11.969  1.00  0.00     0.049 A 
HETATM    3  C   UNL     1     -42.436 -50.201  12.656  1.00  0.00     0.022 A 
HETATM    4  C   UNL     1     -41.277 -50.884  12.316  1.00  0.00     0.047 A 
HETATM    5  C   UNL     1     -40.539 -50.392  11.253  1.00  0.00     0.106 A 
HETATM    6  N   UNL     1     -40.857 -49.262  10.556  1.00  0.00    -0.351 N 
ATOM      7  HN  UNL     1     -40.283 -48.952   9.772  1.00  0.00     0.166 HD
ENDROOT
BRANCH   4   8
HETATM    8  C   UNL     1     -40.916 -52.103  13.075  1.00  0.00     0.253 C 
HETATM    9  O   UNL     1     -39.762 -52.517  13.054  1.00  0.00    -0.268 OA
HETATM   10  N   UNL     1     -41.937 -52.758  13.727  1.00  0.00    -0.355 N 
HETATM   11  H   UNL     1     -42.894 -52.440  13.644  1.00  0.00     0.162 HD
BRANCH  10  12
HETATM   12  C   UNL     1     -41.708 -54.035  14.386  1.00  0.00     0.142 C 
BRANCH  12  13
HETATM   13  C   UNL     1     -43.011 -54.771  14.706  1.00  0.00     0.142 C 
BRANCH  13  14
HETATM   14  N   UNL     1     -44.182 -53.916  14.611  1.00  0.00    -0.360 N 
HETATM   15  C   UNL     1     -44.858 -53.743  13.427  1.00  0.00     0.213 C 
HETATM   16  O   UNL     1     -44.545 -54.304  12.382  1.00  0.00    -0.274 OA
HETATM   17  C   UNL     1     -46.021 -52.789  13.505  1.00  0.00     0.117 C 
HETATM   18  H   UNL     1     -44.530 -53.488  15.459  1.00  0.00     0.162 HD
ENDBRANCH  13  14
ENDBRANCH  12  13
ENDBRANCH  10  12
ENDBRANCH   4   8
BRANCH   1  19
HETATM   19  N   UNL     1     -42.311 -47.426  10.260  1.00  0.00    -0.362 N 
HETATM   20  C   UNL     1     -42.773 -47.464   8.874  1.00  0.00     0.156 C 
HETATM   21  C   UNL     1     -43.925 -46.433   8.732  1.00  0.00     0.136 C 
HETATM   22  C   UNL     1     -45.208 -46.911   9.419  1.00  0.00     0.041 C 
HETATM   23  O   UNL     1     -43.547 -45.116   9.205  1.00  0.00    -0.378 OA
HETATM   24  C   UNL     1     -43.026 -45.125  10.551  1.00  0.00     0.136 C 
HETATM   25  C   UNL     1     -41.844 -46.104  10.680  1.00  0.00     0.156 C 
HETATM   26  C   UNL     1     -42.602 -43.708  10.908  1.00  0.00     0.041 C 
ENDBRANCH   1  19
TORSDOF 5
ENDMDL
MODEL 5
REMARK VINA RESULT:      -6.0      4.114      6.239
REMARK  5 active torsions:
REMARK  status: ('A' for Active; 'I' for Inactive)
REMARK    1  A    between atoms: N_4  and  C_9 
REMARK    2  A    between atoms: C_12  and  C_16 
REMARK       I    between atoms: C_16  and  N_18 
REMARK    3  A    between atoms: N_18  and  C_19 
REMARK    4  A    between atoms: C_19  and  C_20 
REMARK    5  A    between atoms: C_20  and  N_21 
REMARK       I    between atoms: N_21  and  C_22 
ROOT
HETATM    1  C   UNL     1     -40.670 -48.817  11.380  1.00  0.00     0.103 A 
HETATM    2  C   UNL     1     -40.122 -47.543  11.556  1.00  0.00     0.049 A 
HETATM    3  C   UNL     1     -40.826 -46.407  11.160  1.00  0.00     0.022 A 
HETATM    4  C   UNL     1     -42.090 -46.554  10.608  1.00  0.00     0.047 A 
HETATM    5  C   UNL     1     -42.557 -47.844  10.421  1.00  0.00     0.106 A 
HETATM    6  N   UNL     1     -41.873 -48.968  10.785  1.00  0.00    -0.351 N 
ATOM      7  HN  UNL     1     -42.260 -49.895  10.611  1.00  0.00     0.166 HD
ENDROOT
BRANCH   4   8
HETATM    8  C   UNL     1     -42.848 -45.341  10.222  1.00  0.00     0.253 C 
HETATM    9  O   UNL     1     -43.417 -45.293   9.137  1.00  0.00    -0.268 OA
HETATM   10  N   UNL     1     -42.815 -44.279  11.100  1.00  0.00    -0.355 N 
HETATM   11  H   UNL     1     -42.256 -44.320  11.943  1.00  0.00     0.162 HD
BRANCH  10  12
HETATM   12  C   UNL     1     -43.414 -43.000  10.752  1.00  0.00     0.142 C 
BRANCH  12  13
HETATM   13  C   UNL     1     -43.160 -41.926  11.812  1.00  0.00     0.142 C 
BRANCH  13  14
HETATM   14  N   UNL     1     -41.885 -42.091  12.490  1.00  0.00    -0.360 N 
HETATM   15  C   UNL     1     -40.847 -41.210  12.303  1.00  0.00     0.213 C 
HETATM   16  O   UNL     1     -40.921 -40.222  11.580  1.00  0.00    -0.274 OA
HETATM   17  C   UNL     1     -39.587 -41.560  13.052  1.00  0.00     0.117 C 
HETATM   18  H   UNL     1     -41.793 -42.846  13.156  1.00  0.00     0.162 HD
ENDBRANCH  13  14
ENDBRANCH  12  13
ENDBRANCH  10  12
ENDBRANCH   4   8
BRANCH   1  19
HETATM   19  N   UNL     1     -39.945 -49.918  11.761  1.00  0.00    -0.362 N 
HETATM   20  C   UNL     1     -38.501 -50.000  11.543  1.00  0.00     0.156 C 
HETATM   21  C   UNL     1     -37.875 -50.690  12.785  1.00  0.00     0.136 C 
HETATM   22  C   UNL     1     -37.875 -49.770  14.010  1.00  0.00     0.041 C 
HETATM   23  O   UNL     1     -38.512 -51.955  13.092  1.00  0.00    -0.378 OA
HETATM   24  C   UNL     1     -39.945 -51.851  13.227  1.00  0.00     0.136 C 
HETATM   25  C   UNL     1     -40.575 -51.222  11.971  1.00  0.00     0.156 C 
HETATM   26  C   UNL     1     -40.504 -53.245  13.477  1.00  0.00     0.041 C 
ENDBRANCH   1  19
TORSDOF 5
ENDMDL
MODEL 6
REMARK VINA RESULT:      -6.0      3.110      4.395
REMARK  5 active torsions:
REMARK  status: ('A' for Active; 'I' for Inactive)
REMARK    1  A    between atoms: N_4  and  C_9 
REMARK    2  A    between atoms: C_12  and  C_16 
REMARK       I    between atoms: C_16  and  N_18 
REMARK    3  A    between atoms: N_18  and  C_19 
REMARK    4  A    between atoms: C_19  and  C_20 
REMARK    5  A    between atoms: C_20  and  N_21 
REMARK       I    between atoms: N_21  and  C_22 
ROOT
HETATM    1  C   UNL     1     -41.884 -51.245  12.216  1.00  0.00     0.103 A 
HETATM    2  C   UNL     1     -42.727 -50.204  12.616  1.00  0.00     0.049 A 
HETATM    3  C   UNL     1     -42.507 -48.901  12.170  1.00  0.00     0.022 A 
HETATM    4  C   UNL     1     -41.453 -48.653  11.303  1.00  0.00     0.047 A 
HETATM    5  C   UNL     1     -40.630 -49.719  10.979  1.00  0.00     0.106 A 
HETATM    6  N   UNL     1     -40.819 -50.996  11.424  1.00  0.00    -0.351 N 
ATOM      7  HN  UNL     1     -40.174 -51.741  11.164  1.00  0.00     0.166 HD
ENDROOT
BRANCH   4   8
HETATM    8  C   UNL     1     -41.247 -47.274  10.804  1.00  0.00     0.253 C 
HETATM    9  O   UNL     1     -42.173 -46.670  10.273  1.00  0.00    -0.268 OA
HETATM   10  N   UNL     1     -39.974 -46.756  10.906  1.00  0.00    -0.355 N 
HETATM   11  H   UNL     1     -39.213 -47.319  11.263  1.00  0.00     0.162 HD
BRANCH  10  12
HETATM   12  C   UNL     1     -39.641 -45.465  10.324  1.00  0.00     0.142 C 
BRANCH  12  13
HETATM   13  C   UNL     1     -39.736 -44.324  11.340  1.00  0.00     0.142 C 
BRANCH  13  14
HETATM   14  N   UNL     1     -40.821 -43.401  11.055  1.00  0.00    -0.360 N 
HETATM   15  C   UNL     1     -40.866 -42.143  11.608  1.00  0.00     0.213 C 
HETATM   16  O   UNL     1     -39.997 -41.702  12.353  1.00  0.00    -0.274 OA
HETATM   17  C   UNL     1     -42.084 -41.340  11.236  1.00  0.00     0.117 C 
HETATM   18  H   UNL     1     -41.526 -43.685  10.387  1.00  0.00     0.162 HD
ENDBRANCH  13  14
ENDBRANCH  12  13
ENDBRANCH  10  12
ENDBRANCH   4   8
BRANCH   1  19
HETATM   19  N   UNL     1     -42.113 -52.512  12.689  1.00  0.00    -0.362 N 
HETATM   20  C   UNL     1     -41.017 -53.438  12.970  1.00  0.00     0.156 C 
HETATM   21  C   UNL     1     -41.381 -54.222  14.260  1.00  0.00     0.136 C 
HETATM   22  C   UNL     1     -41.272 -53.344  15.511  1.00  0.00     0.041 C 
HETATM   23  O   UNL     1     -42.688 -54.842  14.178  1.00  0.00    -0.378 OA
HETATM   24  C   UNL     1     -43.735 -53.913  13.826  1.00  0.00     0.136 C 
HETATM   25  C   UNL     1     -43.405 -53.178  12.514  1.00  0.00     0.156 C 
HETATM   26  C   UNL     1     -45.039 -54.689  13.702  1.00  0.00     0.041 C 
ENDBRANCH   1  19
TORSDOF 5
ENDMDL
MODEL 7
REMARK VINA RESULT:      -5.9      2.833      4.427
REMARK  5 active torsions:
REMARK  status: ('A' for Active; 'I' for Inactive)
REMARK    1  A    between atoms: N_4  and  C_9 
REMARK    2  A    between atoms: C_12  and  C_16 
REMARK       I    between atoms: C_16  and  N_18 
REMARK    3  A    between atoms: N_18  and  C_19 
REMARK    4  A    between atoms: C_19  and  C_20 
REMARK    5  A    between atoms: C_20  and  N_21 
REMARK       I    between atoms: N_21  and  C_22 
ROOT
HETATM    1  C   UNL     1     -41.825 -51.187  12.204  1.00  0.00     0.103 A 
HETATM    2  C   UNL     1     -42.667 -50.158  12.635  1.00  0.00     0.049 A 
HETATM    3  C   UNL     1     -42.489 -48.855  12.172  1.00  0.00     0.022 A 
HETATM    4  C   UNL     1     -41.478 -48.594  11.259  1.00  0.00     0.047 A 
HETATM    5  C   UNL     1     -40.653 -49.648  10.906  1.00  0.00     0.106 A 
HETATM    6  N   UNL     1     -40.800 -50.926  11.365  1.00  0.00    -0.351 N 
ATOM      7  HN  UNL     1     -40.154 -51.661  11.081  1.00  0.00     0.166 HD
ENDROOT
BRANCH   4   8
HETATM    8  C   UNL     1     -41.317 -47.215  10.744  1.00  0.00     0.253 C 
HETATM    9  O   UNL     1     -42.286 -46.614  10.292  1.00  0.00    -0.268 OA
HETATM   10  N   UNL     1     -40.041 -46.695  10.739  1.00  0.00    -0.355 N 
HETATM   11  H   UNL     1     -39.252 -47.256  11.031  1.00  0.00     0.162 HD
BRANCH  10  12
HETATM   12  C   UNL     1     -39.761 -45.403  10.131  1.00  0.00     0.142 C 
BRANCH  12  13
HETATM   13  C   UNL     1     -39.966 -44.241  11.106  1.00  0.00     0.142 C 
BRANCH  13  14
HETATM   14  N   UNL     1     -39.428 -44.510  12.428  1.00  0.00    -0.360 N 
HETATM   15  C   UNL     1     -40.246 -44.743  13.508  1.00  0.00     0.213 C 
HETATM   16  O   UNL     1     -41.470 -44.765  13.436  1.00  0.00    -0.274 OA
HETATM   17  C   UNL     1     -39.517 -44.960  14.809  1.00  0.00     0.117 C 
HETATM   18  H   UNL     1     -38.424 -44.578  12.530  1.00  0.00     0.162 HD
ENDBRANCH  13  14
ENDBRANCH  12  13
ENDBRANCH  10  12
ENDBRANCH   4   8
BRANCH   1  19
HETATM   19  N   UNL     1     -42.012 -52.455  12.693  1.00  0.00    -0.362 N 
HETATM   20  C   UNL     1     -40.888 -53.358  12.939  1.00  0.00     0.156 C 
HETATM   21  C   UNL     1     -41.188 -54.140  14.247  1.00  0.00     0.136 C 
HETATM   22  C   UNL     1     -41.049 -53.251  15.487  1.00  0.00     0.041 C 
HETATM   23  O   UNL     1     -42.485 -54.785  14.218  1.00  0.00    -0.378 OA
HETATM   24  C   UNL     1     -43.563 -53.878  13.901  1.00  0.00     0.136 C 
HETATM   25  C   UNL     1     -43.296 -53.146  12.572  1.00  0.00     0.156 C 
HETATM   26  C   UNL     1     -44.855 -54.679  13.831  1.00  0.00     0.041 C 
ENDBRANCH   1  19
TORSDOF 5
ENDMDL
MODEL 8
REMARK VINA RESULT:      -5.8      2.262      2.693
REMARK  5 active torsions:
REMARK  status: ('A' for Active; 'I' for Inactive)
REMARK    1  A    between atoms: N_4  and  C_9 
REMARK    2  A    between atoms: C_12  and  C_16 
REMARK       I    between atoms: C_16  and  N_18 
REMARK    3  A    between atoms: N_18  and  C_19 
REMARK    4  A    between atoms: C_19  and  C_20 
REMARK    5  A    between atoms: C_20  and  N_21 
REMARK       I    between atoms: N_21  and  C_22 
ROOT
HETATM    1  C   UNL     1     -44.448 -51.036  14.436  1.00  0.00     0.103 A 
HETATM    2  C   UNL     1     -43.881 -50.199  15.401  1.00  0.00     0.049 A 
HETATM    3  C   UNL     1     -43.088 -49.116  15.023  1.00  0.00     0.022 A 
HETATM    4  C   UNL     1     -42.888 -48.864  13.674  1.00  0.00     0.047 A 
HETATM    5  C   UNL     1     -43.442 -49.755  12.771  1.00  0.00     0.106 A 
HETATM    6  N   UNL     1     -44.203 -50.832  13.124  1.00  0.00    -0.351 N 
ATOM      7  HN  UNL     1     -44.576 -51.464  12.416  1.00  0.00     0.166 HD
ENDROOT
BRANCH   4   8
HETATM    8  C   UNL     1     -42.075 -47.691  13.279  1.00  0.00     0.253 C 
HETATM    9  O   UNL     1     -42.153 -46.648  13.919  1.00  0.00    -0.268 OA
HETATM   10  N   UNL     1     -41.304 -47.819  12.143  1.00  0.00    -0.355 N 
HETATM   11  H   UNL     1     -41.337 -48.663  11.587  1.00  0.00     0.162 HD
BRANCH  10  12
HETATM   12  C   UNL     1     -40.576 -46.682  11.600  1.00  0.00     0.142 C 
BRANCH  12  13
HETATM   13  C   UNL     1     -41.320 -46.011  10.442  1.00  0.00     0.142 C 
BRANCH  13  14
HETATM   14  N   UNL     1     -42.160 -46.933   9.699  1.00  0.00    -0.360 N 
HETATM   15  C   UNL     1     -43.229 -46.498   8.952  1.00  0.00     0.213 C 
HETATM   16  O   UNL     1     -43.537 -45.316   8.838  1.00  0.00    -0.274 OA
HETATM   17  C   UNL     1     -44.013 -47.597   8.282  1.00  0.00     0.117 C 
HETATM   18  H   UNL     1     -41.907 -47.913   9.695  1.00  0.00     0.162 HD
ENDBRANCH  13  14
ENDBRANCH  12  13
ENDBRANCH  10  12
ENDBRANCH   4   8
BRANCH   1  19
HETATM   19  N   UNL     1     -45.207 -52.107  14.839  1.00  0.00    -0.362 N 
HETATM   20  C   UNL     1     -46.076 -52.826  13.910  1.00  0.00     0.156 C 
HETATM   21  C   UNL     1     -45.985 -54.338  14.253  1.00  0.00     0.136 C 
HETATM   22  C   UNL     1     -44.641 -54.939  13.830  1.00  0.00     0.041 C 
HETATM   23  O   UNL     1     -46.249 -54.602  15.653  1.00  0.00    -0.378 OA
HETATM   24  C   UNL     1     -45.423 -53.820  16.544  1.00  0.00     0.136 C 
HETATM   25  C   UNL     1     -45.559 -52.315  16.244  1.00  0.00     0.156 C 
HETATM   26  C   UNL     1     -45.838 -54.130  17.975  1.00  0.00     0.041 C 
ENDBRANCH   1  19
TORSDOF 5
ENDMDL
MODEL 9
REMARK VINA RESULT:      -5.8      2.574      3.534
REMARK  5 active torsions:
REMARK  status: ('A' for Active; 'I' for Inactive)
REMARK    1  A    between atoms: N_4  and  C_9 
REMARK    2  A    between atoms: C_12  and  C_16 
REMARK       I    between atoms: C_16  and  N_18 
REMARK    3  A    between atoms: N_18  and  C_19 
REMARK    4  A    between atoms: C_19  and  C_20 
REMARK    5  A    between atoms: C_20  and  N_21 
REMARK       I    between atoms: N_21  and  C_22 
ROOT
HETATM    1  C   UNL     1     -40.106 -51.698  13.706  1.00  0.00     0.103 A 
HETATM    2  C   UNL     1     -39.731 -50.688  14.598  1.00  0.00     0.049 A 
HETATM    3  C   UNL     1     -39.629 -49.365  14.171  1.00  0.00     0.022 A 
HETATM    4  C   UNL     1     -39.929 -49.056  12.852  1.00  0.00     0.047 A 
HETATM    5  C   UNL     1     -40.252 -50.107  12.010  1.00  0.00     0.106 A 
HETATM    6  N   UNL     1     -40.336 -51.411  12.407  1.00  0.00    -0.351 N 
ATOM      7  HN  UNL     1     -40.566 -52.147  11.741  1.00  0.00     0.166 HD
ENDROOT
BRANCH   4   8
HETATM    8  C   UNL     1     -39.855 -47.644  12.413  1.00  0.00     0.253 C 
HETATM    9  O   UNL     1     -39.652 -46.757  13.236  1.00  0.00    -0.268 OA
HETATM   10  N   UNL     1     -40.090 -47.391  11.079  1.00  0.00    -0.355 N 
HETATM   11  H   UNL     1     -40.348 -48.138  10.448  1.00  0.00     0.162 HD
BRANCH  10  12
HETATM   12  C   UNL     1     -40.172 -46.027  10.578  1.00  0.00     0.142 C 
BRANCH  12  13
HETATM   13  C   UNL     1     -41.616 -45.530  10.471  1.00  0.00     0.142 C 
BRANCH  13  14
HETATM   14  N   UNL     1     -42.318 -46.070   9.320  1.00  0.00    -0.360 N 
HETATM   15  C   UNL     1     -43.046 -47.233   9.396  1.00  0.00     0.213 C 
HETATM   16  O   UNL     1     -43.178 -47.881  10.430  1.00  0.00    -0.274 OA
HETATM   17  C   UNL     1     -43.671 -47.666   8.096  1.00  0.00     0.117 C 
HETATM   18  H   UNL     1     -42.306 -45.537   8.460  1.00  0.00     0.162 HD
ENDBRANCH  13  14
ENDBRANCH  12  13
ENDBRANCH  10  12
ENDBRANCH   4   8
BRANCH   1  19
HETATM   19  N   UNL     1     -40.176 -52.994  14.152  1.00  0.00    -0.362 N 
HETATM   20  C   UNL     1     -38.996 -53.855  14.199  1.00  0.00     0.156 C 
HETATM   21  C   UNL     1     -39.085 -54.707  15.494  1.00  0.00     0.136 C 
HETATM   22  C   UNL     1     -38.813 -53.870  16.747  1.00  0.00     0.041 C 
HETATM   23  O   UNL     1     -40.348 -55.408  15.607  1.00  0.00    -0.378 OA
HETATM   24  C   UNL     1     -41.493 -54.537  15.483  1.00  0.00     0.136 C 
HETATM   25  C   UNL     1     -41.438 -53.735  14.169  1.00  0.00     0.156 C 
HETATM   26  C   UNL     1     -42.751 -55.391  15.547  1.00  0.00     0.041 C 
ENDBRANCH   1  19
TORSDOF 5
ENDMDL
