MODEL 1
REMARK VINA RESULT:      -6.2      0.000      0.000
REMARK  6 active torsions:
REMARK  status: ('A' for Active; 'I' for Inactive)
REMARK    1  A    between atoms: C_2  and  C_3 
REMARK    2  A    between atoms: C_2  and  N_5 
REMARK    3  A    between atoms: C_2  and  C_19 
REMARK    4  A    between atoms: C_3  and  O_4 
REMARK       I    between atoms: N_5  and  C_6 
REMARK       I    between atoms: C_6  and  N_8 
REMARK    5  A    between atoms: N_8  and  C_9 
REMARK    6  A    between atoms: C_14  and  C_16 
ROOT
HETATM    1  N   UNL     1     -43.306 -53.036  13.786  1.00  0.00    -0.331 N 
HETATM    2  C   UNL     1     -42.375 -54.030  13.893  1.00  0.00     0.322 C 
HETATM    3  O   UNL     1     -42.544 -55.078  14.514  1.00  0.00    -0.247 OA
HETATM    4  N   UNL     1     -41.145 -53.767  13.356  1.00  0.00    -0.288 N 
HETATM    5  H   UNL     1     -43.154 -52.415  13.000  1.00  0.00     0.165 HD
HETATM    6  H   UNL     1     -40.409 -54.417  13.585  1.00  0.00     0.172 HD
ENDROOT
BRANCH   1   7
HETATM    7  C   UNL     1     -44.688 -53.058  14.289  1.00  0.00     0.055 C 
HETATM    8  C   UNL     1     -45.375 -54.251  13.585  1.00  0.00     0.041 C 
BRANCH   7   9
HETATM    9  C   UNL     1     -44.716 -53.281  15.830  1.00  0.00     0.195 C 
BRANCH   9  10
HETATM   10  O   UNL     1     -45.028 -54.630  16.187  1.00  0.00    -0.398 OA
HETATM   11  H   UNL     1     -44.203 -55.142  16.150  1.00  0.00     0.209 HD
ENDBRANCH   9  10
ENDBRANCH   7   9
BRANCH   7  12
HETATM   12  C   UNL     1     -45.355 -51.727  13.936  1.00  0.00     0.015 A 
HETATM   13  C   UNL     1     -46.757 -51.392  14.391  1.00  0.00     0.007 A 
HETATM   14  C   UNL     1     -46.474 -51.571  12.927  1.00  0.00     0.007 A 
ENDBRANCH   7  12
ENDBRANCH   1   7
BRANCH   4  15
HETATM   15  C   UNL     1     -40.848 -52.655  12.619  1.00  0.00     0.169 A 
HETATM   16  N   UNL     1     -41.160 -52.411  11.367  1.00  0.00    -0.279 N 
HETATM   17  N   UNL     1     -40.777 -51.153  10.975  1.00  0.00    -0.291 N 
ATOM     18  HN  UNL     1     -41.632 -53.078  10.757  1.00  0.00     0.189 HD
HETATM   19  C   UNL     1     -40.199 -50.488  11.957  1.00  0.00     0.134 A 
ATOM     20  HN  UNL     1     -40.921 -50.777  10.038  1.00  0.00     0.187 HD
HETATM   21  S   UNL     1     -40.006 -51.405  13.408  1.00  0.00    -0.032 SA
BRANCH  19  22
HETATM   22  C   UNL     1     -39.770 -49.068  11.872  1.00  0.00     0.411 C 
HETATM   23  F   UNL     1     -38.473 -48.963  11.469  1.00  0.00    -0.207 F 
HETATM   24  F   UNL     1     -40.508 -48.366  10.969  1.00  0.00    -0.207 F 
ENDBRANCH  19  22
ENDBRANCH   4  15
TORSDOF 6
ENDMDL
MODEL 2
REMARK VINA RESULT:      -5.7      2.231      2.898
REMARK  6 active torsions:
REMARK  status: ('A' for Active; 'I' for Inactive)
REMARK    1  A    between atoms: C_2  and  C_3 
REMARK    2  A    between atoms: C_2  and  N_5 
REMARK    3  A    between atoms: C_2  and  C_19 
REMARK    4  A    between atoms: C_3  and  O_4 
REMARK       I    between atoms: N_5  and  C_6 
REMARK       I    between atoms: C_6  and  N_8 
REMARK    5  A    between atoms: N_8  and  C_9 
REMARK    6  A    between atoms: C_14  and  C_16 
ROOT
HETATM    1  N   UNL     1     -42.079 -51.368  12.552  1.00  0.00    -0.331 N 
HETATM    2  C   UNL     1     -40.914 -51.916  12.097  1.00  0.00     0.322 C 
HETATM    3  O   UNL     1     -40.579 -53.085  12.278  1.00  0.00    -0.247 OA
HETATM    4  N   UNL     1     -40.034 -51.057  11.499  1.00  0.00    -0.288 N 
HETATM    5  H   UNL     1     -42.357 -50.528  12.058  1.00  0.00     0.165 HD
HETATM    6  H   UNL     1     -39.109 -51.417  11.323  1.00  0.00     0.172 HD
ENDROOT
BRANCH   1   7
HETATM    7  C   UNL     1     -43.178 -52.064  13.240  1.00  0.00     0.055 C 
HETATM    8  C   UNL     1     -43.619 -53.201  12.290  1.00  0.00     0.041 C 
BRANCH   7   9
HETATM    9  C   UNL     1     -42.692 -52.674  14.588  1.00  0.00     0.195 C 
BRANCH   9  10
HETATM   10  O   UNL     1     -42.406 -54.072  14.490  1.00  0.00    -0.398 OA
HETATM   11  H   UNL     1     -42.649 -54.359  13.594  1.00  0.00     0.209 HD
ENDBRANCH   9  10
ENDBRANCH   7   9
BRANCH   7  12
HETATM   12  C   UNL     1     -44.306 -51.061  13.492  1.00  0.00     0.015 A 
HETATM   13  C   UNL     1     -45.223 -51.176  14.688  1.00  0.00     0.007 A 
HETATM   14  C   UNL     1     -45.779 -51.366  13.306  1.00  0.00     0.007 A 
ENDBRANCH   7  12
ENDBRANCH   1   7
BRANCH   4  15
HETATM   15  C   UNL     1     -40.308 -49.748  11.216  1.00  0.00     0.169 A 
HETATM   16  N   UNL     1     -41.064 -49.273  10.253  1.00  0.00    -0.279 N 
HETATM   17  N   UNL     1     -41.186 -47.908  10.319  1.00  0.00    -0.291 N 
ATOM     18  HN  UNL     1     -41.508 -49.851   9.540  1.00  0.00     0.189 HD
HETATM   19  C   UNL     1     -40.525 -47.405  11.344  1.00  0.00     0.134 A 
ATOM     20  HN  UNL     1     -41.724 -47.349   9.657  1.00  0.00     0.187 HD
HETATM   21  S   UNL     1     -39.629 -48.576  12.244  1.00  0.00    -0.032 SA
BRANCH  19  22
HETATM   22  C   UNL     1     -40.550 -45.973  11.739  1.00  0.00     0.411 C 
HETATM   23  F   UNL     1     -39.511 -45.285  11.187  1.00  0.00    -0.207 F 
HETATM   24  F   UNL     1     -41.685 -45.349  11.321  1.00  0.00    -0.207 F 
ENDBRANCH  19  22
ENDBRANCH   4  15
TORSDOF 6
ENDMDL
MODEL 3
REMARK VINA RESULT:      -5.7      4.480      6.869
REMARK  6 active torsions:
REMARK  status: ('A' for Active; 'I' for Inactive)
REMARK    1  A    between atoms: C_2  and  C_3 
REMARK    2  A    between atoms: C_2  and  N_5 
REMARK    3  A    between atoms: C_2  and  C_19 
REMARK    4  A    between atoms: C_3  and  O_4 
REMARK       I    between atoms: N_5  and  C_6 
REMARK       I    between atoms: C_6  and  N_8 
REMARK    5  A    between atoms: N_8  and  C_9 
REMARK    6  A    between atoms: C_14  and  C_16 
ROOT
HETATM    1  N   UNL     1     -39.330 -50.665  12.155  1.00  0.00    -0.331 N 
HETATM    2  C   UNL     1     -40.397 -50.232  11.420  1.00  0.00     0.322 C 
HETATM    3  O   UNL     1     -40.449 -49.150  10.840  1.00  0.00    -0.247 OA
HETATM    4  N   UNL     1     -41.508 -51.030  11.439  1.00  0.00    -0.288 N 
HETATM    5  H   UNL     1     -39.302 -51.670  12.285  1.00  0.00     0.165 HD
HETATM    6  H   UNL     1     -42.349 -50.633  11.049  1.00  0.00     0.172 HD
ENDROOT
BRANCH   1   7
HETATM    7  C   UNL     1     -38.032 -49.992  12.314  1.00  0.00     0.055 C 
HETATM    8  C   UNL     1     -37.179 -50.924  13.206  1.00  0.00     0.041 C 
BRANCH   7   9
HETATM    9  C   UNL     1     -37.329 -49.807  10.937  1.00  0.00     0.195 C 
BRANCH   9  10
HETATM   10  O   UNL     1     -36.957 -51.051  10.336  1.00  0.00    -0.398 OA
HETATM   11  H   UNL     1     -37.769 -51.571  10.211  1.00  0.00     0.209 HD
ENDBRANCH   9  10
ENDBRANCH   7   9
BRANCH   7  12
HETATM   12  C   UNL     1     -38.267 -48.631  12.973  1.00  0.00     0.015 A 
HETATM   13  C   UNL     1     -37.493 -48.192  14.195  1.00  0.00     0.007 A 
HETATM   14  C   UNL     1     -38.972 -48.433  14.300  1.00  0.00     0.007 A 
ENDBRANCH   7  12
ENDBRANCH   1   7
BRANCH   4  15
HETATM   15  C   UNL     1     -41.559 -52.265  12.021  1.00  0.00     0.169 A 
HETATM   16  N   UNL     1     -40.980 -53.372  11.616  1.00  0.00    -0.279 N 
HETATM   17  N   UNL     1     -41.175 -54.408  12.494  1.00  0.00    -0.291 N 
ATOM     18  HN  UNL     1     -40.447 -53.452  10.750  1.00  0.00     0.189 HD
HETATM   19  C   UNL     1     -41.886 -54.037  13.541  1.00  0.00     0.134 A 
ATOM     20  HN  UNL     1     -40.813 -55.351  12.355  1.00  0.00     0.187 HD
HETATM   21  S   UNL     1     -42.443 -52.403  13.468  1.00  0.00    -0.032 SA
BRANCH  19  22
HETATM   22  C   UNL     1     -42.175 -54.906  14.711  1.00  0.00     0.411 C 
HETATM   23  F   UNL     1     -42.108 -54.206  15.879  1.00  0.00    -0.207 F 
HETATM   24  F   UNL     1     -43.428 -55.435  14.656  1.00  0.00    -0.207 F 
ENDBRANCH  19  22
ENDBRANCH   4  15
TORSDOF 6
ENDMDL
MODEL 4
REMARK VINA RESULT:      -5.7      1.906      2.343
REMARK  6 active torsions:
REMARK  status: ('A' for Active; 'I' for Inactive)
REMARK    1  A    between atoms: C_2  and  C_3 
REMARK    2  A    between atoms: C_2  and  N_5 
REMARK    3  A    between atoms: C_2  and  C_19 
REMARK    4  A    between atoms: C_3  and  O_4 
REMARK       I    between atoms: N_5  and  C_6 
REMARK       I    between atoms: C_6  and  N_8 
REMARK    5  A    between atoms: N_8  and  C_9 
REMARK    6  A    between atoms: C_14  and  C_16 
ROOT
HETATM    1  N   UNL     1     -44.213 -52.530  13.480  1.00  0.00    -0.331 N 
HETATM    2  C   UNL     1     -44.069 -53.746  12.874  1.00  0.00     0.322 C 
HETATM    3  O   UNL     1     -44.948 -54.603  12.817  1.00  0.00    -0.247 OA
HETATM    4  N   UNL     1     -42.819 -54.043  12.403  1.00  0.00    -0.288 N 
HETATM    5  H   UNL     1     -43.547 -51.834  13.165  1.00  0.00     0.165 HD
HETATM    6  H   UNL     1     -42.665 -54.998  12.119  1.00  0.00     0.172 HD
ENDROOT
BRANCH   1   7
HETATM    7  C   UNL     1     -45.437 -51.978  14.080  1.00  0.00     0.055 C 
HETATM    8  C   UNL     1     -46.366 -51.624  12.895  1.00  0.00     0.041 C 
BRANCH   7   9
HETATM    9  C   UNL     1     -46.136 -53.032  14.988  1.00  0.00     0.195 C 
BRANCH   9  10
HETATM   10  O   UNL     1     -47.238 -53.675  14.342  1.00  0.00    -0.398 OA
HETATM   11  H   UNL     1     -47.067 -53.660  13.385  1.00  0.00     0.209 HD
ENDBRANCH   9  10
ENDBRANCH   7   9
BRANCH   7  12
HETATM   12  C   UNL     1     -45.062 -50.741  14.899  1.00  0.00     0.015 A 
HETATM   13  C   UNL     1     -43.673 -50.146  14.854  1.00  0.00     0.007 A 
HETATM   14  C   UNL     1     -44.175 -50.766  16.127  1.00  0.00     0.007 A 
ENDBRANCH   7  12
ENDBRANCH   1   7
BRANCH   4  15
HETATM   15  C   UNL     1     -41.774 -53.163  12.383  1.00  0.00     0.169 A 
HETATM   16  N   UNL     1     -41.420 -52.355  11.410  1.00  0.00    -0.279 N 
HETATM   17  N   UNL     1     -40.372 -51.545  11.768  1.00  0.00    -0.291 N 
ATOM     18  HN  UNL     1     -41.872 -52.332  10.496  1.00  0.00     0.189 HD
HETATM   19  C   UNL     1     -39.983 -51.765  13.009  1.00  0.00     0.134 A 
ATOM     20  HN  UNL     1     -39.945 -50.856  11.149  1.00  0.00     0.187 HD
HETATM   21  S   UNL     1     -40.825 -53.054  13.791  1.00  0.00    -0.032 SA
BRANCH  19  22
HETATM   22  C   UNL     1     -38.941 -50.975  13.715  1.00  0.00     0.411 C 
HETATM   23  F   UNL     1     -37.728 -51.093  13.106  1.00  0.00    -0.207 F 
HETATM   24  F   UNL     1     -39.232 -49.646  13.731  1.00  0.00    -0.207 F 
ENDBRANCH  19  22
ENDBRANCH   4  15
TORSDOF 6
ENDMDL
MODEL 5
REMARK VINA RESULT:      -5.6      3.969      5.990
REMARK  6 active torsions:
REMARK  status: ('A' for Active; 'I' for Inactive)
REMARK    1  A    between atoms: C_2  and  C_3 
REMARK    2  A    between atoms: C_2  and  N_5 
REMARK    3  A    between atoms: C_2  and  C_19 
REMARK    4  A    between atoms: C_3  and  O_4 
REMARK       I    between atoms: N_5  and  C_6 
REMARK       I    between atoms: C_6  and  N_8 
REMARK    5  A    between atoms: N_8  and  C_9 
REMARK    6  A    between atoms: C_14  and  C_16 
ROOT
HETATM    1  N   UNL     1     -41.571 -53.259  13.886  1.00  0.00    -0.331 N 
HETATM    2  C   UNL     1     -41.583 -52.989  12.547  1.00  0.00     0.322 C 
HETATM    3  O   UNL     1     -40.578 -52.775  11.872  1.00  0.00    -0.247 OA
HETATM    4  N   UNL     1     -42.815 -52.845  11.970  1.00  0.00    -0.288 N 
HETATM    5  H   UNL     1     -42.409 -53.725  14.218  1.00  0.00     0.165 HD
HETATM    6  H   UNL     1     -42.828 -52.474  11.033  1.00  0.00     0.172 HD
ENDROOT
BRANCH   1   7
HETATM    7  C   UNL     1     -40.390 -53.443  14.743  1.00  0.00     0.055 C 
HETATM    8  C   UNL     1     -40.936 -53.687  16.169  1.00  0.00     0.041 C 
BRANCH   7   9
HETATM    9  C   UNL     1     -39.560 -54.680  14.288  1.00  0.00     0.195 C 
BRANCH   9  10
HETATM   10  O   UNL     1     -38.499 -54.334  13.393  1.00  0.00    -0.398 OA
HETATM   11  H   UNL     1     -38.803 -54.522  12.490  1.00  0.00     0.209 HD
ENDBRANCH   9  10
ENDBRANCH   7   9
BRANCH   7  12
HETATM   12  C   UNL     1     -39.534 -52.178  14.670  1.00  0.00     0.015 A 
HETATM   13  C   UNL     1     -38.793 -51.645  15.874  1.00  0.00     0.007 A 
HETATM   14  C   UNL     1     -39.920 -50.847  15.283  1.00  0.00     0.007 A 
ENDBRANCH   7  12
ENDBRANCH   1   7
BRANCH   4  15
HETATM   15  C   UNL     1     -43.998 -53.087  12.610  1.00  0.00     0.169 A 
HETATM   16  N   UNL     1     -44.601 -54.242  12.777  1.00  0.00    -0.279 N 
HETATM   17  N   UNL     1     -45.732 -54.126  13.546  1.00  0.00    -0.291 N 
ATOM     18  HN  UNL     1     -44.269 -55.121  12.383  1.00  0.00     0.189 HD
HETATM   19  C   UNL     1     -45.931 -52.883  13.942  1.00  0.00     0.134 A 
ATOM     20  HN  UNL     1     -46.345 -54.906  13.783  1.00  0.00     0.187 HD
HETATM   21  S   UNL     1     -44.785 -51.754  13.314  1.00  0.00    -0.032 SA
BRANCH  19  22
HETATM   22  C   UNL     1     -47.012 -52.460  14.870  1.00  0.00     0.411 C 
HETATM   23  F   UNL     1     -46.689 -52.728  16.166  1.00  0.00    -0.207 F 
HETATM   24  F   UNL     1     -47.244 -51.120  14.803  1.00  0.00    -0.207 F 
ENDBRANCH  19  22
ENDBRANCH   4  15
TORSDOF 6
ENDMDL
MODEL 6
REMARK VINA RESULT:      -5.6      3.793      5.092
REMARK  6 active torsions:
REMARK  status: ('A' for Active; 'I' for Inactive)
REMARK    1  A    between atoms: C_2  and  C_3 
REMARK    2  A    between atoms: C_2  and  N_5 
REMARK    3  A    between atoms: C_2  and  C_19 
REMARK    4  A    between atoms: C_3  and  O_4 
REMARK       I    between atoms: N_5  and  C_6 
REMARK       I    between atoms: C_6  and  N_8 
REMARK    5  A    between atoms: N_8  and  C_9 
REMARK    6  A    between atoms: C_14  and  C_16 
ROOT
HETATM    1  N   UNL     1     -39.710 -51.449  13.127  1.00  0.00    -0.331 N 
HETATM    2  C   UNL     1     -38.508 -51.235  12.516  1.00  0.00     0.322 C 
HETATM    3  O   UNL     1     -37.469 -51.832  12.797  1.00  0.00    -0.247 OA
HETATM    4  N   UNL     1     -38.462 -50.210  11.612  1.00  0.00    -0.288 N 
HETATM    5  H   UNL     1     -40.507 -51.139  12.583  1.00  0.00     0.165 HD
HETATM    6  H   UNL     1     -37.545 -49.936  11.294  1.00  0.00     0.172 HD
ENDROOT
BRANCH   1   7
HETATM    7  C   UNL     1     -40.022 -52.469  14.141  1.00  0.00     0.055 C 
HETATM    8  C   UNL     1     -41.429 -52.118  14.675  1.00  0.00     0.041 C 
BRANCH   7   9
HETATM    9  C   UNL     1     -40.048 -53.892  13.508  1.00  0.00     0.195 C 
BRANCH   9  10
HETATM   10  O   UNL     1     -38.751 -54.493  13.449  1.00  0.00    -0.398 OA
HETATM   11  H   UNL     1     -38.711 -55.173  14.142  1.00  0.00     0.209 HD
ENDBRANCH   9  10
ENDBRANCH   7   9
BRANCH   7  12
HETATM   12  C   UNL     1     -38.961 -52.401  15.241  1.00  0.00     0.015 A 
HETATM   13  C   UNL     1     -39.239 -52.878  16.648  1.00  0.00     0.007 A 
HETATM   14  C   UNL     1     -38.987 -51.419  16.395  1.00  0.00     0.007 A 
ENDBRANCH   7  12
ENDBRANCH   1   7
BRANCH   4  15
HETATM   15  C   UNL     1     -39.553 -49.500  11.198  1.00  0.00     0.169 A 
HETATM   16  N   UNL     1     -40.453 -49.852  10.309  1.00  0.00    -0.279 N 
HETATM   17  N   UNL     1     -41.464 -48.929  10.204  1.00  0.00    -0.291 N 
ATOM     18  HN  UNL     1     -40.408 -50.710   9.760  1.00  0.00     0.189 HD
HETATM   19  C   UNL     1     -41.292 -47.917  11.033  1.00  0.00     0.134 A 
ATOM     20  HN  UNL     1     -42.252 -49.014   9.563  1.00  0.00     0.187 HD
HETATM   21  S   UNL     1     -39.820 -47.990  11.935  1.00  0.00    -0.032 SA
BRANCH  19  22
HETATM   22  C   UNL     1     -42.268 -46.814  11.226  1.00  0.00     0.411 C 
HETATM   23  F   UNL     1     -42.121 -45.847  10.277  1.00  0.00    -0.207 F 
HETATM   24  F   UNL     1     -43.554 -47.249  11.131  1.00  0.00    -0.207 F 
ENDBRANCH  19  22
ENDBRANCH   4  15
TORSDOF 6
ENDMDL
MODEL 7
REMARK VINA RESULT:      -5.5      2.207      3.407
REMARK  6 active torsions:
REMARK  status: ('A' for Active; 'I' for Inactive)
REMARK    1  A    between atoms: C_2  and  C_3 
REMARK    2  A    between atoms: C_2  and  N_5 
REMARK    3  A    between atoms: C_2  and  C_19 
REMARK    4  A    between atoms: C_3  and  O_4 
REMARK       I    between atoms: N_5  and  C_6 
REMARK       I    between atoms: C_6  and  N_8 
REMARK    5  A    between atoms: N_8  and  C_9 
REMARK    6  A    between atoms: C_14  and  C_16 
ROOT
HETATM    1  N   UNL     1     -42.929 -52.160  13.089  1.00  0.00    -0.331 N 
HETATM    2  C   UNL     1     -43.577 -50.958  13.069  1.00  0.00     0.322 C 
HETATM    3  O   UNL     1     -44.746 -50.792  13.416  1.00  0.00    -0.247 OA
HETATM    4  N   UNL     1     -42.891 -49.909  12.521  1.00  0.00    -0.288 N 
HETATM    5  H   UNL     1     -41.919 -52.081  13.096  1.00  0.00     0.165 HD
HETATM    6  H   UNL     1     -43.424 -49.072  12.343  1.00  0.00     0.172 HD
ENDROOT
BRANCH   1   7
HETATM    7  C   UNL     1     -43.445 -53.437  13.605  1.00  0.00     0.055 C 
HETATM    8  C   UNL     1     -44.107 -53.109  14.963  1.00  0.00     0.041 C 
BRANCH   7   9
HETATM    9  C   UNL     1     -44.511 -54.037  12.641  1.00  0.00     0.195 C 
BRANCH   9  10
HETATM   10  O   UNL     1     -45.843 -53.630  12.968  1.00  0.00    -0.398 OA
HETATM   11  H   UNL     1     -45.990 -53.834  13.907  1.00  0.00     0.209 HD
ENDBRANCH   9  10
ENDBRANCH   7   9
BRANCH   7  12
HETATM   12  C   UNL     1     -42.272 -54.407  13.763  1.00  0.00     0.015 A 
HETATM   13  C   UNL     1     -41.101 -54.102  14.668  1.00  0.00     0.007 A 
HETATM   14  C   UNL     1     -40.890 -54.180  13.183  1.00  0.00     0.007 A 
ENDBRANCH   7  12
ENDBRANCH   1   7
BRANCH   4  15
HETATM   15  C   UNL     1     -41.583 -49.965  12.131  1.00  0.00     0.169 A 
HETATM   16  N   UNL     1     -41.109 -50.023  10.908  1.00  0.00    -0.279 N 
HETATM   17  N   UNL     1     -39.737 -49.978  10.884  1.00  0.00    -0.291 N 
ATOM     18  HN  UNL     1     -41.691 -50.093  10.074  1.00  0.00     0.189 HD
HETATM   19  C   UNL     1     -39.228 -49.874  12.096  1.00  0.00     0.134 A 
ATOM     20  HN  UNL     1     -39.179 -50.021  10.031  1.00  0.00     0.187 HD
HETATM   21  S   UNL     1     -40.406 -49.917  13.358  1.00  0.00    -0.032 SA
BRANCH  19  22
HETATM   22  C   UNL     1     -37.781 -49.700  12.388  1.00  0.00     0.411 C 
HETATM   23  F   UNL     1     -37.050 -49.604  11.242  1.00  0.00    -0.207 F 
HETATM   24  F   UNL     1     -37.537 -48.563  13.093  1.00  0.00    -0.207 F 
ENDBRANCH  19  22
ENDBRANCH   4  15
TORSDOF 6
ENDMDL
MODEL 8
REMARK VINA RESULT:      -5.4      3.571      6.213
REMARK  6 active torsions:
REMARK  status: ('A' for Active; 'I' for Inactive)
REMARK    1  A    between atoms: C_2  and  C_3 
REMARK    2  A    between atoms: C_2  and  N_5 
REMARK    3  A    between atoms: C_2  and  C_19 
REMARK    4  A    between atoms: C_3  and  O_4 
REMARK       I    between atoms: N_5  and  C_6 
REMARK       I    between atoms: C_6  and  N_8 
REMARK    5  A    between atoms: N_8  and  C_9 
REMARK    6  A    between atoms: C_14  and  C_16 
ROOT
HETATM    1  N   UNL     1     -40.281 -50.988  12.929  1.00  0.00    -0.331 N 
HETATM    2  C   UNL     1     -40.088 -51.901  13.926  1.00  0.00     0.322 C 
HETATM    3  O   UNL     1     -39.063 -51.989  14.600  1.00  0.00    -0.247 OA
HETATM    4  N   UNL     1     -41.074 -52.835  14.091  1.00  0.00    -0.288 N 
HETATM    5  H   UNL     1     -41.256 -50.826  12.704  1.00  0.00     0.165 HD
HETATM    6  H   UNL     1     -40.858 -53.610  14.699  1.00  0.00     0.172 HD
ENDROOT
BRANCH   1   7
HETATM    7  C   UNL     1     -39.375 -49.898  12.537  1.00  0.00     0.055 C 
HETATM    8  C   UNL     1     -38.065 -50.580  12.078  1.00  0.00     0.041 C 
BRANCH   7   9
HETATM    9  C   UNL     1     -39.971 -49.076  11.356  1.00  0.00     0.195 C 
BRANCH   9  10
HETATM   10  O   UNL     1     -40.355 -49.897  10.250  1.00  0.00    -0.398 OA
HETATM   11  H   UNL     1     -41.217 -49.581   9.933  1.00  0.00     0.209 HD
ENDBRANCH   9  10
ENDBRANCH   7   9
BRANCH   7  12
HETATM   12  C   UNL     1     -39.151 -48.992  13.750  1.00  0.00     0.015 A 
HETATM   13  C   UNL     1     -39.373 -47.499  13.682  1.00  0.00     0.007 A 
HETATM   14  C   UNL     1     -37.986 -48.034  13.899  1.00  0.00     0.007 A 
ENDBRANCH   7  12
ENDBRANCH   1   7
BRANCH   4  15
HETATM   15  C   UNL     1     -42.267 -52.821  13.424  1.00  0.00     0.169 A 
HETATM   16  N   UNL     1     -42.540 -53.343  12.251  1.00  0.00    -0.279 N 
HETATM   17  N   UNL     1     -43.868 -53.217  11.927  1.00  0.00    -0.291 N 
ATOM     18  HN  UNL     1     -41.847 -53.790  11.651  1.00  0.00     0.189 HD
HETATM   19  C   UNL     1     -44.550 -52.613  12.880  1.00  0.00     0.134 A 
ATOM     20  HN  UNL     1     -44.277 -53.550  11.054  1.00  0.00     0.187 HD
HETATM   21  S   UNL     1     -43.581 -52.075  14.205  1.00  0.00    -0.032 SA
BRANCH  19  22
HETATM   22  C   UNL     1     -46.024 -52.423  12.867  1.00  0.00     0.411 C 
HETATM   23  F   UNL     1     -46.383 -51.269  13.498  1.00  0.00    -0.207 F 
HETATM   24  F   UNL     1     -46.515 -52.333  11.601  1.00  0.00    -0.207 F 
ENDBRANCH  19  22
ENDBRANCH   4  15
TORSDOF 6
ENDMDL
MODEL 9
REMARK VINA RESULT:      -5.3      5.472      6.968
REMARK  6 active torsions:
REMARK  status: ('A' for Active; 'I' for Inactive)
REMARK    1  A    between atoms: C_2  and  C_3 
REMARK    2  A    between atoms: C_2  and  N_5 
REMARK    3  A    between atoms: C_2  and  C_19 
REMARK    4  A    between atoms: C_3  and  O_4 
REMARK       I    between atoms: N_5  and  C_6 
REMARK       I    between atoms: C_6  and  N_8 
REMARK    5  A    between atoms: N_8  and  C_9 
REMARK    6  A    between atoms: C_14  and  C_16 
ROOT
HETATM    1  N   UNL     1     -40.821 -47.188  11.454  1.00  0.00    -0.331 N 
HETATM    2  C   UNL     1     -41.531 -47.848  10.491  1.00  0.00     0.322 C 
HETATM    3  O   UNL     1     -42.387 -47.326   9.778  1.00  0.00    -0.247 OA
HETATM    4  N   UNL     1     -41.331 -49.198  10.410  1.00  0.00    -0.288 N 
HETATM    5  H   UNL     1     -39.956 -47.648  11.712  1.00  0.00     0.165 HD
HETATM    6  H   UNL     1     -41.976 -49.711   9.829  1.00  0.00     0.172 HD
ENDROOT
BRANCH   1   7
HETATM    7  C   UNL     1     -40.862 -45.749  11.757  1.00  0.00     0.055 C 
HETATM    8  C   UNL     1     -39.838 -45.527  12.894  1.00  0.00     0.041 C 
BRANCH   7   9
HETATM    9  C   UNL     1     -40.448 -44.907  10.514  1.00  0.00     0.195 C 
BRANCH   9  10
HETATM   10  O   UNL     1     -39.359 -45.489   9.791  1.00  0.00    -0.398 OA
HETATM   11  H   UNL     1     -39.706 -45.804   8.940  1.00  0.00     0.209 HD
ENDBRANCH   9  10
ENDBRANCH   7   9
BRANCH   7  12
HETATM   12  C   UNL     1     -42.283 -45.385  12.190  1.00  0.00     0.015 A 
HETATM   13  C   UNL     1     -42.549 -44.451  13.349  1.00  0.00     0.007 A 
HETATM   14  C   UNL     1     -42.951 -45.895  13.452  1.00  0.00     0.007 A 
ENDBRANCH   7  12
ENDBRANCH   1   7
BRANCH   4  15
HETATM   15  C   UNL     1     -40.388 -49.881  11.126  1.00  0.00     0.169 A 
HETATM   16  N   UNL     1     -39.107 -50.001  10.862  1.00  0.00    -0.279 N 
HETATM   17  N   UNL     1     -38.440 -50.687  11.845  1.00  0.00    -0.291 N 
ATOM     18  HN  UNL     1     -38.661 -49.627  10.024  1.00  0.00     0.189 HD
HETATM   19  C   UNL     1     -39.245 -51.049  12.824  1.00  0.00     0.134 A 
ATOM     20  HN  UNL     1     -37.441 -50.892  11.821  1.00  0.00     0.187 HD
HETATM   21  S   UNL     1     -40.903 -50.646  12.554  1.00  0.00    -0.032 SA
BRANCH  19  22
HETATM   22  C   UNL     1     -38.800 -51.714  14.076  1.00  0.00     0.411 C 
HETATM   23  F   UNL     1     -38.481 -53.021  13.859  1.00  0.00    -0.207 F 
HETATM   24  F   UNL     1     -37.686 -51.130  14.595  1.00  0.00    -0.207 F 
ENDBRANCH  19  22
ENDBRANCH   4  15
TORSDOF 6
ENDMDL
