MODEL 1
REMARK VINA RESULT:      -6.0      0.000      0.000
REMARK  2 active torsions:
REMARK  status: ('A' for Active; 'I' for Inactive)
REMARK    1  A    between atoms: C_6  and  N_7 
REMARK       I    between atoms: N_7  and  C_8 
REMARK       I    between atoms: C_8  and  N_10 
REMARK    2  A    between atoms: N_10  and  C_11 
ROOT
HETATM    1  N   UNL     1     -42.831 -53.766  12.466  1.00  0.00    -0.295 N 
HETATM    2  C   UNL     1     -44.155 -53.632  12.776  1.00  0.00     0.322 C 
HETATM    3  O   UNL     1     -44.942 -54.528  12.484  1.00  0.00    -0.247 OA
HETATM    4  N   UNL     1     -44.520 -52.481  13.409  1.00  0.00    -0.334 N 
HETATM    5  H   UNL     1     -42.613 -54.647  12.028  1.00  0.00     0.172 HD
HETATM    6  H   UNL     1     -43.746 -51.828  13.529  1.00  0.00     0.165 HD
ENDROOT
BRANCH   1   7
HETATM    7  C   UNL     1     -41.808 -52.826  12.631  1.00  0.00     0.109 A 
HETATM    8  C   UNL     1     -40.862 -53.035  13.621  1.00  0.00     0.049 A 
HETATM    9  C   UNL     1     -39.827 -52.112  13.755  1.00  0.00     0.006 A 
HETATM   10  C   UNL     1     -39.769 -51.011  12.904  1.00  0.00     0.025 A 
HETATM   11  C   UNL     1     -40.752 -50.869  11.940  1.00  0.00     0.007 A 
HETATM   12  C   UNL     1     -40.781 -49.708  10.994  1.00  0.00     0.068 C 
HETATM   13  N   UNL     1     -41.764 -51.757  11.807  1.00  0.00    -0.346 N 
ATOM     14  HN  UNL     1     -42.482 -51.620  11.095  1.00  0.00     0.167 HD
ENDBRANCH   1   7
BRANCH   4  15
HETATM   15  C   UNL     1     -45.875 -52.072  13.794  1.00  0.00     0.031 C 
HETATM   16  C   UNL     1     -46.633 -51.589  12.566  1.00  0.00     0.038 C 
HETATM   17  C   UNL     1     -45.844 -51.080  14.998  1.00  0.00     0.031 C 
HETATM   18  C   UNL     1     -47.067 -51.822  15.566  1.00  0.00     0.005 C 
HETATM   19  C   UNL     1     -46.632 -53.047  14.736  1.00  0.00     0.031 C 
ENDBRANCH   4  15
TORSDOF 2
ENDMDL
MODEL 2
REMARK VINA RESULT:      -5.7      1.251      1.636
REMARK  2 active torsions:
REMARK  status: ('A' for Active; 'I' for Inactive)
REMARK    1  A    between atoms: C_6  and  N_7 
REMARK       I    between atoms: N_7  and  C_8 
REMARK       I    between atoms: C_8  and  N_10 
REMARK    2  A    between atoms: N_10  and  C_11 
ROOT
HETATM    1  N   UNL     1     -43.467 -53.055  12.026  1.00  0.00    -0.295 N 
HETATM    2  C   UNL     1     -44.692 -53.012  12.630  1.00  0.00     0.322 C 
HETATM    3  O   UNL     1     -45.709 -53.072  11.947  1.00  0.00    -0.247 OA
HETATM    4  N   UNL     1     -44.698 -52.904  13.988  1.00  0.00    -0.334 N 
HETATM    5  H   UNL     1     -43.521 -53.166  11.026  1.00  0.00     0.172 HD
HETATM    6  H   UNL     1     -43.764 -52.818  14.387  1.00  0.00     0.165 HD
ENDROOT
BRANCH   1   7
HETATM    7  C   UNL     1     -42.208 -52.908  12.619  1.00  0.00     0.109 A 
HETATM    8  C   UNL     1     -41.536 -54.040  13.050  1.00  0.00     0.049 A 
HETATM    9  C   UNL     1     -40.268 -53.887  13.606  1.00  0.00     0.006 A 
HETATM   10  C   UNL     1     -39.713 -52.614  13.720  1.00  0.00     0.025 A 
HETATM   11  C   UNL     1     -40.446 -51.531  13.268  1.00  0.00     0.007 A 
HETATM   12  C   UNL     1     -39.937 -50.126  13.366  1.00  0.00     0.068 C 
HETATM   13  N   UNL     1     -41.680 -51.670  12.732  1.00  0.00    -0.346 N 
ATOM     14  HN  UNL     1     -42.203 -50.852  12.418  1.00  0.00     0.167 HD
ENDBRANCH   1   7
BRANCH   4  15
HETATM   15  C   UNL     1     -45.870 -52.780  14.863  1.00  0.00     0.031 C 
HETATM   16  C   UNL     1     -46.630 -54.099  14.889  1.00  0.00     0.038 C 
HETATM   17  C   UNL     1     -46.717 -51.522  14.498  1.00  0.00     0.031 C 
HETATM   18  C   UNL     1     -46.908 -51.285  16.007  1.00  0.00     0.005 C 
HETATM   19  C   UNL     1     -45.619 -52.099  16.235  1.00  0.00     0.031 C 
ENDBRANCH   4  15
TORSDOF 2
ENDMDL
MODEL 3
REMARK VINA RESULT:      -5.6      2.948      5.954
REMARK  2 active torsions:
REMARK  status: ('A' for Active; 'I' for Inactive)
REMARK    1  A    between atoms: C_6  and  N_7 
REMARK       I    between atoms: N_7  and  C_8 
REMARK       I    between atoms: C_8  and  N_10 
REMARK    2  A    between atoms: N_10  and  C_11 
ROOT
HETATM    1  N   UNL     1     -42.892 -50.599  13.375  1.00  0.00    -0.295 N 
HETATM    2  C   UNL     1     -42.418 -49.575  12.604  1.00  0.00     0.322 C 
HETATM    3  O   UNL     1     -41.212 -49.359  12.556  1.00  0.00    -0.247 OA
HETATM    4  N   UNL     1     -43.346 -48.846  11.922  1.00  0.00    -0.334 N 
HETATM    5  H   UNL     1     -42.162 -51.122  13.832  1.00  0.00     0.172 HD
HETATM    6  H   UNL     1     -44.304 -49.135  12.118  1.00  0.00     0.165 HD
ENDROOT
BRANCH   1   7
HETATM    7  C   UNL     1     -44.224 -50.940  13.631  1.00  0.00     0.109 A 
HETATM    8  C   UNL     1     -44.678 -50.932  14.940  1.00  0.00     0.049 A 
HETATM    9  C   UNL     1     -46.015 -51.239  15.180  1.00  0.00     0.006 A 
HETATM   10  C   UNL     1     -46.856 -51.548  14.114  1.00  0.00     0.025 A 
HETATM   11  C   UNL     1     -46.330 -51.537  12.834  1.00  0.00     0.007 A 
HETATM   12  C   UNL     1     -47.154 -51.874  11.629  1.00  0.00     0.068 C 
HETATM   13  N   UNL     1     -45.032 -51.246  12.591  1.00  0.00    -0.346 N 
ATOM     14  HN  UNL     1     -44.668 -51.258  11.638  1.00  0.00     0.167 HD
ENDBRANCH   1   7
BRANCH   4  15
HETATM   15  C   UNL     1     -43.105 -47.669  11.079  1.00  0.00     0.031 C 
HETATM   16  C   UNL     1     -42.704 -46.489  11.951  1.00  0.00     0.038 C 
HETATM   17  C   UNL     1     -44.302 -47.415  10.110  1.00  0.00     0.031 C 
HETATM   18  C   UNL     1     -43.270 -47.070   9.021  1.00  0.00     0.005 C 
HETATM   19  C   UNL     1     -42.248 -47.915   9.808  1.00  0.00     0.031 C 
ENDBRANCH   4  15
TORSDOF 2
ENDMDL
MODEL 4
REMARK VINA RESULT:      -5.5      1.853      5.686
REMARK  2 active torsions:
REMARK  status: ('A' for Active; 'I' for Inactive)
REMARK    1  A    between atoms: C_6  and  N_7 
REMARK       I    between atoms: N_7  and  C_8 
REMARK       I    between atoms: C_8  and  N_10 
REMARK    2  A    between atoms: N_10  and  C_11 
ROOT
HETATM    1  N   UNL     1     -43.186 -52.815  12.132  1.00  0.00    -0.295 N 
HETATM    2  C   UNL     1     -41.866 -52.811  12.483  1.00  0.00     0.322 C 
HETATM    3  O   UNL     1     -41.013 -52.552  11.640  1.00  0.00    -0.247 OA
HETATM    4  N   UNL     1     -41.580 -53.103  13.784  1.00  0.00    -0.334 N 
HETATM    5  H   UNL     1     -43.342 -52.564  11.169  1.00  0.00     0.172 HD
HETATM    6  H   UNL     1     -42.407 -53.340  14.332  1.00  0.00     0.165 HD
ENDROOT
BRANCH   1   7
HETATM    7  C   UNL     1     -44.286 -53.173  12.919  1.00  0.00     0.109 A 
HETATM    8  C   UNL     1     -44.554 -54.517  13.122  1.00  0.00     0.049 A 
HETATM    9  C   UNL     1     -45.630 -54.864  13.936  1.00  0.00     0.006 A 
HETATM   10  C   UNL     1     -46.407 -53.864  14.517  1.00  0.00     0.025 A 
HETATM   11  C   UNL     1     -46.079 -52.543  14.267  1.00  0.00     0.007 A 
HETATM   12  C   UNL     1     -46.867 -51.403  14.834  1.00  0.00     0.068 C 
HETATM   13  N   UNL     1     -45.039 -52.197  13.473  1.00  0.00    -0.346 N 
ATOM     14  HN  UNL     1     -44.827 -51.215  13.296  1.00  0.00     0.167 HD
ENDBRANCH   1   7
BRANCH   4  15
HETATM   15  C   UNL     1     -40.251 -53.220  14.396  1.00  0.00     0.031 C 
HETATM   16  C   UNL     1     -39.529 -51.883  14.310  1.00  0.00     0.038 C 
HETATM   17  C   UNL     1     -39.472 -54.444  13.822  1.00  0.00     0.031 C 
HETATM   18  C   UNL     1     -38.970 -54.720  15.251  1.00  0.00     0.005 C 
HETATM   19  C   UNL     1     -40.202 -53.947  15.766  1.00  0.00     0.031 C 
ENDBRANCH   4  15
TORSDOF 2
ENDMDL
MODEL 5
REMARK VINA RESULT:      -5.4      1.570      5.468
REMARK  2 active torsions:
REMARK  status: ('A' for Active; 'I' for Inactive)
REMARK    1  A    between atoms: C_6  and  N_7 
REMARK       I    between atoms: N_7  and  C_8 
REMARK       I    between atoms: C_8  and  N_10 
REMARK    2  A    between atoms: N_10  and  C_11 
ROOT
HETATM    1  N   UNL     1     -42.900 -53.267  12.468  1.00  0.00    -0.295 N 
HETATM    2  C   UNL     1     -41.758 -52.529  12.332  1.00  0.00     0.322 C 
HETATM    3  O   UNL     1     -40.716 -53.079  11.991  1.00  0.00    -0.247 OA
HETATM    4  N   UNL     1     -41.860 -51.195  12.592  1.00  0.00    -0.334 N 
HETATM    5  H   UNL     1     -42.774 -54.240  12.234  1.00  0.00     0.172 HD
HETATM    6  H   UNL     1     -42.789 -50.919  12.910  1.00  0.00     0.165 HD
ENDROOT
BRANCH   1   7
HETATM    7  C   UNL     1     -44.150 -52.844  12.932  1.00  0.00     0.109 A 
HETATM    8  C   UNL     1     -44.368 -52.777  14.299  1.00  0.00     0.049 A 
HETATM    9  C   UNL     1     -45.604 -52.320  14.752  1.00  0.00     0.006 A 
HETATM   10  C   UNL     1     -46.582 -51.949  13.832  1.00  0.00     0.025 A 
HETATM   11  C   UNL     1     -46.292 -52.045  12.483  1.00  0.00     0.007 A 
HETATM   12  C   UNL     1     -47.288 -51.687  11.423  1.00  0.00     0.068 C 
HETATM   13  N   UNL     1     -45.097 -52.493  12.034  1.00  0.00    -0.346 N 
ATOM     14  HN  UNL     1     -44.914 -52.565  11.033  1.00  0.00     0.167 HD
ENDBRANCH   1   7
BRANCH   4  15
HETATM   15  C   UNL     1     -40.779 -50.203  12.577  1.00  0.00     0.031 C 
HETATM   16  C   UNL     1     -39.757 -50.543  13.651  1.00  0.00     0.038 C 
HETATM   17  C   UNL     1     -41.346 -48.750  12.623  1.00  0.00     0.031 C 
HETATM   18  C   UNL     1     -40.265 -48.358  11.599  1.00  0.00     0.005 C 
HETATM   19  C   UNL     1     -40.217 -49.841  11.176  1.00  0.00     0.031 C 
ENDBRANCH   4  15
TORSDOF 2
ENDMDL
MODEL 6
REMARK VINA RESULT:      -5.2      2.352      5.494
REMARK  2 active torsions:
REMARK  status: ('A' for Active; 'I' for Inactive)
REMARK    1  A    between atoms: C_6  and  N_7 
REMARK       I    between atoms: N_7  and  C_8 
REMARK       I    between atoms: C_8  and  N_10 
REMARK    2  A    between atoms: N_10  and  C_11 
ROOT
HETATM    1  N   UNL     1     -42.837 -50.599  13.622  1.00  0.00    -0.295 N 
HETATM    2  C   UNL     1     -41.751 -51.420  13.742  1.00  0.00     0.322 C 
HETATM    3  O   UNL     1     -40.636 -50.999  13.455  1.00  0.00    -0.247 OA
HETATM    4  N   UNL     1     -41.991 -52.686  14.188  1.00  0.00    -0.334 N 
HETATM    5  H   UNL     1     -42.599 -49.668  13.318  1.00  0.00     0.172 HD
HETATM    6  H   UNL     1     -42.982 -52.879  14.331  1.00  0.00     0.165 HD
ENDROOT
BRANCH   1   7
HETATM    7  C   UNL     1     -44.186 -50.921  13.809  1.00  0.00     0.109 A 
HETATM    8  C   UNL     1     -44.704 -50.911  15.094  1.00  0.00     0.049 A 
HETATM    9  C   UNL     1     -46.056 -51.198  15.267  1.00  0.00     0.006 A 
HETATM   10  C   UNL     1     -46.847 -51.489  14.158  1.00  0.00     0.025 A 
HETATM   11  C   UNL     1     -46.259 -51.482  12.906  1.00  0.00     0.007 A 
HETATM   12  C   UNL     1     -47.026 -51.801  11.660  1.00  0.00     0.068 C 
HETATM   13  N   UNL     1     -44.945 -51.210  12.729  1.00  0.00    -0.346 N 
ATOM     14  HN  UNL     1     -44.535 -51.224  11.795  1.00  0.00     0.167 HD
ENDBRANCH   1   7
BRANCH   4  15
HETATM   15  C   UNL     1     -41.015 -53.770  14.347  1.00  0.00     0.031 C 
HETATM   16  C   UNL     1     -40.599 -54.290  12.979  1.00  0.00     0.038 C 
HETATM   17  C   UNL     1     -41.529 -54.850  15.349  1.00  0.00     0.031 C 
HETATM   18  C   UNL     1     -40.097 -54.929  15.909  1.00  0.00     0.005 C 
HETATM   19  C   UNL     1     -39.872 -53.504  15.364  1.00  0.00     0.031 C 
ENDBRANCH   4  15
TORSDOF 2
ENDMDL
MODEL 7
REMARK VINA RESULT:      -5.1      1.842      2.468
REMARK  2 active torsions:
REMARK  status: ('A' for Active; 'I' for Inactive)
REMARK    1  A    between atoms: C_6  and  N_7 
REMARK       I    between atoms: N_7  and  C_8 
REMARK       I    between atoms: C_8  and  N_10 
REMARK    2  A    between atoms: N_10  and  C_11 
ROOT
HETATM    1  N   UNL     1     -44.150 -54.941  14.574  1.00  0.00    -0.295 N 
HETATM    2  C   UNL     1     -45.242 -54.193  14.915  1.00  0.00     0.322 C 
HETATM    3  O   UNL     1     -46.351 -54.718  14.949  1.00  0.00    -0.247 OA
HETATM    4  N   UNL     1     -45.016 -52.881  15.203  1.00  0.00    -0.334 N 
HETATM    5  H   UNL     1     -44.370 -55.909  14.401  1.00  0.00     0.172 HD
HETATM    6  H   UNL     1     -44.043 -52.605  15.078  1.00  0.00     0.165 HD
ENDROOT
BRANCH   1   7
HETATM    7  C   UNL     1     -42.832 -54.507  14.391  1.00  0.00     0.109 A 
HETATM    8  C   UNL     1     -41.873 -54.871  15.323  1.00  0.00     0.049 A 
HETATM    9  C   UNL     1     -40.557 -54.465  15.113  1.00  0.00     0.006 A 
HETATM   10  C   UNL     1     -40.239 -53.707  13.988  1.00  0.00     0.025 A 
HETATM   11  C   UNL     1     -41.251 -53.381  13.104  1.00  0.00     0.007 A 
HETATM   12  C   UNL     1     -41.006 -52.555  11.878  1.00  0.00     0.068 C 
HETATM   13  N   UNL     1     -42.533 -53.766  13.302  1.00  0.00    -0.346 N 
ATOM     14  HN  UNL     1     -43.262 -53.501  12.639  1.00  0.00     0.167 HD
ENDBRANCH   1   7
BRANCH   4  15
HETATM   15  C   UNL     1     -46.018 -51.861  15.537  1.00  0.00     0.031 C 
HETATM   16  C   UNL     1     -46.757 -51.438  14.276  1.00  0.00     0.038 C 
HETATM   17  C   UNL     1     -45.386 -50.701  16.368  1.00  0.00     0.031 C 
HETATM   18  C   UNL     1     -46.666 -50.695  17.223  1.00  0.00     0.005 C 
HETATM   19  C   UNL     1     -46.891 -52.156  16.786  1.00  0.00     0.031 C 
ENDBRANCH   4  15
TORSDOF 2
ENDMDL
MODEL 8
REMARK VINA RESULT:      -5.1      2.212      2.889
REMARK  2 active torsions:
REMARK  status: ('A' for Active; 'I' for Inactive)
REMARK    1  A    between atoms: C_6  and  N_7 
REMARK       I    between atoms: N_7  and  C_8 
REMARK       I    between atoms: C_8  and  N_10 
REMARK    2  A    between atoms: N_10  and  C_11 
ROOT
HETATM    1  N   UNL     1     -43.555 -55.176  14.389  1.00  0.00    -0.295 N 
HETATM    2  C   UNL     1     -44.774 -54.559  14.378  1.00  0.00     0.322 C 
HETATM    3  O   UNL     1     -45.794 -55.230  14.266  1.00  0.00    -0.247 OA
HETATM    4  N   UNL     1     -44.770 -53.201  14.497  1.00  0.00    -0.334 N 
HETATM    5  H   UNL     1     -43.618 -56.181  14.329  1.00  0.00     0.172 HD
HETATM    6  H   UNL     1     -43.831 -52.805  14.531  1.00  0.00     0.165 HD
ENDROOT
BRANCH   1   7
HETATM    7  C   UNL     1     -42.288 -54.583  14.414  1.00  0.00     0.109 A 
HETATM    8  C   UNL     1     -41.706 -54.199  13.217  1.00  0.00     0.049 A 
HETATM    9  C   UNL     1     -40.460 -53.577  13.254  1.00  0.00     0.006 A 
HETATM   10  C   UNL     1     -39.833 -53.361  14.479  1.00  0.00     0.025 A 
HETATM   11  C   UNL     1     -40.476 -53.774  15.633  1.00  0.00     0.007 A 
HETATM   12  C   UNL     1     -39.869 -53.600  16.991  1.00  0.00     0.068 C 
HETATM   13  N   UNL     1     -41.683 -54.384  15.605  1.00  0.00    -0.346 N 
ATOM     14  HN  UNL     1     -42.128 -54.689  16.471  1.00  0.00     0.167 HD
ENDBRANCH   1   7
BRANCH   4  15
HETATM   15  C   UNL     1     -45.930 -52.303  14.455  1.00  0.00     0.031 C 
HETATM   16  C   UNL     1     -46.274 -51.980  13.008  1.00  0.00     0.038 C 
HETATM   17  C   UNL     1     -45.724 -51.071  15.389  1.00  0.00     0.031 C 
HETATM   18  C   UNL     1     -47.202 -51.209  15.799  1.00  0.00     0.005 C 
HETATM   19  C   UNL     1     -47.116 -52.690  15.379  1.00  0.00     0.031 C 
ENDBRANCH   4  15
TORSDOF 2
ENDMDL
MODEL 9
REMARK VINA RESULT:      -5.1      2.742      5.821
REMARK  2 active torsions:
REMARK  status: ('A' for Active; 'I' for Inactive)
REMARK    1  A    between atoms: C_6  and  N_7 
REMARK       I    between atoms: N_7  and  C_8 
REMARK       I    between atoms: C_8  and  N_10 
REMARK    2  A    between atoms: N_10  and  C_11 
ROOT
HETATM    1  N   UNL     1     -40.743 -51.442  11.302  1.00  0.00    -0.295 N 
HETATM    2  C   UNL     1     -40.017 -50.399  11.804  1.00  0.00     0.322 C 
HETATM    3  O   UNL     1     -39.333 -49.715  11.050  1.00  0.00    -0.247 OA
HETATM    4  N   UNL     1     -40.107 -50.185  13.147  1.00  0.00    -0.334 N 
HETATM    5  H   UNL     1     -40.663 -51.535  10.301  1.00  0.00     0.172 HD
HETATM    6  H   UNL     1     -40.682 -50.878  13.625  1.00  0.00     0.165 HD
ENDROOT
BRANCH   1   7
HETATM    7  C   UNL     1     -41.501 -52.384  12.007  1.00  0.00     0.109 A 
HETATM    8  C   UNL     1     -40.843 -53.341  12.762  1.00  0.00     0.049 A 
HETATM    9  C   UNL     1     -41.606 -54.252  13.489  1.00  0.00     0.006 A 
HETATM   10  C   UNL     1     -42.996 -54.184  13.437  1.00  0.00     0.025 A 
HETATM   11  C   UNL     1     -43.582 -53.201  12.659  1.00  0.00     0.007 A 
HETATM   12  C   UNL     1     -45.068 -53.064  12.529  1.00  0.00     0.068 C 
HETATM   13  N   UNL     1     -42.849 -52.316  11.945  1.00  0.00    -0.346 N 
ATOM     14  HN  UNL     1     -43.307 -51.609  11.370  1.00  0.00     0.167 HD
ENDBRANCH   1   7
BRANCH   4  15
HETATM   15  C   UNL     1     -39.389 -49.177  13.935  1.00  0.00     0.031 C 
HETATM   16  C   UNL     1     -39.957 -47.797  13.640  1.00  0.00     0.038 C 
HETATM   17  C   UNL     1     -37.845 -49.320  13.761  1.00  0.00     0.031 C 
HETATM   18  C   UNL     1     -37.708 -49.034  15.268  1.00  0.00     0.005 C 
HETATM   19  C   UNL     1     -39.160 -49.526  15.430  1.00  0.00     0.031 C 
ENDBRANCH   4  15
TORSDOF 2
ENDMDL
