MODEL 1
REMARK VINA RESULT:      -5.9      0.000      0.000
REMARK  3 active torsions:
REMARK  status: ('A' for Active; 'I' for Inactive)
REMARK    1  A    between atoms: C_5  and  O_6 
REMARK    2  A    between atoms: C_5  and  C_7 
REMARK    3  A    between atoms: C_7  and  N_8 
ROOT
HETATM    1  C   UNL     1     -42.672 -51.279  13.402  1.00  0.00     0.190 C 
ENDROOT
BRANCH   1   2
HETATM    2  C   UNL     1     -41.974 -52.502  12.748  1.00  0.00     0.076 C 
HETATM    3  C   UNL     1     -42.187 -53.809  13.527  1.00  0.00     0.040 C 
HETATM    4  C   UNL     1     -41.445 -53.831  14.862  1.00  0.00     0.007 C 
HETATM    5  C   UNL     1     -39.945 -53.531  14.718  1.00  0.00    -0.019 C 
HETATM    6  C   UNL     1     -39.192 -54.717  14.106  1.00  0.00     0.010 C 
HETATM    7  C   UNL     1     -39.708 -52.245  13.912  1.00  0.00     0.007 C 
HETATM    8  C   UNL     1     -40.467 -52.226  12.586  1.00  0.00     0.040 C 
BRANCH   2   9
HETATM    9  O   UNL     1     -42.500 -52.694  11.425  1.00  0.00    -0.388 OA
HETATM   10  H   UNL     1     -43.312 -52.143  11.387  1.00  0.00     0.210 HD
ENDBRANCH   2   9
ENDBRANCH   1   2
BRANCH   1  11
HETATM   11  N   UNL     1     -44.100 -51.474  13.683  1.00  0.00    -0.255 N 
HETATM   12  N   UNL     1     -44.929 -51.581  12.583  1.00  0.00    -0.300 N 
HETATM   13  C   UNL     1     -46.209 -51.580  12.788  1.00  0.00     0.022 A 
ATOM     14  HN  UNL     1     -44.547 -51.658  11.640  1.00  0.00     0.187 HD
HETATM   15  C   UNL     1     -47.127 -51.712  11.600  1.00  0.00     0.069 C 
HETATM   16  C   UNL     1     -46.841 -51.434  14.112  1.00  0.00     0.031 A 
HETATM   17  C   UNL     1     -46.025 -51.357  15.165  1.00  0.00     0.078 A 
HETATM   18  C   UNL     1     -44.559 -51.387  14.993  1.00  0.00     0.262 A 
HETATM   19  O   UNL     1     -43.848 -51.305  15.990  1.00  0.00    -0.267 OA
ENDBRANCH   1  11
TORSDOF 3
ENDMDL
MODEL 2
REMARK VINA RESULT:      -5.6      2.947      5.293
REMARK  3 active torsions:
REMARK  status: ('A' for Active; 'I' for Inactive)
REMARK    1  A    between atoms: C_5  and  O_6 
REMARK    2  A    between atoms: C_5  and  C_7 
REMARK    3  A    between atoms: C_7  and  N_8 
ROOT
HETATM    1  C   UNL     1     -40.372 -52.211  13.638  1.00  0.00     0.190 C 
ENDROOT
BRANCH   1   2
HETATM    2  C   UNL     1     -41.273 -53.048  12.691  1.00  0.00     0.076 C 
HETATM    3  C   UNL     1     -42.596 -52.350  12.339  1.00  0.00     0.040 C 
HETATM    4  C   UNL     1     -43.555 -52.267  13.525  1.00  0.00     0.007 C 
HETATM    5  C   UNL     1     -43.825 -53.634  14.173  1.00  0.00    -0.019 C 
HETATM    6  C   UNL     1     -44.739 -54.498  13.299  1.00  0.00     0.010 C 
HETATM    7  C   UNL     1     -42.515 -54.365  14.501  1.00  0.00     0.007 C 
HETATM    8  C   UNL     1     -41.556 -54.428  13.314  1.00  0.00     0.040 C 
BRANCH   2   9
HETATM    9  O   UNL     1     -40.569 -53.290  11.461  1.00  0.00    -0.388 OA
HETATM   10  H   UNL     1     -40.888 -54.166  11.150  1.00  0.00     0.210 HD
ENDBRANCH   2   9
ENDBRANCH   1   2
BRANCH   1  11
HETATM   11  N   UNL     1     -39.913 -50.936  13.070  1.00  0.00    -0.255 N 
HETATM   12  N   UNL     1     -38.868 -51.011  12.169  1.00  0.00    -0.300 N 
HETATM   13  C   UNL     1     -38.325 -49.900  11.780  1.00  0.00     0.022 A 
ATOM     14  HN  UNL     1     -38.536 -51.911  11.820  1.00  0.00     0.187 HD
HETATM   15  C   UNL     1     -37.195 -49.964  10.785  1.00  0.00     0.069 C 
HETATM   16  C   UNL     1     -38.720 -48.565  12.263  1.00  0.00     0.031 A 
HETATM   17  C   UNL     1     -39.747 -48.510  13.114  1.00  0.00     0.078 A 
HETATM   18  C   UNL     1     -40.424 -49.742  13.565  1.00  0.00     0.262 A 
HETATM   19  O   UNL     1     -41.359 -49.642  14.354  1.00  0.00    -0.267 OA
ENDBRANCH   1  11
TORSDOF 3
ENDMDL
MODEL 3
REMARK VINA RESULT:      -5.5      4.368      5.088
REMARK  3 active torsions:
REMARK  status: ('A' for Active; 'I' for Inactive)
REMARK    1  A    between atoms: C_5  and  O_6 
REMARK    2  A    between atoms: C_5  and  C_7 
REMARK    3  A    between atoms: C_7  and  N_8 
ROOT
HETATM    1  C   UNL     1     -41.829 -49.239  12.106  1.00  0.00     0.190 C 
ENDROOT
BRANCH   1   2
HETATM    2  C   UNL     1     -40.474 -49.815  11.615  1.00  0.00     0.076 C 
HETATM    3  C   UNL     1     -40.144 -51.188  12.223  1.00  0.00     0.040 C 
HETATM    4  C   UNL     1     -39.815 -51.113  13.712  1.00  0.00     0.007 C 
HETATM    5  C   UNL     1     -38.700 -50.104  14.028  1.00  0.00    -0.019 C 
HETATM    6  C   UNL     1     -37.327 -50.631  13.596  1.00  0.00     0.010 C 
HETATM    7  C   UNL     1     -38.992 -48.733  13.401  1.00  0.00     0.007 C 
HETATM    8  C   UNL     1     -39.337 -48.821  11.915  1.00  0.00     0.040 C 
BRANCH   2   9
HETATM    9  O   UNL     1     -40.516 -49.971  10.187  1.00  0.00    -0.388 OA
HETATM   10  H   UNL     1     -41.432 -49.729   9.928  1.00  0.00     0.210 HD
ENDBRANCH   2   9
ENDBRANCH   1   2
BRANCH   1  11
HETATM   11  N   UNL     1     -42.325 -48.101  11.321  1.00  0.00    -0.255 N 
HETATM   12  N   UNL     1     -42.788 -48.391  10.052  1.00  0.00    -0.300 N 
HETATM   13  C   UNL     1     -43.071 -47.397   9.270  1.00  0.00     0.022 A 
ATOM     14  HN  UNL     1     -42.903 -49.356   9.740  1.00  0.00     0.187 HD
HETATM   15  C   UNL     1     -43.591 -47.697   7.888  1.00  0.00     0.069 C 
HETATM   16  C   UNL     1     -42.896 -45.978   9.628  1.00  0.00     0.031 A 
HETATM   17  C   UNL     1     -42.473 -45.716  10.866  1.00  0.00     0.078 A 
HETATM   18  C   UNL     1     -42.167 -46.809  11.810  1.00  0.00     0.262 A 
HETATM   19  O   UNL     1     -41.772 -46.520  12.936  1.00  0.00    -0.267 OA
ENDBRANCH   1  11
TORSDOF 3
ENDMDL
MODEL 4
REMARK VINA RESULT:      -5.5      3.679      5.507
REMARK  3 active torsions:
REMARK  status: ('A' for Active; 'I' for Inactive)
REMARK    1  A    between atoms: C_5  and  O_6 
REMARK    2  A    between atoms: C_5  and  C_7 
REMARK    3  A    between atoms: C_7  and  N_8 
ROOT
HETATM    1  C   UNL     1     -41.201 -49.759  12.683  1.00  0.00     0.190 C 
ENDROOT
BRANCH   1   2
HETATM    2  C   UNL     1     -40.725 -49.108  11.357  1.00  0.00     0.076 C 
HETATM    3  C   UNL     1     -39.450 -48.265  11.519  1.00  0.00     0.040 C 
HETATM    4  C   UNL     1     -39.687 -46.981  12.311  1.00  0.00     0.007 C 
HETATM    5  C   UNL     1     -40.827 -46.125  11.739  1.00  0.00    -0.019 C 
HETATM    6  C   UNL     1     -40.408 -45.427  10.441  1.00  0.00     0.010 C 
HETATM    7  C   UNL     1     -42.102 -46.957  11.536  1.00  0.00     0.007 C 
HETATM    8  C   UNL     1     -41.852 -48.247  10.756  1.00  0.00     0.040 C 
BRANCH   2   9
HETATM    9  O   UNL     1     -40.443 -50.141  10.398  1.00  0.00    -0.388 OA
HETATM   10  H   UNL     1     -39.894 -50.798  10.880  1.00  0.00     0.210 HD
ENDBRANCH   2   9
ENDBRANCH   1   2
BRANCH   1  11
HETATM   11  N   UNL     1     -41.431 -51.207  12.601  1.00  0.00    -0.255 N 
HETATM   12  N   UNL     1     -42.747 -51.609  12.471  1.00  0.00    -0.300 N 
HETATM   13  C   UNL     1     -43.004 -52.876  12.568  1.00  0.00     0.022 A 
ATOM     14  HN  UNL     1     -43.491 -50.931  12.304  1.00  0.00     0.187 HD
HETATM   15  C   UNL     1     -44.432 -53.332  12.413  1.00  0.00     0.069 C 
HETATM   16  C   UNL     1     -41.995 -53.912  12.846  1.00  0.00     0.031 A 
HETATM   17  C   UNL     1     -40.726 -53.510  12.943  1.00  0.00     0.078 A 
HETATM   18  C   UNL     1     -40.371 -52.083  12.808  1.00  0.00     0.262 A 
HETATM   19  O   UNL     1     -39.192 -51.758  12.913  1.00  0.00    -0.267 OA
ENDBRANCH   1  11
TORSDOF 3
ENDMDL
MODEL 5
REMARK VINA RESULT:      -5.4      2.364      3.856
REMARK  3 active torsions:
REMARK  status: ('A' for Active; 'I' for Inactive)
REMARK    1  A    between atoms: C_5  and  O_6 
REMARK    2  A    between atoms: C_5  and  C_7 
REMARK    3  A    between atoms: C_7  and  N_8 
ROOT
HETATM    1  C   UNL     1     -40.838 -52.158  11.697  1.00  0.00     0.190 C 
ENDROOT
BRANCH   1   2
HETATM    2  C   UNL     1     -40.879 -50.652  12.072  1.00  0.00     0.076 C 
HETATM    3  C   UNL     1     -39.813 -49.818  11.346  1.00  0.00     0.040 C 
HETATM    4  C   UNL     1     -38.395 -50.118  11.828  1.00  0.00     0.007 C 
HETATM    5  C   UNL     1     -38.239 -49.979  13.351  1.00  0.00    -0.019 C 
HETATM    6  C   UNL     1     -38.239 -48.509  13.783  1.00  0.00     0.010 C 
HETATM    7  C   UNL     1     -39.317 -50.778  14.097  1.00  0.00     0.007 C 
HETATM    8  C   UNL     1     -40.730 -50.484  13.596  1.00  0.00     0.040 C 
BRANCH   2   9
HETATM    9  O   UNL     1     -42.165 -50.113  11.724  1.00  0.00    -0.388 OA
HETATM   10  H   UNL     1     -42.142 -50.003  10.748  1.00  0.00     0.210 HD
ENDBRANCH   2   9
ENDBRANCH   1   2
BRANCH   1  11
HETATM   11  N   UNL     1     -41.838 -52.983  12.387  1.00  0.00    -0.255 N 
HETATM   12  N   UNL     1     -43.162 -52.696  12.111  1.00  0.00    -0.300 N 
HETATM   13  C   UNL     1     -44.069 -53.283  12.826  1.00  0.00     0.022 A 
ATOM     14  HN  UNL     1     -43.416 -52.044  11.368  1.00  0.00     0.187 HD
HETATM   15  C   UNL     1     -45.517 -52.993  12.528  1.00  0.00     0.069 C 
HETATM   16  C   UNL     1     -43.785 -54.206  13.940  1.00  0.00     0.031 A 
HETATM   17  C   UNL     1     -42.503 -54.491  14.176  1.00  0.00     0.078 A 
HETATM   18  C   UNL     1     -41.429 -53.877  13.370  1.00  0.00     0.262 A 
HETATM   19  O   UNL     1     -40.264 -54.163  13.629  1.00  0.00    -0.267 OA
ENDBRANCH   1  11
TORSDOF 3
ENDMDL
MODEL 6
REMARK VINA RESULT:      -5.3      1.966      5.630
REMARK  3 active torsions:
REMARK  status: ('A' for Active; 'I' for Inactive)
REMARK    1  A    between atoms: C_5  and  O_6 
REMARK    2  A    between atoms: C_5  and  C_7 
REMARK    3  A    between atoms: C_7  and  N_8 
ROOT
HETATM    1  C   UNL     1     -43.504 -53.893  13.098  1.00  0.00     0.190 C 
ENDROOT
BRANCH   1   2
HETATM    2  C   UNL     1     -44.392 -53.876  14.372  1.00  0.00     0.076 C 
HETATM    3  C   UNL     1     -45.894 -53.977  14.064  1.00  0.00     0.040 C 
HETATM    4  C   UNL     1     -46.450 -52.719  13.400  1.00  0.00     0.007 C 
HETATM    5  C   UNL     1     -46.151 -51.440  14.199  1.00  0.00    -0.019 C 
HETATM    6  C   UNL     1     -47.023 -51.347  15.455  1.00  0.00     0.010 C 
HETATM    7  C   UNL     1     -44.659 -51.335  14.548  1.00  0.00     0.007 C 
HETATM    8  C   UNL     1     -44.110 -52.605  15.195  1.00  0.00     0.040 C 
BRANCH   2   9
HETATM    9  O   UNL     1     -44.044 -54.992  15.207  1.00  0.00    -0.388 OA
HETATM   10  H   UNL     1     -44.239 -55.789  14.667  1.00  0.00     0.210 HD
ENDBRANCH   2   9
ENDBRANCH   1   2
BRANCH   1  11
HETATM   11  N   UNL     1     -42.079 -53.644  13.349  1.00  0.00    -0.255 N 
HETATM   12  N   UNL     1     -41.456 -54.501  14.237  1.00  0.00    -0.300 N 
HETATM   13  C   UNL     1     -40.251 -54.210  14.614  1.00  0.00     0.022 A 
ATOM     14  HN  UNL     1     -41.930 -55.335  14.585  1.00  0.00     0.187 HD
HETATM   15  C   UNL     1     -39.552 -55.142  15.569  1.00  0.00     0.069 C 
HETATM   16  C   UNL     1     -39.513 -53.007  14.190  1.00  0.00     0.031 A 
HETATM   17  C   UNL     1     -40.119 -52.204  13.313  1.00  0.00     0.078 A 
HETATM   18  C   UNL     1     -41.479 -52.505  12.824  1.00  0.00     0.262 A 
HETATM   19  O   UNL     1     -42.000 -51.733  12.024  1.00  0.00    -0.267 OA
ENDBRANCH   1  11
TORSDOF 3
ENDMDL
MODEL 7
REMARK VINA RESULT:      -4.8      3.434      4.787
REMARK  3 active torsions:
REMARK  status: ('A' for Active; 'I' for Inactive)
REMARK    1  A    between atoms: C_5  and  O_6 
REMARK    2  A    between atoms: C_5  and  C_7 
REMARK    3  A    between atoms: C_7  and  N_8 
ROOT
HETATM    1  C   UNL     1     -40.676 -50.934  11.867  1.00  0.00     0.190 C 
ENDROOT
BRANCH   1   2
HETATM    2  C   UNL     1     -40.961 -51.410  13.317  1.00  0.00     0.076 C 
HETATM    3  C   UNL     1     -40.291 -52.751  13.657  1.00  0.00     0.040 C 
HETATM    4  C   UNL     1     -40.919 -53.931  12.918  1.00  0.00     0.007 C 
HETATM    5  C   UNL     1     -42.439 -54.024  13.122  1.00  0.00    -0.019 C 
HETATM    6  C   UNL     1     -42.787 -54.523  14.529  1.00  0.00     0.010 C 
HETATM    7  C   UNL     1     -43.126 -52.684  12.821  1.00  0.00     0.007 C 
HETATM    8  C   UNL     1     -42.480 -51.508  13.551  1.00  0.00     0.040 C 
BRANCH   2   9
HETATM    9  O   UNL     1     -40.465 -50.430  14.243  1.00  0.00    -0.388 OA
HETATM   10  H   UNL     1     -39.516 -50.316  14.015  1.00  0.00     0.210 HD
ENDBRANCH   2   9
ENDBRANCH   1   2
BRANCH   1  11
HETATM   11  N   UNL     1     -40.903 -49.500  11.643  1.00  0.00    -0.255 N 
HETATM   12  N   UNL     1     -42.148 -49.148  11.158  1.00  0.00    -0.300 N 
HETATM   13  C   UNL     1     -42.327 -47.919  10.787  1.00  0.00     0.022 A 
ATOM     14  HN  UNL     1     -42.902 -49.833  11.094  1.00  0.00     0.187 HD
HETATM   15  C   UNL     1     -43.683 -47.516  10.270  1.00  0.00     0.069 C 
HETATM   16  C   UNL     1     -41.281 -46.881  10.811  1.00  0.00     0.031 A 
HETATM   17  C   UNL     1     -40.093 -47.232  11.306  1.00  0.00     0.078 A 
HETATM   18  C   UNL     1     -39.843 -48.610  11.774  1.00  0.00     0.262 A 
HETATM   19  O   UNL     1     -38.732 -48.889  12.215  1.00  0.00    -0.267 OA
ENDBRANCH   1  11
TORSDOF 3
ENDMDL
MODEL 8
REMARK VINA RESULT:      -4.8      2.642      4.183
REMARK  3 active torsions:
REMARK  status: ('A' for Active; 'I' for Inactive)
REMARK    1  A    between atoms: C_5  and  O_6 
REMARK    2  A    between atoms: C_5  and  C_7 
REMARK    3  A    between atoms: C_7  and  N_8 
ROOT
HETATM    1  C   UNL     1     -41.142 -51.723  14.178  1.00  0.00     0.190 C 
ENDROOT
BRANCH   1   2
HETATM    2  C   UNL     1     -40.071 -52.072  13.110  1.00  0.00     0.076 C 
HETATM    3  C   UNL     1     -38.632 -51.839  13.597  1.00  0.00     0.040 C 
HETATM    4  C   UNL     1     -38.295 -50.358  13.760  1.00  0.00     0.007 C 
HETATM    5  C   UNL     1     -38.571 -49.538  12.491  1.00  0.00    -0.019 C 
HETATM    6  C   UNL     1     -37.524 -49.813  11.406  1.00  0.00     0.010 C 
HETATM    7  C   UNL     1     -39.993 -49.782  11.966  1.00  0.00     0.007 C 
HETATM    8  C   UNL     1     -40.327 -51.266  11.822  1.00  0.00     0.040 C 
BRANCH   2   9
HETATM    9  O   UNL     1     -40.191 -53.459  12.755  1.00  0.00    -0.388 OA
HETATM   10  H   UNL     1     -39.979 -53.954  13.577  1.00  0.00     0.210 HD
ENDBRANCH   2   9
ENDBRANCH   1   2
BRANCH   1  11
HETATM   11  N   UNL     1     -42.131 -52.784  14.415  1.00  0.00    -0.255 N 
HETATM   12  N   UNL     1     -41.743 -53.800  15.267  1.00  0.00    -0.300 N 
HETATM   13  C   UNL     1     -42.517 -54.835  15.365  1.00  0.00     0.022 A 
ATOM     14  HN  UNL     1     -40.876 -53.738  15.802  1.00  0.00     0.187 HD
HETATM   15  C   UNL     1     -42.116 -55.945  16.301  1.00  0.00     0.069 C 
HETATM   16  C   UNL     1     -43.763 -55.019  14.600  1.00  0.00     0.031 A 
HETATM   17  C   UNL     1     -44.136 -54.017  13.802  1.00  0.00     0.078 A 
HETATM   18  C   UNL     1     -43.309 -52.800  13.677  1.00  0.00     0.262 A 
HETATM   19  O   UNL     1     -43.687 -51.907  12.924  1.00  0.00    -0.267 OA
ENDBRANCH   1  11
TORSDOF 3
ENDMDL
MODEL 9
REMARK VINA RESULT:      -4.8      3.316      5.461
REMARK  3 active torsions:
REMARK  status: ('A' for Active; 'I' for Inactive)
REMARK    1  A    between atoms: C_5  and  O_6 
REMARK    2  A    between atoms: C_5  and  C_7 
REMARK    3  A    between atoms: C_7  and  N_8 
ROOT
HETATM    1  C   UNL     1     -41.144 -50.053  13.403  1.00  0.00     0.190 C 
ENDROOT
BRANCH   1   2
HETATM    2  C   UNL     1     -40.689 -49.581  11.995  1.00  0.00     0.076 C 
HETATM    3  C   UNL     1     -39.343 -48.839  12.011  1.00  0.00     0.040 C 
HETATM    4  C   UNL     1     -39.430 -47.467  12.676  1.00  0.00     0.007 C 
HETATM    5  C   UNL     1     -40.527 -46.577  12.070  1.00  0.00    -0.019 C 
HETATM    6  C   UNL     1     -40.122 -46.051  10.689  1.00  0.00     0.010 C 
HETATM    7  C   UNL     1     -41.874 -47.311  12.013  1.00  0.00     0.007 C 
HETATM    8  C   UNL     1     -41.773 -48.690  11.361  1.00  0.00     0.040 C 
BRANCH   2   9
HETATM    9  O   UNL     1     -40.545 -50.725  11.137  1.00  0.00    -0.388 OA
HETATM   10  H   UNL     1     -41.313 -50.686  10.526  1.00  0.00     0.210 HD
ENDBRANCH   2   9
ENDBRANCH   1   2
BRANCH   1  11
HETATM   11  N   UNL     1     -41.428 -51.490  13.499  1.00  0.00    -0.255 N 
HETATM   12  N   UNL     1     -40.341 -52.314  13.716  1.00  0.00    -0.300 N 
HETATM   13  C   UNL     1     -40.527 -53.595  13.635  1.00  0.00     0.022 A 
ATOM     14  HN  UNL     1     -39.421 -51.928  13.933  1.00  0.00     0.187 HD
HETATM   15  C   UNL     1     -39.354 -54.507  13.884  1.00  0.00     0.069 C 
HETATM   16  C   UNL     1     -41.810 -54.230  13.288  1.00  0.00     0.031 A 
HETATM   17  C   UNL     1     -42.856 -53.421  13.107  1.00  0.00     0.078 A 
HETATM   18  C   UNL     1     -42.708 -51.956  13.220  1.00  0.00     0.262 A 
HETATM   19  O   UNL     1     -43.696 -51.250  13.036  1.00  0.00    -0.267 OA
ENDBRANCH   1  11
TORSDOF 3
ENDMDL
