MODEL 1
REMARK VINA RESULT:      -7.0      0.000      0.000
REMARK  3 active torsions:
REMARK  status: ('A' for Active; 'I' for Inactive)
REMARK       I    between atoms: C_2  and  N_3 
REMARK       I    between atoms: C_2  and  N_13 
REMARK    1  A    between atoms: N_3  and  C_4 
REMARK    2  A    between atoms: N_13  and  C_14 
REMARK    3  A    between atoms: C_17  and  N_21 
ROOT
HETATM    1  O   UNL     1     -40.767 -52.672  11.824  1.00  0.00    -0.247 OA
HETATM    2  C   UNL     1     -41.061 -51.486  11.937  1.00  0.00     0.321 C 
HETATM    3  N   UNL     1     -41.980 -51.005  12.829  1.00  0.00    -0.336 N 
HETATM    4  N   UNL     1     -40.518 -50.594  11.067  1.00  0.00    -0.308 N 
HETATM    5  H   UNL     1     -42.320 -50.063  12.716  1.00  0.00     0.164 HD
HETATM    6  H   UNL     1     -40.164 -51.064  10.244  1.00  0.00     0.170 HD
ENDROOT
BRANCH   4   7
HETATM    7  C   UNL     1     -40.695 -49.211  11.018  1.00  0.00     0.051 A 
HETATM    8  C   UNL     1     -39.836 -48.428  11.772  1.00  0.00     0.035 A 
HETATM    9  C   UNL     1     -39.953 -47.047  11.699  1.00  0.00     0.051 A 
HETATM   10  C   UNL     1     -40.970 -46.460  10.941  1.00  0.00     0.103 A 
HETATM   11  N   UNL     1     -41.842 -47.226  10.247  1.00  0.00    -0.350 N 
HETATM   12  C   UNL     1     -41.685 -48.573  10.291  1.00  0.00     0.119 A 
ATOM     13  HN  UNL     1     -42.596 -46.804   9.705  1.00  0.00     0.166 HD
BRANCH  10  14
HETATM   14  N   UNL     1     -41.112 -45.094  10.927  1.00  0.00    -0.363 N 
HETATM   15  C   UNL     1     -39.948 -44.228  11.124  1.00  0.00     0.150 C 
HETATM   16  C   UNL     1     -40.149 -43.301  12.328  1.00  0.00     0.187 C 
HETATM   17  O   UNL     1     -41.398 -42.592  12.252  1.00  0.00    -0.388 OA
HETATM   18  C   UNL     1     -42.489 -43.526  12.231  1.00  0.00     0.187 C 
HETATM   19  C   UNL     1     -42.422 -44.446  11.003  1.00  0.00     0.150 C 
ENDBRANCH  10  14
ENDBRANCH   4   7
BRANCH   3  20
HETATM   20  C   UNL     1     -42.654 -51.844  13.812  1.00  0.00     0.121 C 
HETATM   21  C   UNL     1     -42.070 -51.771  15.231  1.00  0.00     0.057 C 
HETATM   22  C   UNL     1     -43.250 -51.393  16.133  1.00  0.00     0.275 C 
HETATM   23  N   UNL     1     -44.426 -51.819  15.372  1.00  0.00     0.095 N 
HETATM   24  C   UNL     1     -45.665 -51.148  15.774  1.00  0.00     0.273 C 
HETATM   25  C   UNL     1     -44.109 -51.436  13.992  1.00  0.00     0.245 C 
HETATM   26  C   UNL     1     -46.818 -51.555  14.833  1.00  0.00     0.030 C 
HETATM   27  C   UNL     1     -46.469 -51.447  13.338  1.00  0.00     0.004 C 
HETATM   28  C   UNL     1     -45.106 -52.072  13.040  1.00  0.00     0.038 C 
ENDBRANCH   3  20
TORSDOF 3
ENDMDL
MODEL 2
REMARK VINA RESULT:      -6.7      0.946      1.397
REMARK  3 active torsions:
REMARK  status: ('A' for Active; 'I' for Inactive)
REMARK       I    between atoms: C_2  and  N_3 
REMARK       I    between atoms: C_2  and  N_13 
REMARK    1  A    between atoms: N_3  and  C_4 
REMARK    2  A    between atoms: N_13  and  C_14 
REMARK    3  A    between atoms: C_17  and  N_21 
ROOT
HETATM    1  O   UNL     1     -40.577 -53.251  12.035  1.00  0.00    -0.247 OA
HETATM    2  C   UNL     1     -40.907 -52.086  12.242  1.00  0.00     0.321 C 
HETATM    3  N   UNL     1     -41.980 -51.718  13.004  1.00  0.00    -0.336 N 
HETATM    4  N   UNL     1     -40.229 -51.094  11.607  1.00  0.00    -0.308 N 
HETATM    5  H   UNL     1     -42.310 -50.766  12.953  1.00  0.00     0.164 HD
HETATM    6  H   UNL     1     -39.723 -51.458  10.810  1.00  0.00     0.170 HD
ENDROOT
BRANCH   4   7
HETATM    7  C   UNL     1     -40.417 -49.715  11.703  1.00  0.00     0.051 A 
HETATM    8  C   UNL     1     -39.667 -49.030  12.644  1.00  0.00     0.035 A 
HETATM    9  C   UNL     1     -39.792 -47.650  12.723  1.00  0.00     0.051 A 
HETATM   10  C   UNL     1     -40.717 -46.975  11.922  1.00  0.00     0.103 A 
HETATM   11  N   UNL     1     -41.489 -47.650  11.040  1.00  0.00    -0.350 N 
HETATM   12  C   UNL     1     -41.320 -48.993  10.942  1.00  0.00     0.119 A 
ATOM     13  HN  UNL     1     -42.177 -47.165  10.465  1.00  0.00     0.166 HD
BRANCH  10  14
HETATM   14  N   UNL     1     -40.875 -45.617  12.054  1.00  0.00    -0.363 N 
HETATM   15  C   UNL     1     -42.215 -45.036  12.157  1.00  0.00     0.150 C 
HETATM   16  C   UNL     1     -42.460 -44.014  11.040  1.00  0.00     0.187 C 
HETATM   17  O   UNL     1     -41.404 -43.040  10.969  1.00  0.00    -0.388 OA
HETATM   18  C   UNL     1     -40.154 -43.692  10.700  1.00  0.00     0.187 C 
HETATM   19  C   UNL     1     -39.778 -44.678  11.817  1.00  0.00     0.150 C 
ENDBRANCH  10  14
ENDBRANCH   4   7
BRANCH   3  20
HETATM   20  C   UNL     1     -42.808 -52.670  13.733  1.00  0.00     0.121 C 
HETATM   21  C   UNL     1     -42.241 -53.112  15.091  1.00  0.00     0.057 C 
HETATM   22  C   UNL     1     -43.347 -52.806  16.108  1.00  0.00     0.275 C 
HETATM   23  N   UNL     1     -44.569 -52.782  15.303  1.00  0.00     0.095 N 
HETATM   24  C   UNL     1     -45.674 -52.047  15.925  1.00  0.00     0.273 C 
HETATM   25  C   UNL     1     -44.169 -52.081  14.077  1.00  0.00     0.245 C 
HETATM   26  C   UNL     1     -46.867 -51.957  14.952  1.00  0.00     0.030 C 
HETATM   27  C   UNL     1     -46.482 -51.488  13.538  1.00  0.00     0.004 C 
HETATM   28  C   UNL     1     -45.250 -52.232  13.022  1.00  0.00     0.038 C 
ENDBRANCH   3  20
TORSDOF 3
ENDMDL
MODEL 3
REMARK VINA RESULT:      -6.4      3.481      4.249
REMARK  3 active torsions:
REMARK  status: ('A' for Active; 'I' for Inactive)
REMARK       I    between atoms: C_2  and  N_3 
REMARK       I    between atoms: C_2  and  N_13 
REMARK    1  A    between atoms: N_3  and  C_4 
REMARK    2  A    between atoms: N_13  and  C_14 
REMARK    3  A    between atoms: C_17  and  N_21 
ROOT
HETATM    1  O   UNL     1     -44.570 -54.071  12.149  1.00  0.00    -0.247 OA
HETATM    2  C   UNL     1     -43.711 -53.361  12.664  1.00  0.00     0.321 C 
HETATM    3  N   UNL     1     -43.623 -53.116  14.006  1.00  0.00    -0.336 N 
HETATM    4  N   UNL     1     -42.845 -52.696  11.855  1.00  0.00    -0.308 N 
HETATM    5  H   UNL     1     -43.033 -52.363  14.326  1.00  0.00     0.164 HD
HETATM    6  H   UNL     1     -43.204 -52.640  10.911  1.00  0.00     0.170 HD
ENDROOT
BRANCH   4   7
HETATM    7  C   UNL     1     -41.790 -51.857  12.216  1.00  0.00     0.051 A 
HETATM    8  C   UNL     1     -42.026 -50.492  12.208  1.00  0.00     0.035 A 
HETATM    9  C   UNL     1     -41.013 -49.636  12.618  1.00  0.00     0.051 A 
HETATM   10  C   UNL     1     -39.753 -50.138  12.954  1.00  0.00     0.103 A 
HETATM   11  N   UNL     1     -39.506 -51.468  12.910  1.00  0.00    -0.350 N 
HETATM   12  C   UNL     1     -40.521 -52.295  12.554  1.00  0.00     0.119 A 
ATOM     13  HN  UNL     1     -38.584 -51.838  13.139  1.00  0.00     0.166 HD
BRANCH  10  14
HETATM   14  N   UNL     1     -38.741 -49.275  13.297  1.00  0.00    -0.363 N 
HETATM   15  C   UNL     1     -37.506 -49.787  13.895  1.00  0.00     0.150 C 
HETATM   16  C   UNL     1     -37.252 -49.147  15.266  1.00  0.00     0.187 C 
HETATM   17  O   UNL     1     -37.323 -47.712  15.205  1.00  0.00    -0.388 OA
HETATM   18  C   UNL     1     -38.627 -47.304  14.767  1.00  0.00     0.187 C 
HETATM   19  C   UNL     1     -38.939 -47.826  13.356  1.00  0.00     0.150 C 
ENDBRANCH  10  14
ENDBRANCH   4   7
BRANCH   3  20
HETATM   20  C   UNL     1     -44.492 -53.745  14.992  1.00  0.00     0.121 C 
HETATM   21  C   UNL     1     -43.758 -54.449  16.144  1.00  0.00     0.057 C 
HETATM   22  C   UNL     1     -44.327 -53.826  17.424  1.00  0.00     0.275 C 
HETATM   23  N   UNL     1     -45.633 -53.305  17.013  1.00  0.00     0.095 N 
HETATM   24  C   UNL     1     -46.157 -52.260  17.895  1.00  0.00     0.273 C 
HETATM   25  C   UNL     1     -45.378 -52.723  15.691  1.00  0.00     0.245 C 
HETATM   26  C   UNL     1     -47.461 -51.677  17.311  1.00  0.00     0.030 C 
HETATM   27  C   UNL     1     -47.361 -51.292  15.825  1.00  0.00     0.004 C 
HETATM   28  C   UNL     1     -46.695 -52.400  15.008  1.00  0.00     0.038 C 
ENDBRANCH   3  20
TORSDOF 3
ENDMDL
MODEL 4
REMARK VINA RESULT:      -6.2      2.775      7.820
REMARK  3 active torsions:
REMARK  status: ('A' for Active; 'I' for Inactive)
REMARK       I    between atoms: C_2  and  N_3 
REMARK       I    between atoms: C_2  and  N_13 
REMARK    1  A    between atoms: N_3  and  C_4 
REMARK    2  A    between atoms: N_13  and  C_14 
REMARK    3  A    between atoms: C_17  and  N_21 
ROOT
HETATM    1  O   UNL     1     -38.113 -49.232  11.458  1.00  0.00    -0.247 OA
HETATM    2  C   UNL     1     -39.159 -49.749  11.842  1.00  0.00     0.321 C 
HETATM    3  N   UNL     1     -40.316 -49.058  12.073  1.00  0.00    -0.336 N 
HETATM    4  N   UNL     1     -39.156 -51.073  12.150  1.00  0.00    -0.308 N 
HETATM    5  H   UNL     1     -41.059 -49.510  12.584  1.00  0.00     0.164 HD
HETATM    6  H   UNL     1     -38.213 -51.405  12.305  1.00  0.00     0.170 HD
ENDROOT
BRANCH   4   7
HETATM    7  C   UNL     1     -40.220 -51.865  12.585  1.00  0.00     0.051 A 
HETATM    8  C   UNL     1     -40.274 -52.181  13.932  1.00  0.00     0.035 A 
HETATM    9  C   UNL     1     -41.351 -52.920  14.402  1.00  0.00     0.051 A 
HETATM   10  C   UNL     1     -42.320 -53.403  13.519  1.00  0.00     0.103 A 
HETATM   11  N   UNL     1     -42.238 -53.139  12.194  1.00  0.00    -0.350 N 
HETATM   12  C   UNL     1     -41.205 -52.376  11.758  1.00  0.00     0.119 A 
ATOM     13  HN  UNL     1     -42.933 -53.503  11.543  1.00  0.00     0.166 HD
BRANCH  10  14
HETATM   14  N   UNL     1     -43.346 -54.185  13.988  1.00  0.00    -0.363 N 
HETATM   15  C   UNL     1     -44.589 -54.309  13.224  1.00  0.00     0.150 C 
HETATM   16  C   UNL     1     -45.795 -53.860  14.058  1.00  0.00     0.187 C 
HETATM   17  O   UNL     1     -45.829 -54.512  15.339  1.00  0.00    -0.388 OA
HETATM   18  C   UNL     1     -44.642 -54.194  16.081  1.00  0.00     0.187 C 
HETATM   19  C   UNL     1     -43.377 -54.689  15.362  1.00  0.00     0.150 C 
ENDBRANCH  10  14
ENDBRANCH   4   7
BRANCH   3  20
HETATM   20  C   UNL     1     -40.464 -47.634  11.803  1.00  0.00     0.121 C 
HETATM   21  C   UNL     1     -41.799 -47.234  11.157  1.00  0.00     0.057 C 
HETATM   22  C   UNL     1     -42.388 -46.162  12.081  1.00  0.00     0.275 C 
HETATM   23  N   UNL     1     -41.222 -45.625  12.786  1.00  0.00     0.095 N 
HETATM   24  C   UNL     1     -41.550 -44.952  14.045  1.00  0.00     0.273 C 
HETATM   25  C   UNL     1     -40.414 -46.813  13.084  1.00  0.00     0.245 C 
HETATM   26  C   UNL     1     -40.258 -44.544  14.782  1.00  0.00     0.030 C 
HETATM   27  C   UNL     1     -39.221 -45.675  14.894  1.00  0.00     0.004 C 
HETATM   28  C   UNL     1     -39.035 -46.392  13.557  1.00  0.00     0.038 C 
ENDBRANCH   3  20
TORSDOF 3
ENDMDL
MODEL 5
REMARK VINA RESULT:      -6.2      2.122      2.838
REMARK  3 active torsions:
REMARK  status: ('A' for Active; 'I' for Inactive)
REMARK       I    between atoms: C_2  and  N_3 
REMARK       I    between atoms: C_2  and  N_13 
REMARK    1  A    between atoms: N_3  and  C_4 
REMARK    2  A    between atoms: N_13  and  C_14 
REMARK    3  A    between atoms: C_17  and  N_21 
ROOT
HETATM    1  O   UNL     1     -39.769 -53.089  15.652  1.00  0.00    -0.247 OA
HETATM    2  C   UNL     1     -40.343 -52.269  14.940  1.00  0.00     0.321 C 
HETATM    3  N   UNL     1     -41.696 -52.069  14.939  1.00  0.00    -0.336 N 
HETATM    4  N   UNL     1     -39.614 -51.576  14.027  1.00  0.00    -0.308 N 
HETATM    5  H   UNL     1     -42.109 -51.540  14.186  1.00  0.00     0.164 HD
HETATM    6  H   UNL     1     -38.732 -52.037  13.845  1.00  0.00     0.170 HD
ENDROOT
BRANCH   4   7
HETATM    7  C   UNL     1     -40.048 -50.594  13.135  1.00  0.00     0.051 A 
HETATM    8  C   UNL     1     -40.000 -49.276  13.559  1.00  0.00     0.035 A 
HETATM    9  C   UNL     1     -40.371 -48.275  12.673  1.00  0.00     0.051 A 
HETATM   10  C   UNL     1     -40.860 -48.596  11.404  1.00  0.00     0.103 A 
HETATM   11  N   UNL     1     -40.958 -49.886  11.009  1.00  0.00    -0.350 N 
HETATM   12  C   UNL     1     -40.546 -50.851  11.869  1.00  0.00     0.119 A 
ATOM     13  HN  UNL     1     -41.330 -50.126  10.090  1.00  0.00     0.166 HD
BRANCH  10  14
HETATM   14  N   UNL     1     -41.283 -47.598  10.560  1.00  0.00    -0.363 N 
HETATM   15  C   UNL     1     -40.780 -46.232  10.722  1.00  0.00     0.150 C 
HETATM   16  C   UNL     1     -41.931 -45.245  10.950  1.00  0.00     0.187 C 
HETATM   17  O   UNL     1     -42.953 -45.377   9.947  1.00  0.00    -0.388 OA
HETATM   18  C   UNL     1     -43.501 -46.704   9.979  1.00  0.00     0.187 C 
HETATM   19  C   UNL     1     -42.433 -47.765   9.671  1.00  0.00     0.150 C 
ENDBRANCH  10  14
ENDBRANCH   4   7
BRANCH   3  20
HETATM   20  C   UNL     1     -42.605 -52.750  15.851  1.00  0.00     0.121 C 
HETATM   21  C   UNL     1     -43.155 -51.875  16.989  1.00  0.00     0.057 C 
HETATM   22  C   UNL     1     -44.680 -51.987  16.881  1.00  0.00     0.275 C 
HETATM   23  N   UNL     1     -44.892 -53.248  16.168  1.00  0.00     0.095 N 
HETATM   24  C   UNL     1     -46.202 -53.348  15.520  1.00  0.00     0.273 C 
HETATM   25  C   UNL     1     -43.853 -53.245  15.133  1.00  0.00     0.245 C 
HETATM   26  C   UNL     1     -46.283 -54.641  14.683  1.00  0.00     0.030 C 
HETATM   27  C   UNL     1     -45.074 -54.860  13.757  1.00  0.00     0.004 C 
HETATM   28  C   UNL     1     -43.758 -54.619  14.495  1.00  0.00     0.038 C 
ENDBRANCH   3  20
TORSDOF 3
ENDMDL
MODEL 6
REMARK VINA RESULT:      -6.2      4.837      8.362
REMARK  3 active torsions:
REMARK  status: ('A' for Active; 'I' for Inactive)
REMARK       I    between atoms: C_2  and  N_3 
REMARK       I    between atoms: C_2  and  N_13 
REMARK    1  A    between atoms: N_3  and  C_4 
REMARK    2  A    between atoms: N_13  and  C_14 
REMARK    3  A    between atoms: C_17  and  N_21 
ROOT
HETATM    1  O   UNL     1     -41.493 -51.098  12.111  1.00  0.00    -0.247 OA
HETATM    2  C   UNL     1     -41.252 -51.990  12.919  1.00  0.00     0.321 C 
HETATM    3  N   UNL     1     -42.205 -52.791  13.484  1.00  0.00    -0.336 N 
HETATM    4  N   UNL     1     -39.975 -52.143  13.359  1.00  0.00    -0.308 N 
HETATM    5  H   UNL     1     -41.959 -53.348  14.288  1.00  0.00     0.164 HD
HETATM    6  H   UNL     1     -39.432 -51.307  13.186  1.00  0.00     0.170 HD
ENDROOT
BRANCH   4   7
HETATM    7  C   UNL     1     -39.473 -53.089  14.254  1.00  0.00     0.051 A 
HETATM    8  C   UNL     1     -39.230 -52.676  15.553  1.00  0.00     0.035 A 
HETATM    9  C   UNL     1     -38.784 -53.610  16.479  1.00  0.00     0.051 A 
HETATM   10  C   UNL     1     -38.508 -54.922  16.086  1.00  0.00     0.103 A 
HETATM   11  N   UNL     1     -38.694 -55.311  14.803  1.00  0.00    -0.350 N 
HETATM   12  C   UNL     1     -39.176 -54.399  13.922  1.00  0.00     0.119 A 
ATOM     13  HN  UNL     1     -38.479 -56.264  14.508  1.00  0.00     0.166 HD
BRANCH  10  14
HETATM   14  N   UNL     1     -38.008 -55.820  16.997  1.00  0.00    -0.363 N 
HETATM   15  C   UNL     1     -38.852 -56.903  17.505  1.00  0.00     0.150 C 
HETATM   16  C   UNL     1     -38.967 -56.841  19.033  1.00  0.00     0.187 C 
HETATM   17  O   UNL     1     -37.676 -56.760  19.662  1.00  0.00    -0.388 OA
HETATM   18  C   UNL     1     -36.993 -55.575  19.226  1.00  0.00     0.187 C 
HETATM   19  C   UNL     1     -36.750 -55.588  17.709  1.00  0.00     0.150 C 
ENDBRANCH  10  14
ENDBRANCH   4   7
BRANCH   3  20
HETATM   20  C   UNL     1     -43.615 -52.732  13.122  1.00  0.00     0.121 C 
HETATM   21  C   UNL     1     -44.207 -54.055  12.612  1.00  0.00     0.057 C 
HETATM   22  C   UNL     1     -45.418 -54.328  13.512  1.00  0.00     0.275 C 
HETATM   23  N   UNL     1     -45.780 -53.006  14.027  1.00  0.00     0.095 N 
HETATM   24  C   UNL     1     -46.571 -53.047  15.259  1.00  0.00     0.273 C 
HETATM   25  C   UNL     1     -44.487 -52.377  14.319  1.00  0.00     0.245 C 
HETATM   26  C   UNL     1     -46.787 -51.618  15.800  1.00  0.00     0.030 C 
HETATM   27  C   UNL     1     -45.498 -50.781  15.876  1.00  0.00     0.004 C 
HETATM   28  C   UNL     1     -44.684 -50.896  14.587  1.00  0.00     0.038 C 
ENDBRANCH   3  20
TORSDOF 3
ENDMDL
MODEL 7
REMARK VINA RESULT:      -6.0      2.850      3.399
REMARK  3 active torsions:
REMARK  status: ('A' for Active; 'I' for Inactive)
REMARK       I    between atoms: C_2  and  N_3 
REMARK       I    between atoms: C_2  and  N_13 
REMARK    1  A    between atoms: N_3  and  C_4 
REMARK    2  A    between atoms: N_13  and  C_14 
REMARK    3  A    between atoms: C_17  and  N_21 
ROOT
HETATM    1  O   UNL     1     -37.035 -51.944  12.520  1.00  0.00    -0.247 OA
HETATM    2  C   UNL     1     -37.837 -51.093  12.895  1.00  0.00     0.321 C 
HETATM    3  N   UNL     1     -38.892 -51.347  13.726  1.00  0.00    -0.336 N 
HETATM    4  N   UNL     1     -37.738 -49.836  12.388  1.00  0.00    -0.308 N 
HETATM    5  H   UNL     1     -39.620 -50.655  13.815  1.00  0.00     0.164 HD
HETATM    6  H   UNL     1     -37.192 -49.833  11.537  1.00  0.00     0.170 HD
ENDROOT
BRANCH   4   7
HETATM    7  C   UNL     1     -38.521 -48.718  12.680  1.00  0.00     0.051 A 
HETATM    8  C   UNL     1     -38.185 -47.975  13.799  1.00  0.00     0.035 A 
HETATM    9  C   UNL     1     -38.910 -46.826  14.081  1.00  0.00     0.051 A 
HETATM   10  C   UNL     1     -40.010 -46.471  13.296  1.00  0.00     0.103 A 
HETATM   11  N   UNL     1     -40.371 -47.226  12.233  1.00  0.00    -0.350 N 
HETATM   12  C   UNL     1     -39.623 -48.320  11.943  1.00  0.00     0.119 A 
ATOM     13  HN  UNL     1     -41.183 -46.981  11.666  1.00  0.00     0.166 HD
BRANCH  10  14
HETATM   14  N   UNL     1     -40.758 -45.366  13.623  1.00  0.00    -0.363 N 
HETATM   15  C   UNL     1     -42.149 -45.258  13.178  1.00  0.00     0.150 C 
HETATM   16  C   UNL     1     -42.361 -43.994  12.336  1.00  0.00     0.187 C 
HETATM   17  O   UNL     1     -41.867 -42.820  13.003  1.00  0.00    -0.388 OA
HETATM   18  C   UNL     1     -40.458 -42.952  13.246  1.00  0.00     0.187 C 
HETATM   19  C   UNL     1     -40.152 -44.147  14.162  1.00  0.00     0.150 C 
ENDBRANCH  10  14
ENDBRANCH   4   7
BRANCH   3  20
HETATM   20  C   UNL     1     -39.135 -52.649  14.335  1.00  0.00     0.121 C 
HETATM   21  C   UNL     1     -38.787 -52.739  15.829  1.00  0.00     0.057 C 
HETATM   22  C   UNL     1     -40.069 -53.230  16.512  1.00  0.00     0.275 C 
HETATM   23  N   UNL     1     -40.804 -53.902  15.439  1.00  0.00     0.095 N 
HETATM   24  C   UNL     1     -42.241 -54.028  15.696  1.00  0.00     0.273 C 
HETATM   25  C   UNL     1     -40.608 -53.029  14.277  1.00  0.00     0.245 C 
HETATM   26  C   UNL     1     -42.952 -54.620  14.461  1.00  0.00     0.030 C 
HETATM   27  C   UNL     1     -42.580 -53.929  13.138  1.00  0.00     0.004 C 
HETATM   28  C   UNL     1     -41.067 -53.739  13.016  1.00  0.00     0.038 C 
ENDBRANCH   3  20
TORSDOF 3
ENDMDL
MODEL 8
REMARK VINA RESULT:      -5.9      3.553      7.783
REMARK  3 active torsions:
REMARK  status: ('A' for Active; 'I' for Inactive)
REMARK       I    between atoms: C_2  and  N_3 
REMARK       I    between atoms: C_2  and  N_13 
REMARK    1  A    between atoms: N_3  and  C_4 
REMARK    2  A    between atoms: N_13  and  C_14 
REMARK    3  A    between atoms: C_17  and  N_21 
ROOT
HETATM    1  O   UNL     1     -39.751 -45.870  11.491  1.00  0.00    -0.247 OA
HETATM    2  C   UNL     1     -40.034 -46.964  11.972  1.00  0.00     0.321 C 
HETATM    3  N   UNL     1     -39.708 -47.349  13.242  1.00  0.00    -0.336 N 
HETATM    4  N   UNL     1     -40.623 -47.893  11.174  1.00  0.00    -0.308 N 
HETATM    5  H   UNL     1     -39.783 -48.324  13.489  1.00  0.00     0.164 HD
HETATM    6  H   UNL     1     -40.489 -47.667  10.198  1.00  0.00     0.170 HD
ENDROOT
BRANCH   4   7
HETATM    7  C   UNL     1     -41.043 -49.182  11.508  1.00  0.00     0.051 A 
HETATM    8  C   UNL     1     -42.190 -49.304  12.274  1.00  0.00     0.035 A 
HETATM    9  C   UNL     1     -42.662 -50.575  12.572  1.00  0.00     0.051 A 
HETATM   10  C   UNL     1     -41.948 -51.708  12.175  1.00  0.00     0.103 A 
HETATM   11  N   UNL     1     -40.798 -51.587  11.471  1.00  0.00    -0.350 N 
HETATM   12  C   UNL     1     -40.376 -50.340  11.147  1.00  0.00     0.119 A 
ATOM     13  HN  UNL     1     -40.265 -52.411  11.193  1.00  0.00     0.166 HD
BRANCH  10  14
HETATM   14  N   UNL     1     -42.393 -52.958  12.530  1.00  0.00    -0.363 N 
HETATM   15  C   UNL     1     -43.828 -53.245  12.575  1.00  0.00     0.150 C 
HETATM   16  C   UNL     1     -44.251 -53.721  13.969  1.00  0.00     0.187 C 
HETATM   17  O   UNL     1     -43.424 -54.800  14.438  1.00  0.00    -0.388 OA
HETATM   18  C   UNL     1     -42.057 -54.369  14.519  1.00  0.00     0.187 C 
HETATM   19  C   UNL     1     -41.513 -53.954  13.143  1.00  0.00     0.150 C 
ENDBRANCH  10  14
ENDBRANCH   4   7
BRANCH   3  20
HETATM   20  C   UNL     1     -39.062 -46.466  14.205  1.00  0.00     0.121 C 
HETATM   21  C   UNL     1     -40.023 -45.597  15.031  1.00  0.00     0.057 C 
HETATM   22  C   UNL     1     -39.680 -45.898  16.494  1.00  0.00     0.275 C 
HETATM   23  N   UNL     1     -38.303 -46.392  16.440  1.00  0.00     0.095 N 
HETATM   24  C   UNL     1     -37.914 -47.190  17.605  1.00  0.00     0.273 C 
HETATM   25  C   UNL     1     -38.285 -47.252  15.252  1.00  0.00     0.245 C 
HETATM   26  C   UNL     1     -36.504 -47.780  17.399  1.00  0.00     0.030 C 
HETATM   27  C   UNL     1     -36.312 -48.470  16.037  1.00  0.00     0.004 C 
HETATM   28  C   UNL     1     -36.853 -47.609  14.896  1.00  0.00     0.038 C 
ENDBRANCH   3  20
TORSDOF 3
ENDMDL
MODEL 9
REMARK VINA RESULT:      -5.7      2.982      8.109
REMARK  3 active torsions:
REMARK  status: ('A' for Active; 'I' for Inactive)
REMARK       I    between atoms: C_2  and  N_3 
REMARK       I    between atoms: C_2  and  N_13 
REMARK    1  A    between atoms: N_3  and  C_4 
REMARK    2  A    between atoms: N_13  and  C_14 
REMARK    3  A    between atoms: C_17  and  N_21 
ROOT
HETATM    1  O   UNL     1     -43.365 -43.351  10.173  1.00  0.00    -0.247 OA
HETATM    2  C   UNL     1     -42.856 -44.311  10.744  1.00  0.00     0.321 C 
HETATM    3  N   UNL     1     -42.510 -44.322  12.066  1.00  0.00    -0.336 N 
HETATM    4  N   UNL     1     -42.526 -45.405  10.009  1.00  0.00    -0.308 N 
HETATM    5  H   UNL     1     -41.910 -45.058  12.407  1.00  0.00     0.164 HD
HETATM    6  H   UNL     1     -42.472 -45.175   9.025  1.00  0.00     0.170 HD
ENDROOT
BRANCH   4   7
HETATM    7  C   UNL     1     -41.959 -46.605  10.443  1.00  0.00     0.051 A 
HETATM    8  C   UNL     1     -40.635 -46.578  10.849  1.00  0.00     0.035 A 
HETATM    9  C   UNL     1     -40.063 -47.743  11.339  1.00  0.00     0.051 A 
HETATM   10  C   UNL     1     -40.786 -48.939  11.348  1.00  0.00     0.103 A 
HETATM   11  N   UNL     1     -42.062 -48.977  10.902  1.00  0.00    -0.350 N 
HETATM   12  C   UNL     1     -42.623 -47.819  10.470  1.00  0.00     0.119 A 
ATOM     13  HN  UNL     1     -42.589 -49.851  10.891  1.00  0.00     0.166 HD
BRANCH  10  14
HETATM   14  N   UNL     1     -40.187 -50.099  11.778  1.00  0.00    -0.363 N 
HETATM   15  C   UNL     1     -40.969 -51.330  11.905  1.00  0.00     0.150 C 
HETATM   16  C   UNL     1     -40.913 -51.873  13.337  1.00  0.00     0.187 C 
HETATM   17  O   UNL     1     -39.559 -51.988  13.811  1.00  0.00    -0.388 OA
HETATM   18  C   UNL     1     -38.929 -50.698  13.806  1.00  0.00     0.187 C 
HETATM   19  C   UNL     1     -38.857 -50.109  12.389  1.00  0.00     0.150 C 
ENDBRANCH  10  14
ENDBRANCH   4   7
BRANCH   3  20
HETATM   20  C   UNL     1     -42.788 -43.217  12.974  1.00  0.00     0.121 C 
HETATM   21  C   UNL     1     -43.057 -43.628  14.430  1.00  0.00     0.057 C 
HETATM   22  C   UNL     1     -42.052 -42.828  15.267  1.00  0.00     0.275 C 
HETATM   23  N   UNL     1     -41.718 -41.683  14.418  1.00  0.00     0.095 N 
HETATM   24  C   UNL     1     -40.447 -41.042  14.762  1.00  0.00     0.273 C 
HETATM   25  C   UNL     1     -41.605 -42.263  13.075  1.00  0.00     0.245 C 
HETATM   26  C   UNL     1     -40.112 -39.941  13.735  1.00  0.00     0.030 C 
HETATM   27  C   UNL     1     -40.242 -40.395  12.270  1.00  0.00     0.004 C 
HETATM   28  C   UNL     1     -41.548 -41.155  12.039  1.00  0.00     0.038 C 
ENDBRANCH   3  20
TORSDOF 3
ENDMDL
