MODEL 1
REMARK VINA RESULT:      -5.9      0.000      0.000
REMARK  3 active torsions:
REMARK  status: ('A' for Active; 'I' for Inactive)
REMARK    1  A    between atoms: O_2  and  C_3 
REMARK    2  A    between atoms: C_9  and  N_10 
REMARK    3  A    between atoms: N_10  and  C_11 
ROOT
HETATM    1  C   UNL     1     -41.658 -45.927  10.156  1.00  0.00     0.145 A 
HETATM    2  C   UNL     1     -42.993 -45.961   9.838  1.00  0.00     0.080 A 
HETATM    3  C   UNL     1     -43.562 -47.211   9.816  1.00  0.00     0.012 A 
HETATM    4  C   UNL     1     -45.022 -47.400   9.545  1.00  0.00     0.068 C 
HETATM    5  N   UNL     1     -42.846 -48.326  10.063  1.00  0.00    -0.337 N 
ATOM      6  HN  UNL     1     -43.269 -49.251   9.982  1.00  0.00     0.168 HD
HETATM    7  C   UNL     1     -41.562 -48.185  10.417  1.00  0.00     0.159 A 
HETATM    8  N   UNL     1     -40.934 -47.009  10.481  1.00  0.00    -0.313 N 
ATOM      9  HN  UNL     1     -39.956 -46.937  10.761  1.00  0.00     0.170 HD
ENDROOT
BRANCH   7  10
HETATM   10  N   UNL     1     -40.887 -49.364  10.694  1.00  0.00    -0.257 NA
HETATM   11  H   UNL     1     -40.212 -49.487   9.947  1.00  0.00     0.131 HD
BRANCH  10  12
HETATM   12  C   UNL     1     -40.369 -49.519  12.043  1.00  0.00     0.094 C 
HETATM   13  C   UNL     1     -39.198 -50.517  12.068  1.00  0.00     0.054 C 
HETATM   14  C   UNL     1     -39.731 -51.626  12.974  1.00  0.00     0.123 C 
HETATM   15  C   UNL     1     -40.836 -52.421  12.280  1.00  0.00     0.034 C 
HETATM   16  O   UNL     1     -40.482 -50.858  13.944  1.00  0.00    -0.379 OA
HETATM   17  C   UNL     1     -42.018 -51.454  12.356  1.00  0.00     0.036 C 
HETATM   18  C   UNL     1     -41.374 -50.217  12.992  1.00  0.00     0.140 C 
ENDBRANCH  10  12
ENDBRANCH   7  10
BRANCH   1  19
HETATM   19  O   UNL     1     -41.060 -44.680  10.125  1.00  0.00    -0.341 OA
HETATM   20  C   UNL     1     -39.642 -44.738  10.219  1.00  0.00     0.211 C 
ENDBRANCH   1  19
TORSDOF 3
ENDMDL
MODEL 2
REMARK VINA RESULT:      -5.7      3.798      6.412
REMARK  3 active torsions:
REMARK  status: ('A' for Active; 'I' for Inactive)
REMARK    1  A    between atoms: O_2  and  C_3 
REMARK    2  A    between atoms: C_9  and  N_10 
REMARK    3  A    between atoms: N_10  and  C_11 
ROOT
HETATM    1  C   UNL     1     -43.656 -53.438  12.592  1.00  0.00     0.145 A 
HETATM    2  C   UNL     1     -43.468 -54.216  13.708  1.00  0.00     0.080 A 
HETATM    3  C   UNL     1     -42.189 -54.230  14.208  1.00  0.00     0.012 A 
HETATM    4  C   UNL     1     -41.846 -54.985  15.455  1.00  0.00     0.068 C 
HETATM    5  N   UNL     1     -41.185 -53.548  13.621  1.00  0.00    -0.337 N 
ATOM      6  HN  UNL     1     -40.229 -53.619  13.969  1.00  0.00     0.168 HD
HETATM    7  C   UNL     1     -41.479 -52.775  12.569  1.00  0.00     0.159 A 
HETATM    8  N   UNL     1     -42.697 -52.688  12.028  1.00  0.00    -0.313 N 
ATOM      9  HN  UNL     1     -42.888 -52.083  11.230  1.00  0.00     0.170 HD
ENDROOT
BRANCH   7  10
HETATM   10  N   UNL     1     -40.414 -52.069  12.030  1.00  0.00    -0.257 NA
HETATM   11  H   UNL     1     -40.456 -52.213  11.028  1.00  0.00     0.131 HD
BRANCH  10  12
HETATM   12  C   UNL     1     -40.259 -50.690  12.463  1.00  0.00     0.094 C 
HETATM   13  C   UNL     1     -39.837 -49.793  11.287  1.00  0.00     0.054 C 
HETATM   14  C   UNL     1     -38.472 -49.277  11.740  1.00  0.00     0.123 C 
HETATM   15  C   UNL     1     -37.425 -50.389  11.707  1.00  0.00     0.034 C 
HETATM   16  O   UNL     1     -38.691 -49.117  13.161  1.00  0.00    -0.379 OA
HETATM   17  C   UNL     1     -37.797 -51.213  12.940  1.00  0.00     0.036 C 
HETATM   18  C   UNL     1     -39.063 -50.498  13.427  1.00  0.00     0.140 C 
ENDBRANCH  10  12
ENDBRANCH   7  10
BRANCH   1  19
HETATM   19  O   UNL     1     -44.926 -53.462  12.046  1.00  0.00    -0.341 OA
HETATM   20  C   UNL     1     -45.840 -52.605  12.721  1.00  0.00     0.211 C 
ENDBRANCH   1  19
TORSDOF 3
ENDMDL
MODEL 3
REMARK VINA RESULT:      -5.6      3.168      5.387
REMARK  3 active torsions:
REMARK  status: ('A' for Active; 'I' for Inactive)
REMARK    1  A    between atoms: O_2  and  C_3 
REMARK    2  A    between atoms: C_9  and  N_10 
REMARK    3  A    between atoms: N_10  and  C_11 
ROOT
HETATM    1  C   UNL     1     -39.599 -51.451  12.693  1.00  0.00     0.145 A 
HETATM    2  C   UNL     1     -39.639 -50.160  12.228  1.00  0.00     0.080 A 
HETATM    3  C   UNL     1     -40.836 -49.767  11.682  1.00  0.00     0.012 A 
HETATM    4  C   UNL     1     -41.048 -48.369  11.189  1.00  0.00     0.068 C 
HETATM    5  N   UNL     1     -41.887 -50.606  11.586  1.00  0.00    -0.337 N 
ATOM      6  HN  UNL     1     -42.748 -50.317  11.122  1.00  0.00     0.168 HD
HETATM    7  C   UNL     1     -41.768 -51.828  12.117  1.00  0.00     0.159 A 
HETATM    8  N   UNL     1     -40.648 -52.288  12.682  1.00  0.00    -0.313 N 
ATOM      9  HN  UNL     1     -40.593 -53.223  13.083  1.00  0.00     0.170 HD
ENDROOT
BRANCH   7  10
HETATM   10  N   UNL     1     -42.893 -52.633  12.021  1.00  0.00    -0.257 NA
HETATM   11  H   UNL     1     -42.698 -53.308  11.289  1.00  0.00     0.131 HD
BRANCH  10  12
HETATM   12  C   UNL     1     -43.410 -53.183  13.263  1.00  0.00     0.094 C 
HETATM   13  C   UNL     1     -44.537 -54.194  12.985  1.00  0.00     0.054 C 
HETATM   14  C   UNL     1     -45.738 -53.546  13.672  1.00  0.00     0.123 C 
HETATM   15  C   UNL     1     -46.204 -52.306  12.910  1.00  0.00     0.034 C 
HETATM   16  O   UNL     1     -45.111 -52.960  14.837  1.00  0.00    -0.379 OA
HETATM   17  C   UNL     1     -45.130 -51.283  13.280  1.00  0.00     0.036 C 
HETATM   18  C   UNL     1     -44.161 -52.130  14.115  1.00  0.00     0.140 C 
ENDBRANCH  10  12
ENDBRANCH   7  10
BRANCH   1  19
HETATM   19  O   UNL     1     -38.381 -51.877  13.192  1.00  0.00    -0.341 OA
HETATM   20  C   UNL     1     -37.293 -51.056  12.783  1.00  0.00     0.211 C 
ENDBRANCH   1  19
TORSDOF 3
ENDMDL
MODEL 4
REMARK VINA RESULT:      -5.5      1.526      3.172
REMARK  3 active torsions:
REMARK  status: ('A' for Active; 'I' for Inactive)
REMARK    1  A    between atoms: O_2  and  C_3 
REMARK    2  A    between atoms: C_9  and  N_10 
REMARK    3  A    between atoms: N_10  and  C_11 
ROOT
HETATM    1  C   UNL     1     -43.123 -47.441  10.357  1.00  0.00     0.145 A 
HETATM    2  C   UNL     1     -42.504 -46.216  10.399  1.00  0.00     0.080 A 
HETATM    3  C   UNL     1     -41.140 -46.249  10.551  1.00  0.00     0.012 A 
HETATM    4  C   UNL     1     -40.323 -44.994  10.552  1.00  0.00     0.068 C 
HETATM    5  N   UNL     1     -40.464 -47.408  10.679  1.00  0.00    -0.337 N 
ATOM      6  HN  UNL     1     -39.459 -47.413  10.853  1.00  0.00     0.168 HD
HETATM    7  C   UNL     1     -41.149 -48.553  10.571  1.00  0.00     0.159 A 
HETATM    8  N   UNL     1     -42.473 -48.614  10.406  1.00  0.00    -0.313 N 
ATOM      9  HN  UNL     1     -42.963 -49.504  10.321  1.00  0.00     0.170 HD
ENDROOT
BRANCH   7  10
HETATM   10  N   UNL     1     -40.396 -49.712  10.675  1.00  0.00    -0.257 NA
HETATM   11  H   UNL     1     -39.484 -49.495  10.287  1.00  0.00     0.131 HD
BRANCH  10  12
HETATM   12  C   UNL     1     -40.388 -50.373  11.969  1.00  0.00     0.094 C 
HETATM   13  C   UNL     1     -40.627 -49.358  13.102  1.00  0.00     0.054 C 
HETATM   14  C   UNL     1     -39.333 -49.454  13.908  1.00  0.00     0.123 C 
HETATM   15  C   UNL     1     -38.162 -48.838  13.146  1.00  0.00     0.034 C 
HETATM   16  O   UNL     1     -39.044 -50.869  13.805  1.00  0.00    -0.379 OA
HETATM   17  C   UNL     1     -37.872 -49.905  12.091  1.00  0.00     0.036 C 
HETATM   18  C   UNL     1     -38.991 -50.920  12.353  1.00  0.00     0.140 C 
ENDBRANCH  10  12
ENDBRANCH   7  10
BRANCH   1  19
HETATM   19  O   UNL     1     -44.503 -47.419  10.263  1.00  0.00    -0.341 OA
HETATM   20  C   UNL     1     -44.972 -47.512   8.922  1.00  0.00     0.211 C 
ENDBRANCH   1  19
TORSDOF 3
ENDMDL
MODEL 5
REMARK VINA RESULT:      -5.5      4.118      6.818
REMARK  3 active torsions:
REMARK  status: ('A' for Active; 'I' for Inactive)
REMARK    1  A    between atoms: O_2  and  C_3 
REMARK    2  A    between atoms: C_9  and  N_10 
REMARK    3  A    between atoms: N_10  and  C_11 
ROOT
HETATM    1  C   UNL     1     -40.436 -53.057  12.995  1.00  0.00     0.145 A 
HETATM    2  C   UNL     1     -40.333 -51.749  12.590  1.00  0.00     0.080 A 
HETATM    3  C   UNL     1     -41.515 -51.145  12.237  1.00  0.00     0.012 A 
HETATM    4  C   UNL     1     -41.566 -49.704  11.833  1.00  0.00     0.068 C 
HETATM    5  N   UNL     1     -42.689 -51.807  12.260  1.00  0.00    -0.337 N 
ATOM      6  HN  UNL     1     -43.548 -51.363  11.935  1.00  0.00     0.168 HD
HETATM    7  C   UNL     1     -42.695 -53.063  12.721  1.00  0.00     0.159 A 
HETATM    8  N   UNL     1     -41.597 -53.721  13.102  1.00  0.00    -0.313 N 
ATOM      9  HN  UNL     1     -41.639 -54.677  13.454  1.00  0.00     0.170 HD
ENDROOT
BRANCH   7  10
HETATM   10  N   UNL     1     -43.937 -53.680  12.755  1.00  0.00    -0.257 NA
HETATM   11  H   UNL     1     -44.032 -54.177  11.877  1.00  0.00     0.131 HD
BRANCH  10  12
HETATM   12  C   UNL     1     -44.252 -54.446  13.949  1.00  0.00     0.094 C 
HETATM   13  C   UNL     1     -45.571 -55.219  13.771  1.00  0.00     0.054 C 
HETATM   14  C   UNL     1     -46.456 -54.615  14.860  1.00  0.00     0.123 C 
HETATM   15  C   UNL     1     -46.856 -53.182  14.514  1.00  0.00     0.034 C 
HETATM   16  O   UNL     1     -45.492 -54.407  15.919  1.00  0.00    -0.379 OA
HETATM   17  C   UNL     1     -45.564 -52.415  14.795  1.00  0.00     0.036 C 
HETATM   18  C   UNL     1     -44.597 -53.547  15.162  1.00  0.00     0.140 C 
ENDBRANCH  10  12
ENDBRANCH   7  10
BRANCH   1  19
HETATM   19  O   UNL     1     -39.246 -53.692  13.298  1.00  0.00    -0.341 OA
HETATM   20  C   UNL     1     -39.284 -54.386  14.540  1.00  0.00     0.211 C 
ENDBRANCH   1  19
TORSDOF 3
ENDMDL
MODEL 6
REMARK VINA RESULT:      -5.4      3.040      6.768
REMARK  3 active torsions:
REMARK  status: ('A' for Active; 'I' for Inactive)
REMARK    1  A    between atoms: O_2  and  C_3 
REMARK    2  A    between atoms: C_9  and  N_10 
REMARK    3  A    between atoms: N_10  and  C_11 
ROOT
HETATM    1  C   UNL     1     -43.594 -53.786  12.774  1.00  0.00     0.145 A 
HETATM    2  C   UNL     1     -42.713 -54.351  13.663  1.00  0.00     0.080 A 
HETATM    3  C   UNL     1     -41.529 -53.677  13.830  1.00  0.00     0.012 A 
HETATM    4  C   UNL     1     -40.497 -54.140  14.811  1.00  0.00     0.068 C 
HETATM    5  N   UNL     1     -41.245 -52.552  13.143  1.00  0.00    -0.337 N 
ATOM      6  HN  UNL     1     -40.336 -52.098  13.232  1.00  0.00     0.168 HD
HETATM    7  C   UNL     1     -42.190 -52.049  12.339  1.00  0.00     0.159 A 
HETATM    8  N   UNL     1     -43.374 -52.629  12.131  1.00  0.00    -0.313 N 
ATOM      9  HN  UNL     1     -44.075 -52.215  11.516  1.00  0.00     0.170 HD
ENDROOT
BRANCH   7  10
HETATM   10  N   UNL     1     -41.854 -50.872  11.687  1.00  0.00    -0.257 NA
HETATM   11  H   UNL     1     -42.552 -50.739  10.963  1.00  0.00     0.131 HD
BRANCH  10  12
HETATM   12  C   UNL     1     -41.587 -49.715  12.525  1.00  0.00     0.094 C 
HETATM   13  C   UNL     1     -42.896 -49.138  13.093  1.00  0.00     0.054 C 
HETATM   14  C   UNL     1     -42.923 -47.732  12.494  1.00  0.00     0.123 C 
HETATM   15  C   UNL     1     -43.200 -47.778  10.993  1.00  0.00     0.034 C 
HETATM   16  O   UNL     1     -41.518 -47.388  12.527  1.00  0.00    -0.379 OA
HETATM   17  C   UNL     1     -41.858 -48.255  10.437  1.00  0.00     0.036 C 
HETATM   18  C   UNL     1     -41.055 -48.504  11.719  1.00  0.00     0.140 C 
ENDBRANCH  10  12
ENDBRANCH   7  10
BRANCH   1  19
HETATM   19  O   UNL     1     -44.765 -54.488  12.554  1.00  0.00    -0.341 OA
HETATM   20  C   UNL     1     -45.359 -54.973  13.754  1.00  0.00     0.211 C 
ENDBRANCH   1  19
TORSDOF 3
ENDMDL
MODEL 7
REMARK VINA RESULT:      -5.4      1.582      5.555
REMARK  3 active torsions:
REMARK  status: ('A' for Active; 'I' for Inactive)
REMARK    1  A    between atoms: O_2  and  C_3 
REMARK    2  A    between atoms: C_9  and  N_10 
REMARK    3  A    between atoms: N_10  and  C_11 
ROOT
HETATM    1  C   UNL     1     -39.533 -51.575  12.561  1.00  0.00     0.145 A 
HETATM    2  C   UNL     1     -40.601 -52.366  12.904  1.00  0.00     0.080 A 
HETATM    3  C   UNL     1     -41.818 -51.959  12.416  1.00  0.00     0.012 A 
HETATM    4  C   UNL     1     -43.063 -52.755  12.655  1.00  0.00     0.068 C 
HETATM    5  N   UNL     1     -41.952 -50.840  11.675  1.00  0.00    -0.337 N 
ATOM      6  HN  UNL     1     -42.871 -50.517  11.373  1.00  0.00     0.168 HD
HETATM    7  C   UNL     1     -40.843 -50.164  11.349  1.00  0.00     0.159 A 
HETATM    8  N   UNL     1     -39.619 -50.498  11.765  1.00  0.00    -0.313 N 
ATOM      9  HN  UNL     1     -38.795 -49.964  11.493  1.00  0.00     0.170 HD
ENDROOT
BRANCH   7  10
HETATM   10  N   UNL     1     -41.039 -49.042  10.557  1.00  0.00    -0.257 NA
HETATM   11  H   UNL     1     -41.101 -49.377   9.602  1.00  0.00     0.131 HD
BRANCH  10  12
HETATM   12  C   UNL     1     -42.086 -48.124  10.972  1.00  0.00     0.094 C 
HETATM   13  C   UNL     1     -42.483 -47.189   9.816  1.00  0.00     0.054 C 
HETATM   14  C   UNL     1     -42.123 -45.811  10.370  1.00  0.00     0.123 C 
HETATM   15  C   UNL     1     -40.609 -45.627  10.447  1.00  0.00     0.034 C 
HETATM   16  O   UNL     1     -42.474 -45.970  11.765  1.00  0.00    -0.379 OA
HETATM   17  C   UNL     1     -40.246 -46.481  11.662  1.00  0.00     0.036 C 
HETATM   18  C   UNL     1     -41.600 -47.101  12.028  1.00  0.00     0.140 C 
ENDBRANCH  10  12
ENDBRANCH   7  10
BRANCH   1  19
HETATM   19  O   UNL     1     -38.311 -51.943  13.095  1.00  0.00    -0.341 OA
HETATM   20  C   UNL     1     -37.312 -50.940  12.948  1.00  0.00     0.211 C 
ENDBRANCH   1  19
TORSDOF 3
ENDMDL
MODEL 8
REMARK VINA RESULT:      -5.4      3.873      6.748
REMARK  3 active torsions:
REMARK  status: ('A' for Active; 'I' for Inactive)
REMARK    1  A    between atoms: O_2  and  C_3 
REMARK    2  A    between atoms: C_9  and  N_10 
REMARK    3  A    between atoms: N_10  and  C_11 
ROOT
HETATM    1  C   UNL     1     -41.178 -54.413  14.611  1.00  0.00     0.145 A 
HETATM    2  C   UNL     1     -42.496 -54.587  14.264  1.00  0.00     0.080 A 
HETATM    3  C   UNL     1     -42.918 -53.868  13.172  1.00  0.00     0.012 A 
HETATM    4  C   UNL     1     -44.311 -54.003  12.640  1.00  0.00     0.068 C 
HETATM    5  N   UNL     1     -42.098 -53.028  12.510  1.00  0.00    -0.337 N 
ATOM      6  HN  UNL     1     -42.445 -52.455  11.740  1.00  0.00     0.168 HD
HETATM    7  C   UNL     1     -40.817 -52.967  12.891  1.00  0.00     0.159 A 
HETATM    8  N   UNL     1     -40.317 -53.643  13.928  1.00  0.00    -0.313 N 
ATOM      9  HN  UNL     1     -39.333 -53.578  14.188  1.00  0.00     0.170 HD
ENDROOT
BRANCH   7  10
HETATM   10  N   UNL     1     -40.013 -52.114  12.149  1.00  0.00    -0.257 NA
HETATM   11  H   UNL     1     -40.306 -52.215  11.184  1.00  0.00     0.131 HD
BRANCH  10  12
HETATM   12  C   UNL     1     -39.892 -50.748  12.632  1.00  0.00     0.094 C 
HETATM   13  C   UNL     1     -39.840 -49.756  11.456  1.00  0.00     0.054 C 
HETATM   14  C   UNL     1     -38.461 -49.120  11.624  1.00  0.00     0.123 C 
HETATM   15  C   UNL     1     -37.351 -50.111  11.277  1.00  0.00     0.034 C 
HETATM   16  O   UNL     1     -38.358 -49.051  13.066  1.00  0.00    -0.379 OA
HETATM   17  C   UNL     1     -37.348 -51.026  12.501  1.00  0.00     0.036 C 
HETATM   18  C   UNL     1     -38.527 -50.474  13.311  1.00  0.00     0.140 C 
ENDBRANCH  10  12
ENDBRANCH   7  10
BRANCH   1  19
HETATM   19  O   UNL     1     -40.757 -55.087  15.742  1.00  0.00    -0.341 OA
HETATM   20  C   UNL     1     -39.352 -55.314  15.766  1.00  0.00     0.211 C 
ENDBRANCH   1  19
TORSDOF 3
ENDMDL
MODEL 9
REMARK VINA RESULT:      -5.3      2.437      4.320
REMARK  3 active torsions:
REMARK  status: ('A' for Active; 'I' for Inactive)
REMARK    1  A    between atoms: O_2  and  C_3 
REMARK    2  A    between atoms: C_9  and  N_10 
REMARK    3  A    between atoms: N_10  and  C_11 
ROOT
HETATM    1  C   UNL     1     -41.119 -48.840  11.327  1.00  0.00     0.145 A 
HETATM    2  C   UNL     1     -39.751 -48.744  11.395  1.00  0.00     0.080 A 
HETATM    3  C   UNL     1     -39.089 -49.918  11.661  1.00  0.00     0.012 A 
HETATM    4  C   UNL     1     -37.594 -49.980  11.704  1.00  0.00     0.068 C 
HETATM    5  N   UNL     1     -39.746 -51.076  11.871  1.00  0.00    -0.337 N 
ATOM      6  HN  UNL     1     -39.244 -51.925  12.130  1.00  0.00     0.168 HD
HETATM    7  C   UNL     1     -41.078 -51.080  11.731  1.00  0.00     0.159 A 
HETATM    8  N   UNL     1     -41.799 -49.990  11.456  1.00  0.00    -0.313 N 
ATOM      9  HN  UNL     1     -42.812 -50.029  11.349  1.00  0.00     0.170 HD
ENDROOT
BRANCH   7  10
HETATM   10  N   UNL     1     -41.695 -52.307  11.923  1.00  0.00    -0.257 NA
HETATM   11  H   UNL     1     -41.201 -52.968  11.335  1.00  0.00     0.131 HD
BRANCH  10  12
HETATM   12  C   UNL     1     -41.908 -52.722  13.299  1.00  0.00     0.094 C 
HETATM   13  C   UNL     1     -42.004 -54.255  13.398  1.00  0.00     0.054 C 
HETATM   14  C   UNL     1     -43.422 -54.461  13.929  1.00  0.00     0.123 C 
HETATM   15  C   UNL     1     -44.464 -54.127  12.862  1.00  0.00     0.034 C 
HETATM   16  O   UNL     1     -43.550 -53.337  14.831  1.00  0.00    -0.379 OA
HETATM   17  C   UNL     1     -44.427 -52.599  12.850  1.00  0.00     0.036 C 
HETATM   18  C   UNL     1     -43.296 -52.302  13.842  1.00  0.00     0.140 C 
ENDBRANCH  10  12
ENDBRANCH   7  10
BRANCH   1  19
HETATM   19  O   UNL     1     -41.798 -47.655  11.116  1.00  0.00    -0.341 OA
HETATM   20  C   UNL     1     -42.585 -47.666   9.930  1.00  0.00     0.211 C 
ENDBRANCH   1  19
TORSDOF 3
ENDMDL
