MODEL 1
REMARK VINA RESULT:      -6.6      0.000      0.000
REMARK  5 active torsions:
REMARK  status: ('A' for Active; 'I' for Inactive)
REMARK       I    between atoms: N_1  and  C_2 
REMARK    1  A    between atoms: C_2  and  C_4 
REMARK    2  A    between atoms: C_4  and  N_5 
REMARK    3  A    between atoms: C_8  and  N_11 
REMARK       I    between atoms: N_11  and  C_12 
REMARK       I    between atoms: C_12  and  N_14 
REMARK    4  A    between atoms: N_14  and  C_15 
REMARK    5  A    between atoms: C_21  and  N_22 
ROOT
HETATM    1  N   UNL     1     -42.792 -49.722  12.155  1.00  0.00    -0.343 N 
HETATM    2  C   UNL     1     -43.208 -50.737  12.995  1.00  0.00     0.299 C 
HETATM    3  O   UNL     1     -43.533 -50.566  14.160  1.00  0.00    -0.254 OA
HETATM    4  N   UNL     1     -43.212 -51.946  12.314  1.00  0.00    -0.207 NA
HETATM    5  H   UNL     1     -42.073 -50.040  11.519  1.00  0.00     0.164 HD
HETATM    6  H   UNL     1     -43.700 -51.807  11.439  1.00  0.00     0.138 HD
ENDROOT
BRANCH   1   7
HETATM    7  C   UNL     1     -42.662 -48.356  12.661  1.00  0.00     0.089 C 
HETATM    8  C   UNL     1     -42.891 -47.308  11.566  1.00  0.00     0.055 C 
HETATM    9  C   UNL     1     -41.750 -47.312  10.547  1.00  0.00     0.275 C 
HETATM   10  N   UNL     1     -40.407 -47.123  11.127  1.00  0.00     0.097 N 
HETATM   11  C   UNL     1     -40.176 -48.075  12.227  1.00  0.00     0.275 C 
HETATM   12  C   UNL     1     -41.282 -48.131  13.285  1.00  0.00     0.055 C 
BRANCH  10  13
HETATM   13  C   UNL     1     -40.161 -45.725  11.561  1.00  0.00     0.374 C 
BRANCH  13  14
HETATM   14  C   UNL     1     -39.942 -44.784  10.370  1.00  0.00     0.243 C 
HETATM   15  N   UNL     1     -39.049 -45.218   9.432  1.00  0.00    -0.369 N 
HETATM   16  H   UNL     1     -38.917 -44.664   8.598  1.00  0.00     0.159 HD
HETATM   17  H   UNL     1     -38.741 -46.183   9.458  1.00  0.00     0.159 HD
HETATM   18  O   UNL     1     -40.466 -43.678  10.281  1.00  0.00    -0.272 OA
ENDBRANCH  13  14
ENDBRANCH  10  13
ENDBRANCH   1   7
BRANCH   4  19
HETATM   19  C   UNL     1     -43.630 -53.092  13.035  1.00  0.00     0.060 A 
HETATM   20  C   UNL     1     -44.975 -53.454  12.887  1.00  0.00     0.029 A 
HETATM   21  C   UNL     1     -45.496 -54.490  13.644  1.00  0.00     0.019 A 
HETATM   22  C   UNL     1     -44.632 -55.156  14.485  1.00  0.00     0.090 A 
HETATM   23  N   UNL     1     -43.317 -54.866  14.603  1.00  0.00    -0.351 N 
HETATM   24  C   UNL     1     -42.788 -53.826  13.903  1.00  0.00     0.125 A 
ATOM     25  HN  UNL     1     -42.724 -55.425  15.216  1.00  0.00     0.166 HD
BRANCH  24  26
HETATM   26  N   UNL     1     -41.441 -53.611  14.083  1.00  0.00    -0.366 N 
HETATM   27  C   UNL     1     -40.796 -52.834  15.126  1.00  0.00     0.124 C 
HETATM   28  C   UNL     1     -39.293 -53.046  14.912  1.00  0.00     0.021 C 
HETATM   29  C   UNL     1     -39.215 -54.311  14.073  1.00  0.00     0.021 C 
HETATM   30  C   UNL     1     -40.469 -54.243  13.206  1.00  0.00     0.124 C 
ENDBRANCH  24  26
ENDBRANCH   4  19
TORSDOF 5
ENDMDL
MODEL 2
REMARK VINA RESULT:      -6.3      2.214      7.844
REMARK  5 active torsions:
REMARK  status: ('A' for Active; 'I' for Inactive)
REMARK       I    between atoms: N_1  and  C_2 
REMARK    1  A    between atoms: C_2  and  C_4 
REMARK    2  A    between atoms: C_4  and  N_5 
REMARK    3  A    between atoms: C_8  and  N_11 
REMARK       I    between atoms: N_11  and  C_12 
REMARK       I    between atoms: C_12  and  N_14 
REMARK    4  A    between atoms: N_14  and  C_15 
REMARK    5  A    between atoms: C_21  and  N_22 
ROOT
HETATM    1  N   UNL     1     -43.433 -50.279  12.399  1.00  0.00    -0.343 N 
HETATM    2  C   UNL     1     -42.879 -49.014  12.371  1.00  0.00     0.299 C 
HETATM    3  O   UNL     1     -42.992 -48.201  13.277  1.00  0.00    -0.254 OA
HETATM    4  N   UNL     1     -42.181 -48.825  11.186  1.00  0.00    -0.207 NA
HETATM    5  H   UNL     1     -43.747 -50.566  11.480  1.00  0.00     0.164 HD
HETATM    6  H   UNL     1     -41.576 -49.625  11.054  1.00  0.00     0.138 HD
ENDROOT
BRANCH   1   7
HETATM    7  C   UNL     1     -44.259 -50.696  13.532  1.00  0.00     0.089 C 
HETATM    8  C   UNL     1     -43.434 -51.379  14.629  1.00  0.00     0.055 C 
HETATM    9  C   UNL     1     -42.923 -52.745  14.169  1.00  0.00     0.275 C 
HETATM   10  N   UNL     1     -43.974 -53.670  13.705  1.00  0.00     0.097 N 
HETATM   11  C   UNL     1     -44.826 -53.024  12.692  1.00  0.00     0.275 C 
HETATM   12  C   UNL     1     -45.371 -51.646  13.081  1.00  0.00     0.055 C 
BRANCH  10  13
HETATM   13  C   UNL     1     -44.783 -54.225  14.819  1.00  0.00     0.374 C 
BRANCH  13  14
HETATM   14  C   UNL     1     -45.984 -55.032  14.310  1.00  0.00     0.243 C 
HETATM   15  N   UNL     1     -47.212 -54.504  14.593  1.00  0.00    -0.369 N 
HETATM   16  H   UNL     1     -48.032 -54.964  14.226  1.00  0.00     0.159 HD
HETATM   17  H   UNL     1     -47.269 -53.550  14.929  1.00  0.00     0.159 HD
HETATM   18  O   UNL     1     -45.876 -56.118  13.748  1.00  0.00    -0.272 OA
ENDBRANCH  13  14
ENDBRANCH  10  13
ENDBRANCH   1   7
BRANCH   4  19
HETATM   19  C   UNL     1     -41.538 -47.575  11.007  1.00  0.00     0.060 A 
HETATM   20  C   UNL     1     -42.287 -46.587  10.355  1.00  0.00     0.029 A 
HETATM   21  C   UNL     1     -41.696 -45.377  10.035  1.00  0.00     0.019 A 
HETATM   22  C   UNL     1     -40.389 -45.185  10.428  1.00  0.00     0.090 A 
HETATM   23  N   UNL     1     -39.664 -46.099  11.111  1.00  0.00    -0.351 N 
HETATM   24  C   UNL     1     -40.205 -47.313  11.401  1.00  0.00     0.125 A 
ATOM     25  HN  UNL     1     -38.713 -45.878  11.407  1.00  0.00     0.166 HD
BRANCH  24  26
HETATM   26  N   UNL     1     -39.393 -48.175  12.103  1.00  0.00    -0.366 N 
HETATM   27  C   UNL     1     -38.626 -49.294  11.587  1.00  0.00     0.124 C 
HETATM   28  C   UNL     1     -37.816 -49.809  12.782  1.00  0.00     0.021 C 
HETATM   29  C   UNL     1     -37.816 -48.644  13.757  1.00  0.00     0.021 C 
HETATM   30  C   UNL     1     -39.173 -47.985  13.527  1.00  0.00     0.124 C 
ENDBRANCH  24  26
ENDBRANCH   4  19
TORSDOF 5
ENDMDL
MODEL 3
REMARK VINA RESULT:      -6.2      1.755      3.402
REMARK  5 active torsions:
REMARK  status: ('A' for Active; 'I' for Inactive)
REMARK       I    between atoms: N_1  and  C_2 
REMARK    1  A    between atoms: C_2  and  C_4 
REMARK    2  A    between atoms: C_4  and  N_5 
REMARK    3  A    between atoms: C_8  and  N_11 
REMARK       I    between atoms: N_11  and  C_12 
REMARK       I    between atoms: C_12  and  N_14 
REMARK    4  A    between atoms: N_14  and  C_15 
REMARK    5  A    between atoms: C_21  and  N_22 
ROOT
HETATM    1  N   UNL     1     -41.953 -49.736  12.966  1.00  0.00    -0.343 N 
HETATM    2  C   UNL     1     -42.171 -51.086  13.160  1.00  0.00     0.299 C 
HETATM    3  O   UNL     1     -42.249 -51.900  12.252  1.00  0.00    -0.254 OA
HETATM    4  N   UNL     1     -42.268 -51.363  14.517  1.00  0.00    -0.207 NA
HETATM    5  H   UNL     1     -42.457 -49.179  13.644  1.00  0.00     0.164 HD
HETATM    6  H   UNL     1     -41.481 -50.925  14.978  1.00  0.00     0.138 HD
ENDROOT
BRANCH   1   7
HETATM    7  C   UNL     1     -41.862 -49.193  11.611  1.00  0.00     0.089 C 
HETATM    8  C   UNL     1     -40.514 -48.510  11.350  1.00  0.00     0.055 C 
HETATM    9  C   UNL     1     -40.385 -47.215  12.153  1.00  0.00     0.275 C 
HETATM   10  N   UNL     1     -41.472 -46.243  11.933  1.00  0.00     0.097 N 
HETATM   11  C   UNL     1     -42.786 -46.882  12.115  1.00  0.00     0.275 C 
HETATM   12  C   UNL     1     -42.988 -48.191  11.344  1.00  0.00     0.055 C 
BRANCH  10  13
HETATM   13  C   UNL     1     -41.378 -45.565  10.616  1.00  0.00     0.374 C 
BRANCH  13  14
HETATM   14  C   UNL     1     -40.077 -44.766  10.472  1.00  0.00     0.243 C 
HETATM   15  N   UNL     1     -39.238 -45.182   9.477  1.00  0.00    -0.369 N 
HETATM   16  H   UNL     1     -38.398 -44.651   9.300  1.00  0.00     0.159 HD
HETATM   17  H   UNL     1     -39.585 -45.834   8.783  1.00  0.00     0.159 HD
HETATM   18  O   UNL     1     -39.756 -43.859  11.233  1.00  0.00    -0.272 OA
ENDBRANCH  13  14
ENDBRANCH  10  13
ENDBRANCH   1   7
BRANCH   4  19
HETATM   19  C   UNL     1     -42.478 -52.714  14.887  1.00  0.00     0.060 A 
HETATM   20  C   UNL     1     -41.333 -53.439  15.244  1.00  0.00     0.029 A 
HETATM   21  C   UNL     1     -41.433 -54.794  15.507  1.00  0.00     0.019 A 
HETATM   22  C   UNL     1     -42.687 -55.361  15.451  1.00  0.00     0.090 A 
HETATM   23  N   UNL     1     -43.815 -54.673  15.168  1.00  0.00    -0.351 N 
HETATM   24  C   UNL     1     -43.742 -53.348  14.864  1.00  0.00     0.125 A 
ATOM     25  HN  UNL     1     -44.719 -55.146  15.182  1.00  0.00     0.166 HD
BRANCH  24  26
HETATM   26  N   UNL     1     -44.943 -52.731  14.595  1.00  0.00    -0.366 N 
HETATM   27  C   UNL     1     -45.735 -51.901  15.485  1.00  0.00     0.124 C 
HETATM   28  C   UNL     1     -46.893 -51.383  14.623  1.00  0.00     0.021 C 
HETATM   29  C   UNL     1     -46.399 -51.561  13.197  1.00  0.00     0.021 C 
HETATM   30  C   UNL     1     -45.537 -52.818  13.271  1.00  0.00     0.124 C 
ENDBRANCH  24  26
ENDBRANCH   4  19
TORSDOF 5
ENDMDL
MODEL 4
REMARK VINA RESULT:      -6.1      1.565      3.278
REMARK  5 active torsions:
REMARK  status: ('A' for Active; 'I' for Inactive)
REMARK       I    between atoms: N_1  and  C_2 
REMARK    1  A    between atoms: C_2  and  C_4 
REMARK    2  A    between atoms: C_4  and  N_5 
REMARK    3  A    between atoms: C_8  and  N_11 
REMARK       I    between atoms: N_11  and  C_12 
REMARK       I    between atoms: C_12  and  N_14 
REMARK    4  A    between atoms: N_14  and  C_15 
REMARK    5  A    between atoms: C_21  and  N_22 
ROOT
HETATM    1  N   UNL     1     -41.264 -49.767  13.202  1.00  0.00    -0.343 N 
HETATM    2  C   UNL     1     -41.700 -50.733  14.088  1.00  0.00     0.299 C 
HETATM    3  O   UNL     1     -41.917 -50.521  15.272  1.00  0.00    -0.254 OA
HETATM    4  N   UNL     1     -41.862 -51.944  13.432  1.00  0.00    -0.207 NA
HETATM    5  H   UNL     1     -40.627 -50.155  12.517  1.00  0.00     0.164 HD
HETATM    6  H   UNL     1     -42.404 -51.772  12.594  1.00  0.00     0.138 HD
ENDROOT
BRANCH   1   7
HETATM    7  C   UNL     1     -40.976 -48.413  13.672  1.00  0.00     0.089 C 
HETATM    8  C   UNL     1     -41.883 -47.366  13.014  1.00  0.00     0.055 C 
HETATM    9  C   UNL     1     -41.549 -47.198  11.530  1.00  0.00     0.275 C 
HETATM   10  N   UNL     1     -40.140 -46.864  11.251  1.00  0.00     0.097 N 
HETATM   11  C   UNL     1     -39.236 -47.815  11.920  1.00  0.00     0.275 C 
HETATM   12  C   UNL     1     -39.514 -48.040  13.410  1.00  0.00     0.055 C 
BRANCH  10  13
HETATM   13  C   UNL     1     -39.802 -45.461  11.599  1.00  0.00     0.374 C 
BRANCH  13  14
HETATM   14  C   UNL     1     -39.855 -44.537  10.376  1.00  0.00     0.243 C 
HETATM   15  N   UNL     1     -39.086 -44.920   9.314  1.00  0.00    -0.369 N 
HETATM   16  H   UNL     1     -39.134 -44.380   8.462  1.00  0.00     0.159 HD
HETATM   17  H   UNL     1     -38.695 -45.855   9.304  1.00  0.00     0.159 HD
HETATM   18  O   UNL     1     -40.481 -43.482  10.357  1.00  0.00    -0.272 OA
ENDBRANCH  13  14
ENDBRANCH  10  13
ENDBRANCH   1   7
BRANCH   4  19
HETATM   19  C   UNL     1     -42.321 -53.041  14.203  1.00  0.00     0.060 A 
HETATM   20  C   UNL     1     -41.329 -53.857  14.762  1.00  0.00     0.029 A 
HETATM   21  C   UNL     1     -41.688 -55.014  15.431  1.00  0.00     0.019 A 
HETATM   22  C   UNL     1     -43.034 -55.282  15.559  1.00  0.00     0.090 A 
HETATM   23  N   UNL     1     -44.012 -54.481  15.081  1.00  0.00    -0.351 N 
HETATM   24  C   UNL     1     -43.688 -53.359  14.382  1.00  0.00     0.125 A 
ATOM     25  HN  UNL     1     -44.991 -54.718  15.244  1.00  0.00     0.166 HD
BRANCH  24  26
HETATM   26  N   UNL     1     -44.750 -52.604  13.941  1.00  0.00    -0.366 N 
HETATM   27  C   UNL     1     -45.484 -52.743  12.696  1.00  0.00     0.124 C 
HETATM   28  C   UNL     1     -46.632 -51.732  12.793  1.00  0.00     0.021 C 
HETATM   29  C   UNL     1     -46.749 -51.449  14.281  1.00  0.00     0.021 C 
HETATM   30  C   UNL     1     -45.311 -51.558  14.780  1.00  0.00     0.124 C 
ENDBRANCH  24  26
ENDBRANCH   4  19
TORSDOF 5
ENDMDL
MODEL 5
REMARK VINA RESULT:      -5.6      2.701      8.620
REMARK  5 active torsions:
REMARK  status: ('A' for Active; 'I' for Inactive)
REMARK       I    between atoms: N_1  and  C_2 
REMARK    1  A    between atoms: C_2  and  C_4 
REMARK    2  A    between atoms: C_4  and  N_5 
REMARK    3  A    between atoms: C_8  and  N_11 
REMARK       I    between atoms: N_11  and  C_12 
REMARK       I    between atoms: C_12  and  N_14 
REMARK    4  A    between atoms: N_14  and  C_15 
REMARK    5  A    between atoms: C_21  and  N_22 
ROOT
HETATM    1  N   UNL     1     -42.800 -49.138  13.638  1.00  0.00    -0.343 N 
HETATM    2  C   UNL     1     -41.839 -48.421  12.951  1.00  0.00     0.299 C 
HETATM    3  O   UNL     1     -40.720 -48.847  12.704  1.00  0.00    -0.254 OA
HETATM    4  N   UNL     1     -42.341 -47.181  12.585  1.00  0.00    -0.207 NA
HETATM    5  H   UNL     1     -43.361 -48.535  14.225  1.00  0.00     0.164 HD
HETATM    6  H   UNL     1     -43.242 -47.329  12.149  1.00  0.00     0.138 HD
ENDROOT
BRANCH   1   7
HETATM    7  C   UNL     1     -42.488 -50.464  14.170  1.00  0.00     0.089 C 
HETATM    8  C   UNL     1     -42.901 -51.585  13.209  1.00  0.00     0.055 C 
HETATM    9  C   UNL     1     -44.423 -51.700  13.112  1.00  0.00     0.275 C 
HETATM   10  N   UNL     1     -45.109 -51.891  14.404  1.00  0.00     0.097 N 
HETATM   11  C   UNL     1     -44.688 -50.865  15.374  1.00  0.00     0.275 C 
HETATM   12  C   UNL     1     -43.173 -50.689  15.520  1.00  0.00     0.055 C 
BRANCH  10  13
HETATM   13  C   UNL     1     -44.931 -53.259  14.953  1.00  0.00     0.374 C 
BRANCH  13  14
HETATM   14  C   UNL     1     -45.956 -54.245  14.381  1.00  0.00     0.243 C 
HETATM   15  N   UNL     1     -47.236 -53.777  14.286  1.00  0.00    -0.369 N 
HETATM   16  H   UNL     1     -47.936 -54.365  13.858  1.00  0.00     0.159 HD
HETATM   17  H   UNL     1     -47.404 -52.784  14.399  1.00  0.00     0.159 HD
HETATM   18  O   UNL     1     -45.684 -55.406  14.090  1.00  0.00    -0.272 OA
ENDBRANCH  13  14
ENDBRANCH  10  13
ENDBRANCH   1   7
BRANCH   4  19
HETATM   19  C   UNL     1     -41.479 -46.324  11.856  1.00  0.00     0.060 A 
HETATM   20  C   UNL     1     -40.376 -45.821  12.558  1.00  0.00     0.029 A 
HETATM   21  C   UNL     1     -39.548 -44.887  11.959  1.00  0.00     0.019 A 
HETATM   22  C   UNL     1     -39.830 -44.531  10.659  1.00  0.00     0.090 A 
HETATM   23  N   UNL     1     -40.852 -45.045   9.939  1.00  0.00    -0.351 N 
HETATM   24  C   UNL     1     -41.707 -45.933  10.516  1.00  0.00     0.125 A 
ATOM     25  HN  UNL     1     -40.983 -44.768   8.966  1.00  0.00     0.166 HD
BRANCH  24  26
HETATM   26  N   UNL     1     -42.712 -46.406   9.704  1.00  0.00    -0.366 N 
HETATM   27  C   UNL     1     -42.931 -47.771   9.261  1.00  0.00     0.124 C 
HETATM   28  C   UNL     1     -44.257 -47.736   8.493  1.00  0.00     0.021 C 
HETATM   29  C   UNL     1     -44.929 -46.462   8.976  1.00  0.00     0.021 C 
HETATM   30  C   UNL     1     -43.760 -45.515   9.232  1.00  0.00     0.124 C 
ENDBRANCH  24  26
ENDBRANCH   4  19
TORSDOF 5
ENDMDL
MODEL 6
REMARK VINA RESULT:      -5.5      2.106      3.869
REMARK  5 active torsions:
REMARK  status: ('A' for Active; 'I' for Inactive)
REMARK       I    between atoms: N_1  and  C_2 
REMARK    1  A    between atoms: C_2  and  C_4 
REMARK    2  A    between atoms: C_4  and  N_5 
REMARK    3  A    between atoms: C_8  and  N_11 
REMARK       I    between atoms: N_11  and  C_12 
REMARK       I    between atoms: C_12  and  N_14 
REMARK    4  A    between atoms: N_14  and  C_15 
REMARK    5  A    between atoms: C_21  and  N_22 
ROOT
HETATM    1  N   UNL     1     -40.454 -50.125  13.409  1.00  0.00    -0.343 N 
HETATM    2  C   UNL     1     -39.977 -51.367  13.783  1.00  0.00     0.299 C 
HETATM    3  O   UNL     1     -39.195 -52.025  13.114  1.00  0.00    -0.254 OA
HETATM    4  N   UNL     1     -40.505 -51.728  15.014  1.00  0.00    -0.207 NA
HETATM    5  H   UNL     1     -41.415 -49.996  13.696  1.00  0.00     0.164 HD
HETATM    6  H   UNL     1     -40.379 -50.947  15.646  1.00  0.00     0.138 HD
ENDROOT
BRANCH   1   7
HETATM    7  C   UNL     1     -40.073 -49.549  12.119  1.00  0.00     0.089 C 
HETATM    8  C   UNL     1     -39.297 -48.236  12.278  1.00  0.00     0.055 C 
HETATM    9  C   UNL     1     -40.200 -47.118  12.801  1.00  0.00     0.275 C 
HETATM   10  N   UNL     1     -41.408 -46.873  11.990  1.00  0.00     0.097 N 
HETATM   11  C   UNL     1     -42.147 -48.127  11.765  1.00  0.00     0.275 C 
HETATM   12  C   UNL     1     -41.305 -49.296  11.246  1.00  0.00     0.055 C 
BRANCH  10  13
HETATM   13  C   UNL     1     -41.110 -46.183  10.710  1.00  0.00     0.374 C 
BRANCH  13  14
HETATM   14  C   UNL     1     -42.355 -45.515  10.113  1.00  0.00     0.243 C 
HETATM   15  N   UNL     1     -42.969 -44.593  10.912  1.00  0.00    -0.369 N 
HETATM   16  H   UNL     1     -43.755 -44.080  10.542  1.00  0.00     0.159 HD
HETATM   17  H   UNL     1     -42.483 -44.258  11.737  1.00  0.00     0.159 HD
HETATM   18  O   UNL     1     -42.828 -45.825   9.025  1.00  0.00    -0.272 OA
ENDBRANCH  13  14
ENDBRANCH  10  13
ENDBRANCH   1   7
BRANCH   4  19
HETATM   19  C   UNL     1     -40.101 -52.977  15.549  1.00  0.00     0.060 A 
HETATM   20  C   UNL     1     -38.925 -52.968  16.310  1.00  0.00     0.029 A 
HETATM   21  C   UNL     1     -38.396 -54.161  16.772  1.00  0.00     0.019 A 
HETATM   22  C   UNL     1     -39.097 -55.315  16.495  1.00  0.00     0.090 A 
HETATM   23  N   UNL     1     -40.264 -55.345  15.814  1.00  0.00    -0.351 N 
HETATM   24  C   UNL     1     -40.785 -54.192  15.312  1.00  0.00     0.125 A 
ATOM     25  HN  UNL     1     -40.753 -56.230  15.677  1.00  0.00     0.166 HD
BRANCH  24  26
HETATM   26  N   UNL     1     -41.978 -54.321  14.639  1.00  0.00    -0.366 N 
HETATM   27  C   UNL     1     -43.304 -54.500  15.204  1.00  0.00     0.124 C 
HETATM   28  C   UNL     1     -44.260 -54.453  14.007  1.00  0.00     0.021 C 
HETATM   29  C   UNL     1     -43.453 -53.764  12.919  1.00  0.00     0.021 C 
HETATM   30  C   UNL     1     -42.023 -54.221  13.189  1.00  0.00     0.124 C 
ENDBRANCH  24  26
ENDBRANCH   4  19
TORSDOF 5
ENDMDL
MODEL 7
REMARK VINA RESULT:      -5.4      2.897      3.841
REMARK  5 active torsions:
REMARK  status: ('A' for Active; 'I' for Inactive)
REMARK       I    between atoms: N_1  and  C_2 
REMARK    1  A    between atoms: C_2  and  C_4 
REMARK    2  A    between atoms: C_4  and  N_5 
REMARK    3  A    between atoms: C_8  and  N_11 
REMARK       I    between atoms: N_11  and  C_12 
REMARK       I    between atoms: C_12  and  N_14 
REMARK    4  A    between atoms: N_14  and  C_15 
REMARK    5  A    between atoms: C_21  and  N_22 
ROOT
HETATM    1  N   UNL     1     -43.567 -49.956  13.973  1.00  0.00    -0.343 N 
HETATM    2  C   UNL     1     -43.937 -50.529  15.174  1.00  0.00     0.299 C 
HETATM    3  O   UNL     1     -43.159 -50.754  16.089  1.00  0.00    -0.254 OA
HETATM    4  N   UNL     1     -45.300 -50.789  15.178  1.00  0.00    -0.207 NA
HETATM    5  H   UNL     1     -44.094 -50.343  13.200  1.00  0.00     0.164 HD
HETATM    6  H   UNL     1     -45.775 -49.949  14.872  1.00  0.00     0.138 HD
ENDROOT
BRANCH   1   7
HETATM    7  C   UNL     1     -42.164 -49.633  13.713  1.00  0.00     0.089 C 
HETATM    8  C   UNL     1     -41.792 -48.229  14.203  1.00  0.00     0.055 C 
HETATM    9  C   UNL     1     -42.464 -47.149  13.354  1.00  0.00     0.275 C 
HETATM   10  N   UNL     1     -42.192 -47.246  11.908  1.00  0.00     0.097 N 
HETATM   11  C   UNL     1     -42.481 -48.603  11.413  1.00  0.00     0.275 C 
HETATM   12  C   UNL     1     -41.845 -49.740  12.219  1.00  0.00     0.055 C 
BRANCH  10  13
HETATM   13  C   UNL     1     -40.814 -46.822  11.553  1.00  0.00     0.374 C 
BRANCH  13  14
HETATM   14  C   UNL     1     -40.808 -45.733  10.473  1.00  0.00     0.243 C 
HETATM   15  N   UNL     1     -39.601 -45.501   9.877  1.00  0.00    -0.369 N 
HETATM   16  H   UNL     1     -39.556 -44.839   9.117  1.00  0.00     0.159 HD
HETATM   17  H   UNL     1     -38.848 -46.164  10.021  1.00  0.00     0.159 HD
HETATM   18  O   UNL     1     -41.791 -45.052  10.198  1.00  0.00    -0.272 OA
ENDBRANCH  13  14
ENDBRANCH  10  13
ENDBRANCH   1   7
BRANCH   4  19
HETATM   19  C   UNL     1     -45.844 -51.368  16.351  1.00  0.00     0.060 A 
HETATM   20  C   UNL     1     -46.290 -50.470  17.330  1.00  0.00     0.029 A 
HETATM   21  C   UNL     1     -46.727 -50.949  18.553  1.00  0.00     0.019 A 
HETATM   22  C   UNL     1     -46.749 -52.315  18.728  1.00  0.00     0.090 A 
HETATM   23  N   UNL     1     -46.381 -53.205  17.780  1.00  0.00    -0.351 N 
HETATM   24  C   UNL     1     -45.907 -52.762  16.584  1.00  0.00     0.125 A 
ATOM     25  HN  UNL     1     -46.458 -54.206  17.961  1.00  0.00     0.166 HD
BRANCH  24  26
HETATM   26  N   UNL     1     -45.563 -53.741  15.679  1.00  0.00    -0.366 N 
HETATM   27  C   UNL     1     -46.407 -54.358  14.672  1.00  0.00     0.124 C 
HETATM   28  C   UNL     1     -45.473 -55.277  13.876  1.00  0.00     0.021 C 
HETATM   29  C   UNL     1     -44.084 -54.741  14.177  1.00  0.00     0.021 C 
HETATM   30  C   UNL     1     -44.198 -54.237  15.613  1.00  0.00     0.124 C 
ENDBRANCH  24  26
ENDBRANCH   4  19
TORSDOF 5
ENDMDL
MODEL 8
REMARK VINA RESULT:      -5.4      3.920      5.326
REMARK  5 active torsions:
REMARK  status: ('A' for Active; 'I' for Inactive)
REMARK       I    between atoms: N_1  and  C_2 
REMARK    1  A    between atoms: C_2  and  C_4 
REMARK    2  A    between atoms: C_4  and  N_5 
REMARK    3  A    between atoms: C_8  and  N_11 
REMARK       I    between atoms: N_11  and  C_12 
REMARK       I    between atoms: C_12  and  N_14 
REMARK    4  A    between atoms: N_14  and  C_15 
REMARK    5  A    between atoms: C_21  and  N_22 
ROOT
HETATM    1  N   UNL     1     -41.966 -50.453  15.602  1.00  0.00    -0.343 N 
HETATM    2  C   UNL     1     -43.294 -50.125  15.797  1.00  0.00     0.299 C 
HETATM    3  O   UNL     1     -43.802 -49.084  15.407  1.00  0.00    -0.254 OA
HETATM    4  N   UNL     1     -43.942 -51.147  16.475  1.00  0.00    -0.207 NA
HETATM    5  H   UNL     1     -41.592 -50.965  16.390  1.00  0.00     0.164 HD
HETATM    6  H   UNL     1     -43.719 -52.017  16.009  1.00  0.00     0.138 HD
ENDROOT
BRANCH   1   7
HETATM    7  C   UNL     1     -41.063 -49.508  14.946  1.00  0.00     0.089 C 
HETATM    8  C   UNL     1     -40.833 -49.854  13.471  1.00  0.00     0.055 C 
HETATM    9  C   UNL     1     -40.010 -51.136  13.324  1.00  0.00     0.275 C 
HETATM   10  N   UNL     1     -38.714 -51.118  14.028  1.00  0.00     0.097 N 
HETATM   11  C   UNL     1     -38.890 -50.728  15.437  1.00  0.00     0.275 C 
HETATM   12  C   UNL     1     -39.711 -49.454  15.662  1.00  0.00     0.055 C 
BRANCH  10  13
HETATM   13  C   UNL     1     -37.705 -50.263  13.352  1.00  0.00     0.374 C 
BRANCH  13  14
HETATM   14  C   UNL     1     -37.288 -50.834  11.991  1.00  0.00     0.243 C 
HETATM   15  N   UNL     1     -37.666 -50.100  10.903  1.00  0.00    -0.369 N 
HETATM   16  H   UNL     1     -37.362 -50.399   9.988  1.00  0.00     0.159 HD
HETATM   17  H   UNL     1     -38.010 -49.157  11.043  1.00  0.00     0.159 HD
HETATM   18  O   UNL     1     -36.716 -51.911  11.860  1.00  0.00    -0.272 OA
ENDBRANCH  13  14
ENDBRANCH  10  13
ENDBRANCH   1   7
BRANCH   4  19
HETATM   19  C   UNL     1     -45.323 -50.971  16.743  1.00  0.00     0.060 A 
HETATM   20  C   UNL     1     -45.637 -50.294  17.929  1.00  0.00     0.029 A 
HETATM   21  C   UNL     1     -46.958 -50.181  18.326  1.00  0.00     0.019 A 
HETATM   22  C   UNL     1     -47.919 -50.706  17.490  1.00  0.00     0.090 A 
HETATM   23  N   UNL     1     -47.647 -51.311  16.312  1.00  0.00    -0.351 N 
HETATM   24  C   UNL     1     -46.355 -51.475  15.918  1.00  0.00     0.125 A 
ATOM     25  HN  UNL     1     -48.409 -51.645  15.721  1.00  0.00     0.166 HD
BRANCH  24  26
HETATM   26  N   UNL     1     -46.177 -52.096  14.702  1.00  0.00    -0.366 N 
HETATM   27  C   UNL     1     -45.960 -51.474  13.409  1.00  0.00     0.124 C 
HETATM   28  C   UNL     1     -45.700 -52.637  12.444  1.00  0.00     0.021 C 
HETATM   29  C   UNL     1     -45.307 -53.789  13.353  1.00  0.00     0.021 C 
HETATM   30  C   UNL     1     -46.129 -53.546  14.615  1.00  0.00     0.124 C 
ENDBRANCH  24  26
ENDBRANCH   4  19
TORSDOF 5
ENDMDL
MODEL 9
REMARK VINA RESULT:      -5.2      3.947      4.797
REMARK  5 active torsions:
REMARK  status: ('A' for Active; 'I' for Inactive)
REMARK       I    between atoms: N_1  and  C_2 
REMARK    1  A    between atoms: C_2  and  C_4 
REMARK    2  A    between atoms: C_4  and  N_5 
REMARK    3  A    between atoms: C_8  and  N_11 
REMARK       I    between atoms: N_11  and  C_12 
REMARK       I    between atoms: C_12  and  N_14 
REMARK    4  A    between atoms: N_14  and  C_15 
REMARK    5  A    between atoms: C_21  and  N_22 
ROOT
HETATM    1  N   UNL     1     -41.491 -49.683  16.001  1.00  0.00    -0.343 N 
HETATM    2  C   UNL     1     -42.531 -49.937  15.129  1.00  0.00     0.299 C 
HETATM    3  O   UNL     1     -42.789 -49.244  14.157  1.00  0.00    -0.254 OA
HETATM    4  N   UNL     1     -43.209 -51.084  15.517  1.00  0.00    -0.207 NA
HETATM    5  H   UNL     1     -41.737 -49.926  16.952  1.00  0.00     0.164 HD
HETATM    6  H   UNL     1     -42.522 -51.809  15.680  1.00  0.00     0.138 HD
ENDROOT
BRANCH   1   7
HETATM    7  C   UNL     1     -40.655 -48.496  15.824  1.00  0.00     0.089 C 
HETATM    8  C   UNL     1     -39.641 -48.665  14.688  1.00  0.00     0.055 C 
HETATM    9  C   UNL     1     -38.561 -49.683  15.056  1.00  0.00     0.275 C 
HETATM   10  N   UNL     1     -37.841 -49.390  16.310  1.00  0.00     0.097 N 
HETATM   11  C   UNL     1     -38.789 -49.161  17.413  1.00  0.00     0.275 C 
HETATM   12  C   UNL     1     -39.906 -48.155  17.115  1.00  0.00     0.055 C 
BRANCH  10  13
HETATM   13  C   UNL     1     -36.886 -48.262  16.174  1.00  0.00     0.374 C 
BRANCH  13  14
HETATM   14  C   UNL     1     -35.439 -48.700  16.432  1.00  0.00     0.243 C 
HETATM   15  N   UNL     1     -35.243 -50.047  16.554  1.00  0.00    -0.369 N 
HETATM   16  H   UNL     1     -34.301 -50.391  16.662  1.00  0.00     0.159 HD
HETATM   17  H   UNL     1     -35.988 -50.677  16.280  1.00  0.00     0.159 HD
HETATM   18  O   UNL     1     -34.515 -47.909  16.595  1.00  0.00    -0.272 OA
ENDBRANCH  13  14
ENDBRANCH  10  13
ENDBRANCH   1   7
BRANCH   4  19
HETATM   19  C   UNL     1     -44.303 -51.492  14.714  1.00  0.00     0.060 A 
HETATM   20  C   UNL     1     -45.560 -51.006  15.095  1.00  0.00     0.029 A 
HETATM   21  C   UNL     1     -46.696 -51.447  14.437  1.00  0.00     0.019 A 
HETATM   22  C   UNL     1     -46.521 -52.320  13.386  1.00  0.00     0.090 A 
HETATM   23  N   UNL     1     -45.315 -52.758  12.960  1.00  0.00    -0.351 N 
HETATM   24  C   UNL     1     -44.186 -52.374  13.615  1.00  0.00     0.125 A 
ATOM     25  HN  UNL     1     -45.253 -53.374  12.149  1.00  0.00     0.166 HD
BRANCH  24  26
HETATM   26  N   UNL     1     -43.005 -52.866  13.105  1.00  0.00    -0.366 N 
HETATM   27  C   UNL     1     -42.089 -52.208  12.190  1.00  0.00     0.124 C 
HETATM   28  C   UNL     1     -40.893 -53.159  12.068  1.00  0.00     0.021 C 
HETATM   29  C   UNL     1     -41.002 -54.047  13.297  1.00  0.00     0.021 C 
HETATM   30  C   UNL     1     -42.507 -54.167  13.519  1.00  0.00     0.124 C 
ENDBRANCH  24  26
ENDBRANCH   4  19
TORSDOF 5
ENDMDL
