MODEL 1
REMARK VINA RESULT:      -5.6      0.000      0.000
REMARK  6 active torsions:
REMARK  status: ('A' for Active; 'I' for Inactive)
REMARK    1  A    between atoms: O_2  and  C_3 
REMARK    2  A    between atoms: C_3  and  C_4 
REMARK    3  A    between atoms: C_4  and  N_5 
REMARK    4  A    between atoms: C_6  and  N_7 
REMARK    5  A    between atoms: C_8  and  S_9 
REMARK    6  A    between atoms: S_9  and  C_10 
ROOT
HETATM    1  N   UNL     1     -42.115 -53.049  12.997  1.00  0.00    -0.287 N 
HETATM    2  C   UNL     1     -43.386 -53.624  12.893  1.00  0.00     0.107 C 
HETATM    3  C   UNL     1     -43.791 -54.506  13.837  1.00  0.00     0.112 C 
HETATM    4  C   UNL     1     -42.826 -54.984  14.863  1.00  0.00     0.269 C 
HETATM    5  O   UNL     1     -43.124 -55.744  15.780  1.00  0.00    -0.266 OA
HETATM    6  N   UNL     1     -41.550 -54.530  14.716  1.00  0.00    -0.274 N 
HETATM    7  C   UNL     1     -41.169 -53.485  13.924  1.00  0.00     0.330 C 
HETATM    8  O   UNL     1     -40.044 -53.010  14.064  1.00  0.00    -0.246 OA
HETATM    9  H   UNL     1     -40.877 -54.823  15.408  1.00  0.00     0.173 HD
ENDROOT
BRANCH   3  10
HETATM   10  S   UNL     1     -45.476 -54.906  14.037  1.00  0.00    -0.082 SA
BRANCH  10  11
HETATM   11  C   UNL     1     -46.104 -53.581  15.039  1.00  0.00     0.006 A 
HETATM   12  C   UNL     1     -45.930 -53.679  16.427  1.00  0.00     0.020 A 
HETATM   13  C   UNL     1     -46.377 -52.665  17.277  1.00  0.00     0.025 A 
HETATM   14  C   UNL     1     -46.997 -51.543  16.738  1.00  0.00     0.034 A 
HETATM   15 CL   UNL     1     -47.598 -50.314  17.780  1.00  0.00    -0.084 Cl
HETATM   16  C   UNL     1     -47.136 -51.411  15.357  1.00  0.00     0.025 A 
HETATM   17  C   UNL     1     -46.681 -52.424  14.507  1.00  0.00     0.020 A 
ENDBRANCH  10  11
ENDBRANCH   3  10
BRANCH   2  18
HETATM   18  N   UNL     1     -44.235 -53.295  11.837  1.00  0.00    -0.287 NA
HETATM   19  H   UNL     1     -44.704 -54.094  11.439  1.00  0.00     0.125 HD
HETATM   20  H   UNL     1     -43.723 -52.810  11.093  1.00  0.00     0.125 HD
ENDBRANCH   2  18
BRANCH   1  21
HETATM   21  C   UNL     1     -41.742 -51.888  12.169  1.00  0.00     0.161 C 
BRANCH  21  22
HETATM   22  C   UNL     1     -42.068 -50.520  12.798  1.00  0.00     0.187 C 
BRANCH  22  23
HETATM   23  O   UNL     1     -43.467 -50.360  13.032  1.00  0.00    -0.394 OA
HETATM   24  C   UNL     1     -43.739 -50.165  14.417  1.00  0.00     0.201 C 
ENDBRANCH  22  23
ENDBRANCH  21  22
ENDBRANCH   1  21
TORSDOF 6
ENDMDL
MODEL 2
REMARK VINA RESULT:      -5.5      3.426      4.709
REMARK  6 active torsions:
REMARK  status: ('A' for Active; 'I' for Inactive)
REMARK    1  A    between atoms: O_2  and  C_3 
REMARK    2  A    between atoms: C_3  and  C_4 
REMARK    3  A    between atoms: C_4  and  N_5 
REMARK    4  A    between atoms: C_6  and  N_7 
REMARK    5  A    between atoms: C_8  and  S_9 
REMARK    6  A    between atoms: S_9  and  C_10 
ROOT
HETATM    1  N   UNL     1     -39.567 -48.813  12.285  1.00  0.00    -0.287 N 
HETATM    2  C   UNL     1     -40.048 -49.987  11.697  1.00  0.00     0.107 C 
HETATM    3  C   UNL     1     -40.072 -51.129  12.425  1.00  0.00     0.112 C 
HETATM    4  C   UNL     1     -39.429 -51.163  13.765  1.00  0.00     0.269 C 
HETATM    5  O   UNL     1     -39.448 -52.140  14.508  1.00  0.00    -0.266 OA
HETATM    6  N   UNL     1     -38.785 -50.020  14.130  1.00  0.00    -0.274 N 
HETATM    7  C   UNL     1     -38.932 -48.803  13.527  1.00  0.00     0.330 C 
HETATM    8  O   UNL     1     -38.501 -47.802  14.092  1.00  0.00    -0.246 OA
HETATM    9  H   UNL     1     -38.356 -50.007  15.043  1.00  0.00     0.173 HD
ENDROOT
BRANCH   3  10
HETATM   10  S   UNL     1     -41.052 -52.489  11.942  1.00  0.00    -0.082 SA
BRANCH  10  11
HETATM   11  C   UNL     1     -42.657 -52.098  12.593  1.00  0.00     0.006 A 
HETATM   12  C   UNL     1     -43.669 -53.057  12.443  1.00  0.00     0.020 A 
HETATM   13  C   UNL     1     -44.950 -52.829  12.951  1.00  0.00     0.025 A 
HETATM   14  C   UNL     1     -45.222 -51.638  13.616  1.00  0.00     0.034 A 
HETATM   15 CL   UNL     1     -46.811 -51.327  14.198  1.00  0.00    -0.084 Cl
HETATM   16  C   UNL     1     -44.214 -50.696  13.813  1.00  0.00     0.025 A 
HETATM   17  C   UNL     1     -42.929 -50.929  13.311  1.00  0.00     0.020 A 
ENDBRANCH  10  11
ENDBRANCH   3  10
BRANCH   2  18
HETATM   18  N   UNL     1     -40.504 -49.992  10.380  1.00  0.00    -0.287 NA
HETATM   19  H   UNL     1     -41.487 -49.778  10.296  1.00  0.00     0.125 HD
HETATM   20  H   UNL     1     -40.326 -50.899   9.934  1.00  0.00     0.125 HD
ENDBRANCH   2  18
BRANCH   1  21
HETATM   21  C   UNL     1     -39.782 -47.505  11.642  1.00  0.00     0.161 C 
BRANCH  21  22
HETATM   22  C   UNL     1     -41.199 -46.927  11.821  1.00  0.00     0.187 C 
BRANCH  22  23
HETATM   23  O   UNL     1     -42.050 -47.250  10.722  1.00  0.00    -0.394 OA
HETATM   24  C   UNL     1     -43.333 -47.677  11.171  1.00  0.00     0.201 C 
ENDBRANCH  22  23
ENDBRANCH  21  22
ENDBRANCH   1  21
TORSDOF 6
ENDMDL
MODEL 3
REMARK VINA RESULT:      -5.3      1.815      3.239
REMARK  6 active torsions:
REMARK  status: ('A' for Active; 'I' for Inactive)
REMARK    1  A    between atoms: O_2  and  C_3 
REMARK    2  A    between atoms: C_3  and  C_4 
REMARK    3  A    between atoms: C_4  and  N_5 
REMARK    4  A    between atoms: C_6  and  N_7 
REMARK    5  A    between atoms: C_8  and  S_9 
REMARK    6  A    between atoms: S_9  and  C_10 
ROOT
HETATM    1  N   UNL     1     -41.289 -53.258  13.815  1.00  0.00    -0.287 N 
HETATM    2  C   UNL     1     -42.401 -53.650  14.567  1.00  0.00     0.107 C 
HETATM    3  C   UNL     1     -43.608 -53.744  13.961  1.00  0.00     0.112 C 
HETATM    4  C   UNL     1     -43.772 -53.262  12.564  1.00  0.00     0.269 C 
HETATM    5  O   UNL     1     -44.817 -53.355  11.927  1.00  0.00    -0.266 OA
HETATM    6  N   UNL     1     -42.668 -52.682  12.017  1.00  0.00    -0.274 N 
HETATM    7  C   UNL     1     -41.399 -52.773  12.512  1.00  0.00     0.330 C 
HETATM    8  O   UNL     1     -40.457 -52.425  11.805  1.00  0.00    -0.246 OA
HETATM    9  H   UNL     1     -42.744 -52.362  11.063  1.00  0.00     0.173 HD
ENDROOT
BRANCH   3  10
HETATM   10  S   UNL     1     -44.916 -54.642  14.685  1.00  0.00    -0.082 SA
BRANCH  10  11
HETATM   11  C   UNL     1     -45.868 -53.394  15.517  1.00  0.00     0.006 A 
HETATM   12  C   UNL     1     -45.863 -53.402  16.919  1.00  0.00     0.020 A 
HETATM   13  C   UNL     1     -46.569 -52.438  17.641  1.00  0.00     0.025 A 
HETATM   14  C   UNL     1     -47.282 -51.456  16.960  1.00  0.00     0.034 A 
HETATM   15 CL   UNL     1     -48.197 -50.297  17.841  1.00  0.00    -0.084 Cl
HETATM   16  C   UNL     1     -47.259 -51.410  15.567  1.00  0.00     0.025 A 
HETATM   17  C   UNL     1     -46.544 -52.371  14.846  1.00  0.00     0.020 A 
ENDBRANCH  10  11
ENDBRANCH   3  10
BRANCH   2  18
HETATM   18  N   UNL     1     -42.277 -53.949  15.923  1.00  0.00    -0.287 NA
HETATM   19  H   UNL     1     -41.926 -54.879  16.097  1.00  0.00     0.125 HD
HETATM   20  H   UNL     1     -43.176 -53.842  16.404  1.00  0.00     0.125 HD
ENDBRANCH   2  18
BRANCH   1  21
HETATM   21  C   UNL     1     -39.924 -53.414  14.349  1.00  0.00     0.161 C 
BRANCH  21  22
HETATM   22  C   UNL     1     -39.238 -54.744  13.978  1.00  0.00     0.187 C 
BRANCH  22  23
HETATM   23  O   UNL     1     -38.906 -55.512  15.134  1.00  0.00    -0.394 OA
HETATM   24  C   UNL     1     -38.706 -54.675  16.270  1.00  0.00     0.201 C 
ENDBRANCH  22  23
ENDBRANCH  21  22
ENDBRANCH   1  21
TORSDOF 6
ENDMDL
MODEL 4
REMARK VINA RESULT:      -5.3      3.899      5.527
REMARK  6 active torsions:
REMARK  status: ('A' for Active; 'I' for Inactive)
REMARK    1  A    between atoms: O_2  and  C_3 
REMARK    2  A    between atoms: C_3  and  C_4 
REMARK    3  A    between atoms: C_4  and  N_5 
REMARK    4  A    between atoms: C_6  and  N_7 
REMARK    5  A    between atoms: C_8  and  S_9 
REMARK    6  A    between atoms: S_9  and  C_10 
ROOT
HETATM    1  N   UNL     1     -41.993 -48.457  11.691  1.00  0.00    -0.287 N 
HETATM    2  C   UNL     1     -41.197 -49.606  11.643  1.00  0.00     0.107 C 
HETATM    3  C   UNL     1     -41.015 -50.331  12.773  1.00  0.00     0.112 C 
HETATM    4  C   UNL     1     -41.509 -49.807  14.074  1.00  0.00     0.269 C 
HETATM    5  O   UNL     1     -41.428 -50.421  15.133  1.00  0.00    -0.266 OA
HETATM    6  N   UNL     1     -42.062 -48.563  14.027  1.00  0.00    -0.274 N 
HETATM    7  C   UNL     1     -42.455 -47.916  12.890  1.00  0.00     0.330 C 
HETATM    8  O   UNL     1     -43.164 -46.916  12.989  1.00  0.00    -0.246 OA
HETATM    9  H   UNL     1     -42.424 -48.189  14.891  1.00  0.00     0.173 HD
ENDROOT
BRANCH   3  10
HETATM   10  S   UNL     1     -40.439 -51.976  12.709  1.00  0.00    -0.082 SA
BRANCH  10  11
HETATM   11  C   UNL     1     -41.881 -52.938  13.089  1.00  0.00     0.006 A 
HETATM   12  C   UNL     1     -43.006 -52.775  12.269  1.00  0.00     0.020 A 
HETATM   13  C   UNL     1     -44.168 -53.515  12.493  1.00  0.00     0.025 A 
HETATM   14  C   UNL     1     -44.208 -54.429  13.541  1.00  0.00     0.034 A 
HETATM   15 CL   UNL     1     -45.652 -55.307  13.857  1.00  0.00    -0.084 Cl
HETATM   16  C   UNL     1     -43.082 -54.635  14.337  1.00  0.00     0.025 A 
HETATM   17  C   UNL     1     -41.916 -53.898  14.106  1.00  0.00     0.020 A 
ENDBRANCH  10  11
ENDBRANCH   3  10
BRANCH   2  18
HETATM   18  N   UNL     1     -40.599 -50.012  10.452  1.00  0.00    -0.287 NA
HETATM   19  H   UNL     1     -39.667 -49.646  10.327  1.00  0.00     0.125 HD
HETATM   20  H   UNL     1     -41.170 -49.740   9.644  1.00  0.00     0.125 HD
ENDBRANCH   2  18
BRANCH   1  21
HETATM   21  C   UNL     1     -42.450 -47.804  10.452  1.00  0.00     0.161 C 
BRANCH  21  22
HETATM   22  C   UNL     1     -41.718 -46.491  10.111  1.00  0.00     0.187 C 
BRANCH  22  23
HETATM   23  O   UNL     1     -42.539 -45.605   9.351  1.00  0.00    -0.394 OA
HETATM   24  C   UNL     1     -43.554 -46.317   8.648  1.00  0.00     0.201 C 
ENDBRANCH  22  23
ENDBRANCH  21  22
ENDBRANCH   1  21
TORSDOF 6
ENDMDL
MODEL 5
REMARK VINA RESULT:      -5.1      1.624      2.041
REMARK  6 active torsions:
REMARK  status: ('A' for Active; 'I' for Inactive)
REMARK    1  A    between atoms: O_2  and  C_3 
REMARK    2  A    between atoms: C_3  and  C_4 
REMARK    3  A    between atoms: C_4  and  N_5 
REMARK    4  A    between atoms: C_6  and  N_7 
REMARK    5  A    between atoms: C_8  and  S_9 
REMARK    6  A    between atoms: S_9  and  C_10 
ROOT
HETATM    1  N   UNL     1     -40.543 -52.710  13.504  1.00  0.00    -0.287 N 
HETATM    2  C   UNL     1     -41.689 -52.941  12.736  1.00  0.00     0.107 C 
HETATM    3  C   UNL     1     -42.645 -53.775  13.211  1.00  0.00     0.112 C 
HETATM    4  C   UNL     1     -42.389 -54.565  14.445  1.00  0.00     0.269 C 
HETATM    5  O   UNL     1     -43.217 -55.305  14.967  1.00  0.00    -0.266 OA
HETATM    6  N   UNL     1     -41.140 -54.429  14.972  1.00  0.00    -0.274 N 
HETATM    7  C   UNL     1     -40.249 -53.445  14.651  1.00  0.00     0.330 C 
HETATM    8  O   UNL     1     -39.264 -53.277  15.366  1.00  0.00    -0.246 OA
HETATM    9  H   UNL     1     -40.943 -54.939  15.820  1.00  0.00     0.173 HD
ENDROOT
BRANCH   3  10
HETATM   10  S   UNL     1     -44.262 -53.763  12.558  1.00  0.00    -0.082 SA
BRANCH  10  11
HETATM   11  C   UNL     1     -45.199 -52.878  13.780  1.00  0.00     0.006 A 
HETATM   12  C   UNL     1     -46.354 -53.493  14.282  1.00  0.00     0.020 A 
HETATM   13  C   UNL     1     -47.128 -52.868  15.262  1.00  0.00     0.025 A 
HETATM   14  C   UNL     1     -46.745 -51.622  15.747  1.00  0.00     0.034 A 
HETATM   15 CL   UNL     1     -47.721 -50.822  16.916  1.00  0.00    -0.084 Cl
HETATM   16  C   UNL     1     -45.574 -51.020  15.290  1.00  0.00     0.025 A 
HETATM   17  C   UNL     1     -44.795 -51.651  14.315  1.00  0.00     0.020 A 
ENDBRANCH  10  11
ENDBRANCH   3  10
BRANCH   2  18
HETATM   18  N   UNL     1     -41.858 -52.322  11.499  1.00  0.00    -0.287 NA
HETATM   19  H   UNL     1     -41.031 -52.349  10.922  1.00  0.00     0.125 HD
HETATM   20  H   UNL     1     -42.146 -51.344  11.615  1.00  0.00     0.125 HD
ENDBRANCH   2  18
BRANCH   1  21
HETATM   21  C   UNL     1     -39.622 -51.609  13.170  1.00  0.00     0.161 C 
BRANCH  21  22
HETATM   22  C   UNL     1     -40.054 -50.228  13.700  1.00  0.00     0.187 C 
BRANCH  22  23
HETATM   23  O   UNL     1     -40.834 -49.509  12.745  1.00  0.00    -0.394 OA
HETATM   24  C   UNL     1     -40.076 -49.221  11.573  1.00  0.00     0.201 C 
ENDBRANCH  22  23
ENDBRANCH  21  22
ENDBRANCH   1  21
TORSDOF 6
ENDMDL
MODEL 6
REMARK VINA RESULT:      -5.0      4.001      6.793
REMARK  6 active torsions:
REMARK  status: ('A' for Active; 'I' for Inactive)
REMARK    1  A    between atoms: O_2  and  C_3 
REMARK    2  A    between atoms: C_3  and  C_4 
REMARK    3  A    between atoms: C_4  and  N_5 
REMARK    4  A    between atoms: C_6  and  N_7 
REMARK    5  A    between atoms: C_8  and  S_9 
REMARK    6  A    between atoms: S_9  and  C_10 
ROOT
HETATM    1  N   UNL     1     -42.813 -52.461  13.058  1.00  0.00    -0.287 N 
HETATM    2  C   UNL     1     -41.985 -51.784  12.157  1.00  0.00     0.107 C 
HETATM    3  C   UNL     1     -41.957 -50.430  12.175  1.00  0.00     0.112 C 
HETATM    4  C   UNL     1     -42.926 -49.683  13.020  1.00  0.00     0.269 C 
HETATM    5  O   UNL     1     -42.936 -48.460  13.131  1.00  0.00    -0.266 OA
HETATM    6  N   UNL     1     -43.840 -50.452  13.674  1.00  0.00    -0.274 N 
HETATM    7  C   UNL     1     -43.755 -51.804  13.849  1.00  0.00     0.330 C 
HETATM    8  O   UNL     1     -44.499 -52.348  14.662  1.00  0.00    -0.246 OA
HETATM    9  H   UNL     1     -44.499 -49.974  14.270  1.00  0.00     0.173 HD
ENDROOT
BRANCH   3  10
HETATM   10  S   UNL     1     -40.654 -49.543  11.429  1.00  0.00    -0.082 SA
BRANCH  10  11
HETATM   11  C   UNL     1     -39.355 -49.613  12.638  1.00  0.00     0.006 A 
HETATM   12  C   UNL     1     -39.344 -48.630  13.638  1.00  0.00     0.020 A 
HETATM   13  C   UNL     1     -38.368 -48.635  14.635  1.00  0.00     0.025 A 
HETATM   14  C   UNL     1     -37.397 -49.631  14.639  1.00  0.00     0.034 A 
HETATM   15 CL   UNL     1     -36.159 -49.615  15.833  1.00  0.00    -0.084 Cl
HETATM   16  C   UNL     1     -37.422 -50.642  13.679  1.00  0.00     0.025 A 
HETATM   17  C   UNL     1     -38.406 -50.639  12.685  1.00  0.00     0.020 A 
ENDBRANCH  10  11
ENDBRANCH   3  10
BRANCH   2  18
HETATM   18  N   UNL     1     -41.191 -52.484  11.250  1.00  0.00    -0.287 NA
HETATM   19  H   UNL     1     -41.226 -53.484  11.377  1.00  0.00     0.125 HD
HETATM   20  H   UNL     1     -40.213 -52.180  11.309  1.00  0.00     0.125 HD
ENDBRANCH   2  18
BRANCH   1  21
HETATM   21  C   UNL     1     -42.669 -53.912  13.270  1.00  0.00     0.161 C 
BRANCH  21  22
HETATM   22  C   UNL     1     -41.490 -54.314  14.178  1.00  0.00     0.187 C 
BRANCH  22  23
HETATM   23  O   UNL     1     -40.279 -54.478  13.439  1.00  0.00    -0.394 OA
HETATM   24  C   UNL     1     -39.148 -54.079  14.209  1.00  0.00     0.201 C 
ENDBRANCH  22  23
ENDBRANCH  21  22
ENDBRANCH   1  21
TORSDOF 6
ENDMDL
MODEL 7
REMARK VINA RESULT:      -4.9      2.092      2.843
REMARK  6 active torsions:
REMARK  status: ('A' for Active; 'I' for Inactive)
REMARK    1  A    between atoms: O_2  and  C_3 
REMARK    2  A    between atoms: C_3  and  C_4 
REMARK    3  A    between atoms: C_4  and  N_5 
REMARK    4  A    between atoms: C_6  and  N_7 
REMARK    5  A    between atoms: C_8  and  S_9 
REMARK    6  A    between atoms: S_9  and  C_10 
ROOT
HETATM    1  N   UNL     1     -41.512 -53.600  14.810  1.00  0.00    -0.287 N 
HETATM    2  C   UNL     1     -42.434 -52.910  14.017  1.00  0.00     0.107 C 
HETATM    3  C   UNL     1     -43.716 -53.345  13.965  1.00  0.00     0.112 C 
HETATM    4  C   UNL     1     -44.083 -54.638  14.601  1.00  0.00     0.269 C 
HETATM    5  O   UNL     1     -45.227 -55.080  14.641  1.00  0.00    -0.266 OA
HETATM    6  N   UNL     1     -43.045 -55.335  15.140  1.00  0.00    -0.274 N 
HETATM    7  C   UNL     1     -41.803 -54.829  15.401  1.00  0.00     0.330 C 
HETATM    8  O   UNL     1     -41.035 -55.471  16.113  1.00  0.00    -0.246 OA
HETATM    9  H   UNL     1     -43.266 -56.208  15.596  1.00  0.00     0.173 HD
ENDROOT
BRANCH   3  10
HETATM   10  S   UNL     1     -44.998 -52.312  13.391  1.00  0.00    -0.082 SA
BRANCH  10  11
HETATM   11  C   UNL     1     -45.656 -51.597  14.877  1.00  0.00     0.006 A 
HETATM   12  C   UNL     1     -46.989 -51.886  15.202  1.00  0.00     0.020 A 
HETATM   13  C   UNL     1     -47.567 -51.378  16.367  1.00  0.00     0.025 A 
HETATM   14  C   UNL     1     -46.808 -50.579  17.217  1.00  0.00     0.034 A 
HETATM   15 CL   UNL     1     -47.527 -49.906  18.627  1.00  0.00    -0.084 Cl
HETATM   16  C   UNL     1     -45.469 -50.321  16.930  1.00  0.00     0.025 A 
HETATM   17  C   UNL     1     -44.889 -50.838  15.766  1.00  0.00     0.020 A 
ENDBRANCH  10  11
ENDBRANCH   3  10
BRANCH   2  18
HETATM   18  N   UNL     1     -42.051 -51.784  13.290  1.00  0.00    -0.287 NA
HETATM   19  H   UNL     1     -42.349 -51.811  12.326  1.00  0.00     0.125 HD
HETATM   20  H   UNL     1     -41.034 -51.660  13.316  1.00  0.00     0.125 HD
ENDBRANCH   2  18
BRANCH   1  21
HETATM   21  C   UNL     1     -40.197 -53.012  15.122  1.00  0.00     0.161 C 
BRANCH  21  22
HETATM   22  C   UNL     1     -39.053 -53.471  14.197  1.00  0.00     0.187 C 
BRANCH  22  23
HETATM   23  O   UNL     1     -38.501 -52.385  13.453  1.00  0.00    -0.394 OA
HETATM   24  C   UNL     1     -38.569 -51.167  14.190  1.00  0.00     0.201 C 
ENDBRANCH  22  23
ENDBRANCH  21  22
ENDBRANCH   1  21
TORSDOF 6
ENDMDL
MODEL 8
REMARK VINA RESULT:      -4.9      4.202      6.971
REMARK  6 active torsions:
REMARK  status: ('A' for Active; 'I' for Inactive)
REMARK    1  A    between atoms: O_2  and  C_3 
REMARK    2  A    between atoms: C_3  and  C_4 
REMARK    3  A    between atoms: C_4  and  N_5 
REMARK    4  A    between atoms: C_6  and  N_7 
REMARK    5  A    between atoms: C_8  and  S_9 
REMARK    6  A    between atoms: S_9  and  C_10 
ROOT
HETATM    1  N   UNL     1     -42.762 -51.829  12.813  1.00  0.00    -0.287 N 
HETATM    2  C   UNL     1     -41.556 -51.665  12.123  1.00  0.00     0.107 C 
HETATM    3  C   UNL     1     -41.102 -50.413  11.874  1.00  0.00     0.112 C 
HETATM    4  C   UNL     1     -41.968 -49.242  12.174  1.00  0.00     0.269 C 
HETATM    5  O   UNL     1     -41.615 -48.076  12.024  1.00  0.00    -0.266 OA
HETATM    6  N   UNL     1     -43.217 -49.543  12.626  1.00  0.00    -0.274 N 
HETATM    7  C   UNL     1     -43.616 -50.763  13.091  1.00  0.00     0.330 C 
HETATM    8  O   UNL     1     -44.680 -50.849  13.700  1.00  0.00    -0.246 OA
HETATM    9  H   UNL     1     -43.820 -48.768  12.856  1.00  0.00     0.173 HD
ENDROOT
BRANCH   3  10
HETATM   10  S   UNL     1     -39.438 -50.124  11.444  1.00  0.00    -0.082 SA
BRANCH  10  11
HETATM   11  C   UNL     1     -38.637 -49.889  13.011  1.00  0.00     0.006 A 
HETATM   12  C   UNL     1     -38.188 -48.598  13.324  1.00  0.00     0.020 A 
HETATM   13  C   UNL     1     -37.570 -48.333  14.548  1.00  0.00     0.025 A 
HETATM   14  C   UNL     1     -37.402 -49.363  15.468  1.00  0.00     0.034 A 
HETATM   15 CL   UNL     1     -36.595 -49.057  16.956  1.00  0.00    -0.084 Cl
HETATM   16  C   UNL     1     -37.884 -50.641  15.190  1.00  0.00     0.025 A 
HETATM   17  C   UNL     1     -38.510 -50.902  13.967  1.00  0.00     0.020 A 
ENDBRANCH  10  11
ENDBRANCH   3  10
BRANCH   2  18
HETATM   18  N   UNL     1     -40.819 -52.769  11.698  1.00  0.00    -0.287 NA
HETATM   19  H   UNL     1     -39.862 -52.548  11.470  1.00  0.00     0.125 HD
HETATM   20  H   UNL     1     -41.258 -53.210  10.882  1.00  0.00     0.125 HD
ENDBRANCH   2  18
BRANCH   1  21
HETATM   21  C   UNL     1     -43.149 -53.145  13.352  1.00  0.00     0.161 C 
BRANCH  21  22
HETATM   22  C   UNL     1     -44.062 -53.973  12.428  1.00  0.00     0.187 C 
BRANCH  22  23
HETATM   23  O   UNL     1     -45.395 -54.059  12.932  1.00  0.00    -0.394 OA
HETATM   24  C   UNL     1     -45.522 -55.121  13.875  1.00  0.00     0.201 C 
ENDBRANCH  22  23
ENDBRANCH  21  22
ENDBRANCH   1  21
TORSDOF 6
ENDMDL
MODEL 9
REMARK VINA RESULT:      -4.8      3.072      5.495
REMARK  6 active torsions:
REMARK  status: ('A' for Active; 'I' for Inactive)
REMARK    1  A    between atoms: O_2  and  C_3 
REMARK    2  A    between atoms: C_3  and  C_4 
REMARK    3  A    between atoms: C_4  and  N_5 
REMARK    4  A    between atoms: C_6  and  N_7 
REMARK    5  A    between atoms: C_8  and  S_9 
REMARK    6  A    between atoms: S_9  and  C_10 
ROOT
HETATM    1  N   UNL     1     -44.508 -54.238  13.736  1.00  0.00    -0.287 N 
HETATM    2  C   UNL     1     -43.265 -54.648  14.227  1.00  0.00     0.107 C 
HETATM    3  C   UNL     1     -42.138 -54.103  13.709  1.00  0.00     0.112 C 
HETATM    4  C   UNL     1     -42.226 -53.218  12.517  1.00  0.00     0.269 C 
HETATM    5  O   UNL     1     -41.262 -52.647  12.017  1.00  0.00    -0.266 OA
HETATM    6  N   UNL     1     -43.473 -53.083  11.986  1.00  0.00    -0.274 N 
HETATM    7  C   UNL     1     -44.639 -53.432  12.605  1.00  0.00     0.330 C 
HETATM    8  O   UNL     1     -45.704 -53.036  12.138  1.00  0.00    -0.246 OA
HETATM    9  H   UNL     1     -43.567 -52.473  11.187  1.00  0.00     0.173 HD
ENDROOT
BRANCH   3  10
HETATM   10  S   UNL     1     -40.614 -54.208  14.551  1.00  0.00    -0.082 SA
BRANCH  10  11
HETATM   11  C   UNL     1     -40.283 -52.529  15.025  1.00  0.00     0.006 A 
HETATM   12  C   UNL     1     -41.231 -51.883  15.831  1.00  0.00     0.020 A 
HETATM   13  C   UNL     1     -41.028 -50.571  16.262  1.00  0.00     0.025 A 
HETATM   14  C   UNL     1     -39.867 -49.899  15.891  1.00  0.00     0.034 A 
HETATM   15 CL   UNL     1     -39.633 -48.265  16.374  1.00  0.00    -0.084 Cl
HETATM   16  C   UNL     1     -38.895 -50.544  15.129  1.00  0.00     0.025 A 
HETATM   17  C   UNL     1     -39.097 -51.861  14.704  1.00  0.00     0.020 A 
ENDBRANCH  10  11
ENDBRANCH   3  10
BRANCH   2  18
HETATM   18  N   UNL     1     -43.175 -55.601  15.240  1.00  0.00    -0.287 NA
HETATM   19  H   UNL     1     -42.244 -55.973  15.358  1.00  0.00     0.125 HD
HETATM   20  H   UNL     1     -43.820 -56.380  15.068  1.00  0.00     0.125 HD
ENDBRANCH   2  18
BRANCH   1  21
HETATM   21  C   UNL     1     -45.751 -54.582  14.449  1.00  0.00     0.161 C 
BRANCH  21  22
HETATM   22  C   UNL     1     -45.978 -53.800  15.758  1.00  0.00     0.187 C 
BRANCH  22  23
HETATM   23  O   UNL     1     -45.663 -54.583  16.909  1.00  0.00    -0.394 OA
HETATM   24  C   UNL     1     -46.055 -53.918  18.107  1.00  0.00     0.201 C 
ENDBRANCH  22  23
ENDBRANCH  21  22
ENDBRANCH   1  21
TORSDOF 6
ENDMDL
