MODEL 1
REMARK VINA RESULT:      -6.4      0.000      0.000
REMARK  6 active torsions:
REMARK  status: ('A' for Active; 'I' for Inactive)
REMARK    1  A    between atoms: C_2  and  C_4 
REMARK    2  A    between atoms: C_4  and  C_5 
REMARK    3  A    between atoms: C_5  and  N_6 
REMARK       I    between atoms: N_6  and  C_7 
REMARK    4  A    between atoms: C_7  and  C_9 
REMARK    5  A    between atoms: C_9  and  C_10 
REMARK    6  A    between atoms: C_13  and  N_16 
ROOT
HETATM    1  C   UNL     1     -41.313 -48.571  11.063  1.00  0.00     0.026 A 
HETATM    2  C   UNL     1     -41.175 -47.489  11.910  1.00  0.00     0.078 A 
HETATM    3  S   UNL     1     -42.413 -46.350  11.609  1.00  0.00    -0.064 SA
HETATM    4  C   UNL     1     -43.049 -47.358  10.386  1.00  0.00     0.155 A 
HETATM    5  N   UNL     1     -42.350 -48.447  10.139  1.00  0.00    -0.339 N 
ATOM      6  HN  UNL     1     -42.539 -49.104   9.381  1.00  0.00     0.168 HD
ENDROOT
BRANCH   1   7
HETATM    7  C   UNL     1     -40.489 -49.819  11.074  1.00  0.00     0.160 C 
BRANCH   7   8
HETATM    8  C   UNL     1     -40.929 -50.820  12.136  1.00  0.00     0.223 C 
HETATM    9  N   UNL     1     -41.927 -51.692  11.758  1.00  0.00    -0.361 N 
HETATM   10  H   UNL     1     -42.401 -51.498  10.879  1.00  0.00     0.162 HD
HETATM   11  O   UNL     1     -40.361 -50.888  13.226  1.00  0.00    -0.273 OA
BRANCH   9  12
HETATM   12  C   UNL     1     -42.467 -52.703  12.639  1.00  0.00     0.123 C 
BRANCH  12  13
HETATM   13  C   UNL     1     -43.899 -53.110  12.282  1.00  0.00     0.023 C 
BRANCH  13  14
HETATM   14  C   UNL     1     -44.849 -53.314  13.481  1.00  0.00    -0.021 C 
HETATM   15  C   UNL     1     -46.155 -52.532  13.339  1.00  0.00     0.009 C 
HETATM   16  C   UNL     1     -45.164 -54.806  13.642  1.00  0.00     0.009 C 
ENDBRANCH  13  14
ENDBRANCH  12  13
ENDBRANCH   9  12
ENDBRANCH   7   8
ENDBRANCH   1   7
BRANCH   4  17
HETATM   17  N   UNL     1     -44.205 -47.037   9.710  1.00  0.00    -0.278 N 
HETATM   18  C   UNL     1     -45.375 -47.884   9.654  1.00  0.00     0.155 C 
HETATM   19  C   UNL     1     -46.474 -46.981   9.115  1.00  0.00     0.145 C 
HETATM   20  N   UNL     1     -45.770 -45.834   8.623  1.00  0.00    -0.341 N 
HETATM   21  C   UNL     1     -44.455 -45.815   9.080  1.00  0.00     0.324 C 
HETATM   22  H   UNL     1     -46.189 -44.962   8.327  1.00  0.00     0.164 HD
HETATM   23  O   UNL     1     -43.752 -44.827   8.954  1.00  0.00    -0.247 OA
ENDBRANCH   4  17
TORSDOF 6
ENDMDL
MODEL 2
REMARK VINA RESULT:      -6.2      2.567      3.487
REMARK  6 active torsions:
REMARK  status: ('A' for Active; 'I' for Inactive)
REMARK    1  A    between atoms: C_2  and  C_4 
REMARK    2  A    between atoms: C_4  and  C_5 
REMARK    3  A    between atoms: C_5  and  N_6 
REMARK       I    between atoms: N_6  and  C_7 
REMARK    4  A    between atoms: C_7  and  C_9 
REMARK    5  A    between atoms: C_9  and  C_10 
REMARK    6  A    between atoms: C_13  and  N_16 
ROOT
HETATM    1  C   UNL     1     -40.463 -51.018  11.900  1.00  0.00     0.026 A 
HETATM    2  C   UNL     1     -39.265 -50.753  12.534  1.00  0.00     0.078 A 
HETATM    3  S   UNL     1     -38.881 -49.094  12.387  1.00  0.00    -0.064 SA
HETATM    4  C   UNL     1     -40.319 -48.835  11.502  1.00  0.00     0.155 A 
HETATM    5  N   UNL     1     -41.020 -49.921  11.245  1.00  0.00    -0.339 N 
ATOM      6  HN  UNL     1     -41.850 -49.953  10.652  1.00  0.00     0.168 HD
ENDROOT
BRANCH   1   7
HETATM    7  C   UNL     1     -41.189 -52.326  11.883  1.00  0.00     0.160 C 
BRANCH   7   8
HETATM    8  C   UNL     1     -42.435 -52.334  12.761  1.00  0.00     0.223 C 
HETATM    9  N   UNL     1     -43.183 -53.491  12.725  1.00  0.00    -0.361 N 
HETATM   10  H   UNL     1     -42.947 -54.171  12.006  1.00  0.00     0.162 HD
HETATM   11  O   UNL     1     -42.696 -51.394  13.511  1.00  0.00    -0.273 OA
BRANCH   9  12
HETATM   12  C   UNL     1     -44.397 -53.670  13.489  1.00  0.00     0.123 C 
BRANCH  12  13
HETATM   13  C   UNL     1     -45.664 -53.356  12.692  1.00  0.00     0.023 C 
BRANCH  13  14
HETATM   14  C   UNL     1     -46.087 -51.873  12.676  1.00  0.00    -0.021 C 
HETATM   15  C   UNL     1     -47.152 -51.573  11.619  1.00  0.00     0.009 C 
HETATM   16  C   UNL     1     -46.616 -51.471  14.058  1.00  0.00     0.009 C 
ENDBRANCH  13  14
ENDBRANCH  12  13
ENDBRANCH   9  12
ENDBRANCH   7   8
ENDBRANCH   1   7
BRANCH   4  17
HETATM   17  N   UNL     1     -40.700 -47.578  11.088  1.00  0.00    -0.278 N 
HETATM   18  C   UNL     1     -39.939 -46.375  11.337  1.00  0.00     0.155 C 
HETATM   19  C   UNL     1     -40.556 -45.335  10.414  1.00  0.00     0.145 C 
HETATM   20  N   UNL     1     -41.781 -45.940   9.981  1.00  0.00    -0.341 N 
HETATM   21  C   UNL     1     -41.806 -47.299  10.280  1.00  0.00     0.324 C 
HETATM   22  H   UNL     1     -42.383 -45.598   9.242  1.00  0.00     0.164 HD
HETATM   23  O   UNL     1     -42.657 -48.038   9.814  1.00  0.00    -0.247 OA
ENDBRANCH   4  17
TORSDOF 6
ENDMDL
MODEL 3
REMARK VINA RESULT:      -6.2      2.813      6.395
REMARK  6 active torsions:
REMARK  status: ('A' for Active; 'I' for Inactive)
REMARK    1  A    between atoms: C_2  and  C_4 
REMARK    2  A    between atoms: C_4  and  C_5 
REMARK    3  A    between atoms: C_5  and  N_6 
REMARK       I    between atoms: N_6  and  C_7 
REMARK    4  A    between atoms: C_7  and  C_9 
REMARK    5  A    between atoms: C_9  and  C_10 
REMARK    6  A    between atoms: C_13  and  N_16 
ROOT
HETATM    1  C   UNL     1     -42.514 -49.938  12.515  1.00  0.00     0.026 A 
HETATM    2  C   UNL     1     -41.438 -50.751  12.220  1.00  0.00     0.078 A 
HETATM    3  S   UNL     1     -41.881 -52.392  12.394  1.00  0.00    -0.064 SA
HETATM    4  C   UNL     1     -43.461 -51.923  12.842  1.00  0.00     0.155 A 
HETATM    5  N   UNL     1     -43.650 -50.623  12.946  1.00  0.00    -0.339 N 
ATOM      6  HN  UNL     1     -44.502 -50.182  13.292  1.00  0.00     0.168 HD
ENDROOT
BRANCH   1   7
HETATM    7  C   UNL     1     -42.562 -48.448  12.391  1.00  0.00     0.160 C 
BRANCH   7   8
HETATM    8  C   UNL     1     -42.270 -47.952  10.980  1.00  0.00     0.223 C 
HETATM    9  N   UNL     1     -43.278 -48.141  10.060  1.00  0.00    -0.361 N 
HETATM   10  H   UNL     1     -44.056 -48.734  10.342  1.00  0.00     0.162 HD
HETATM   11  O   UNL     1     -41.231 -47.347  10.716  1.00  0.00    -0.273 OA
BRANCH   9  12
HETATM   12  C   UNL     1     -43.171 -47.737   8.676  1.00  0.00     0.123 C 
BRANCH  12  13
HETATM   13  C   UNL     1     -44.527 -47.489   8.013  1.00  0.00     0.023 C 
BRANCH  13  14
HETATM   14  C   UNL     1     -45.754 -47.979   8.809  1.00  0.00    -0.021 C 
HETATM   15  C   UNL     1     -46.707 -46.843   9.185  1.00  0.00     0.009 C 
HETATM   16  C   UNL     1     -46.515 -49.030   7.990  1.00  0.00     0.009 C 
ENDBRANCH  13  14
ENDBRANCH  12  13
ENDBRANCH   9  12
ENDBRANCH   7   8
ENDBRANCH   1   7
BRANCH   4  17
HETATM   17  N   UNL     1     -44.452 -52.848  13.083  1.00  0.00    -0.278 N 
HETATM   18  C   UNL     1     -44.220 -54.266  13.237  1.00  0.00     0.155 C 
HETATM   19  C   UNL     1     -45.518 -54.804  13.820  1.00  0.00     0.145 C 
HETATM   20  N   UNL     1     -46.449 -53.729  13.641  1.00  0.00    -0.341 N 
HETATM   21  C   UNL     1     -45.796 -52.543  13.319  1.00  0.00     0.324 C 
HETATM   22  H   UNL     1     -47.376 -53.674  14.043  1.00  0.00     0.164 HD
HETATM   23  O   UNL     1     -46.377 -51.472  13.333  1.00  0.00    -0.247 OA
ENDBRANCH   4  17
TORSDOF 6
ENDMDL
MODEL 4
REMARK VINA RESULT:      -6.2      3.026      6.867
REMARK  6 active torsions:
REMARK  status: ('A' for Active; 'I' for Inactive)
REMARK    1  A    between atoms: C_2  and  C_4 
REMARK    2  A    between atoms: C_4  and  C_5 
REMARK    3  A    between atoms: C_5  and  N_6 
REMARK       I    between atoms: N_6  and  C_7 
REMARK    4  A    between atoms: C_7  and  C_9 
REMARK    5  A    between atoms: C_9  and  C_10 
REMARK    6  A    between atoms: C_13  and  N_16 
ROOT
HETATM    1  C   UNL     1     -41.505 -51.935  12.631  1.00  0.00     0.026 A 
HETATM    2  C   UNL     1     -40.727 -53.012  13.010  1.00  0.00     0.078 A 
HETATM    3  S   UNL     1     -41.696 -54.185  13.789  1.00  0.00    -0.064 SA
HETATM    4  C   UNL     1     -43.073 -53.199  13.573  1.00  0.00     0.155 A 
HETATM    5  N   UNL     1     -42.838 -52.021  13.030  1.00  0.00    -0.339 N 
ATOM      6  HN  UNL     1     -43.531 -51.281  12.919  1.00  0.00     0.168 HD
ENDROOT
BRANCH   1   7
HETATM    7  C   UNL     1     -41.053 -50.747  11.842  1.00  0.00     0.160 C 
BRANCH   7   8
HETATM    8  C   UNL     1     -41.900 -49.504  12.089  1.00  0.00     0.223 C 
HETATM    9  N   UNL     1     -42.413 -48.898  10.962  1.00  0.00    -0.361 N 
HETATM   10  H   UNL     1     -42.058 -49.218  10.064  1.00  0.00     0.162 HD
HETATM   11  O   UNL     1     -42.169 -49.128  13.229  1.00  0.00    -0.273 OA
BRANCH   9  12
HETATM   12  C   UNL     1     -43.233 -47.708  11.010  1.00  0.00     0.123 C 
BRANCH  12  13
HETATM   13  C   UNL     1     -43.030 -46.787   9.804  1.00  0.00     0.023 C 
BRANCH  13  14
HETATM   14  C   UNL     1     -44.014 -46.999   8.635  1.00  0.00    -0.021 C 
HETATM   15  C   UNL     1     -43.479 -47.967   7.579  1.00  0.00     0.009 C 
HETATM   16  C   UNL     1     -45.352 -47.522   9.174  1.00  0.00     0.009 C 
ENDBRANCH  13  14
ENDBRANCH  12  13
ENDBRANCH   9  12
ENDBRANCH   7   8
ENDBRANCH   1   7
BRANCH   4  17
HETATM   17  N   UNL     1     -44.329 -53.615  13.952  1.00  0.00    -0.278 N 
HETATM   18  C   UNL     1     -44.637 -54.209  15.233  1.00  0.00     0.155 C 
HETATM   19  C   UNL     1     -46.155 -54.171  15.316  1.00  0.00     0.145 C 
HETATM   20  N   UNL     1     -46.568 -53.870  13.978  1.00  0.00    -0.341 N 
HETATM   21  C   UNL     1     -45.497 -53.425  13.207  1.00  0.00     0.324 C 
HETATM   22  H   UNL     1     -47.506 -53.621  13.687  1.00  0.00     0.164 HD
HETATM   23  O   UNL     1     -45.668 -52.919  12.112  1.00  0.00    -0.247 OA
ENDBRANCH   4  17
TORSDOF 6
ENDMDL
MODEL 5
REMARK VINA RESULT:      -6.2      1.697      2.295
REMARK  6 active torsions:
REMARK  status: ('A' for Active; 'I' for Inactive)
REMARK    1  A    between atoms: C_2  and  C_4 
REMARK    2  A    between atoms: C_4  and  C_5 
REMARK    3  A    between atoms: C_5  and  N_6 
REMARK       I    between atoms: N_6  and  C_7 
REMARK    4  A    between atoms: C_7  and  C_9 
REMARK    5  A    between atoms: C_9  and  C_10 
REMARK    6  A    between atoms: C_13  and  N_16 
ROOT
HETATM    1  C   UNL     1     -41.070 -48.386  10.830  1.00  0.00     0.026 A 
HETATM    2  C   UNL     1     -40.647 -47.122  11.190  1.00  0.00     0.078 A 
HETATM    3  S   UNL     1     -41.810 -45.961  10.720  1.00  0.00    -0.064 SA
HETATM    4  C   UNL     1     -42.794 -47.200  10.077  1.00  0.00     0.155 A 
HETATM    5  N   UNL     1     -42.271 -48.409  10.122  1.00  0.00    -0.339 N 
ATOM      6  HN  UNL     1     -42.684 -49.241   9.699  1.00  0.00     0.168 HD
ENDROOT
BRANCH   1   7
HETATM    7  C   UNL     1     -40.383 -49.677  11.148  1.00  0.00     0.160 C 
BRANCH   7   8
HETATM    8  C   UNL     1     -41.256 -50.644  11.938  1.00  0.00     0.223 C 
HETATM    9  N   UNL     1     -41.126 -51.975  11.605  1.00  0.00    -0.361 N 
HETATM   10  H   UNL     1     -40.596 -52.191  10.763  1.00  0.00     0.162 HD
HETATM   11  O   UNL     1     -41.963 -50.255  12.868  1.00  0.00    -0.273 OA
BRANCH   9  12
HETATM   12  C   UNL     1     -41.878 -53.028  12.249  1.00  0.00     0.123 C 
BRANCH  12  13
HETATM   13  C   UNL     1     -40.993 -54.125  12.844  1.00  0.00     0.023 C 
BRANCH  13  14
HETATM   14  C   UNL     1     -40.513 -53.879  14.289  1.00  0.00    -0.021 C 
HETATM   15  C   UNL     1     -39.164 -53.161  14.350  1.00  0.00     0.009 C 
HETATM   16  C   UNL     1     -41.561 -53.057  15.049  1.00  0.00     0.009 C 
ENDBRANCH  13  14
ENDBRANCH  12  13
ENDBRANCH   9  12
ENDBRANCH   7   8
ENDBRANCH   1   7
BRANCH   4  17
HETATM   17  N   UNL     1     -44.037 -46.938   9.546  1.00  0.00    -0.278 N 
HETATM   18  C   UNL     1     -45.131 -47.882   9.534  1.00  0.00     0.155 C 
HETATM   19  C   UNL     1     -46.352 -47.047   9.181  1.00  0.00     0.145 C 
HETATM   20  N   UNL     1     -45.801 -45.807   8.719  1.00  0.00    -0.341 N 
HETATM   21  C   UNL     1     -44.452 -45.700   9.047  1.00  0.00     0.324 C 
HETATM   22  H   UNL     1     -46.321 -44.957   8.539  1.00  0.00     0.164 HD
HETATM   23  O   UNL     1     -43.852 -44.646   8.935  1.00  0.00    -0.247 OA
ENDBRANCH   4  17
TORSDOF 6
ENDMDL
MODEL 6
REMARK VINA RESULT:      -6.1      4.503      6.146
REMARK  6 active torsions:
REMARK  status: ('A' for Active; 'I' for Inactive)
REMARK    1  A    between atoms: C_2  and  C_4 
REMARK    2  A    between atoms: C_4  and  C_5 
REMARK    3  A    between atoms: C_5  and  N_6 
REMARK       I    between atoms: N_6  and  C_7 
REMARK    4  A    between atoms: C_7  and  C_9 
REMARK    5  A    between atoms: C_9  and  C_10 
REMARK    6  A    between atoms: C_13  and  N_16 
ROOT
HETATM    1  C   UNL     1     -40.805 -53.543  14.560  1.00  0.00     0.026 A 
HETATM    2  C   UNL     1     -40.143 -53.166  15.712  1.00  0.00     0.078 A 
HETATM    3  S   UNL     1     -39.014 -51.933  15.359  1.00  0.00    -0.064 SA
HETATM    4  C   UNL     1     -39.474 -51.976  13.715  1.00  0.00     0.155 A 
HETATM    5  N   UNL     1     -40.356 -52.905  13.405  1.00  0.00    -0.339 N 
ATOM      6  HN  UNL     1     -40.664 -53.125  12.458  1.00  0.00     0.168 HD
ENDROOT
BRANCH   1   7
HETATM    7  C   UNL     1     -41.932 -54.522  14.463  1.00  0.00     0.160 C 
BRANCH   7   8
HETATM    8  C   UNL     1     -43.201 -53.922  13.869  1.00  0.00     0.223 C 
HETATM    9  N   UNL     1     -44.369 -54.597  14.150  1.00  0.00    -0.361 N 
HETATM   10  H   UNL     1     -44.280 -55.514  14.581  1.00  0.00     0.162 HD
HETATM   11  O   UNL     1     -43.177 -52.858  13.251  1.00  0.00    -0.273 OA
BRANCH   9  12
HETATM   12  C   UNL     1     -45.663 -54.172  13.665  1.00  0.00     0.123 C 
BRANCH  12  13
HETATM   13  C   UNL     1     -46.484 -53.420  14.715  1.00  0.00     0.023 C 
BRANCH  13  14
HETATM   14  C   UNL     1     -46.637 -51.904  14.476  1.00  0.00    -0.021 C 
HETATM   15  C   UNL     1     -45.621 -51.076  15.265  1.00  0.00     0.009 C 
HETATM   16  C   UNL     1     -46.489 -51.598  12.981  1.00  0.00     0.009 C 
ENDBRANCH  13  14
ENDBRANCH  12  13
ENDBRANCH   9  12
ENDBRANCH   7   8
ENDBRANCH   1   7
BRANCH   4  17
HETATM   17  N   UNL     1     -38.945 -51.103  12.791  1.00  0.00    -0.278 N 
HETATM   18  C   UNL     1     -37.534 -50.831  12.645  1.00  0.00     0.155 C 
HETATM   19  C   UNL     1     -37.421 -50.105  11.312  1.00  0.00     0.145 C 
HETATM   20  N   UNL     1     -38.774 -49.755  10.993  1.00  0.00    -0.341 N 
HETATM   21  C   UNL     1     -39.677 -50.444  11.798  1.00  0.00     0.324 C 
HETATM   22  H   UNL     1     -39.099 -49.393  10.106  1.00  0.00     0.164 HD
HETATM   23  O   UNL     1     -40.870 -50.453  11.552  1.00  0.00    -0.247 OA
ENDBRANCH   4  17
TORSDOF 6
ENDMDL
MODEL 7
REMARK VINA RESULT:      -6.1      2.271      3.032
REMARK  6 active torsions:
REMARK  status: ('A' for Active; 'I' for Inactive)
REMARK    1  A    between atoms: C_2  and  C_4 
REMARK    2  A    between atoms: C_4  and  C_5 
REMARK    3  A    between atoms: C_5  and  N_6 
REMARK       I    between atoms: N_6  and  C_7 
REMARK    4  A    between atoms: C_7  and  C_9 
REMARK    5  A    between atoms: C_9  and  C_10 
REMARK    6  A    between atoms: C_13  and  N_16 
ROOT
HETATM    1  C   UNL     1     -41.413 -51.001  12.362  1.00  0.00     0.026 A 
HETATM    2  C   UNL     1     -41.689 -50.412  13.580  1.00  0.00     0.078 A 
HETATM    3  S   UNL     1     -42.034 -48.752  13.362  1.00  0.00    -0.064 SA
HETATM    4  C   UNL     1     -41.800 -48.920  11.679  1.00  0.00     0.155 A 
HETATM    5  N   UNL     1     -41.404 -50.114  11.286  1.00  0.00    -0.339 N 
ATOM      6  HN  UNL     1     -41.131 -50.355  10.332  1.00  0.00     0.168 HD
ENDROOT
BRANCH   1   7
HETATM    7  C   UNL     1     -41.157 -52.454  12.115  1.00  0.00     0.160 C 
BRANCH   7   8
HETATM    8  C   UNL     1     -42.250 -53.360  12.668  1.00  0.00     0.223 C 
HETATM    9  N   UNL     1     -43.503 -53.189  12.118  1.00  0.00    -0.361 N 
HETATM   10  H   UNL     1     -43.637 -52.376  11.520  1.00  0.00     0.162 HD
HETATM   11  O   UNL     1     -41.998 -54.239  13.491  1.00  0.00    -0.273 OA
BRANCH   9  12
HETATM   12  C   UNL     1     -44.656 -53.958  12.526  1.00  0.00     0.123 C 
BRANCH  12  13
HETATM   13  C   UNL     1     -45.444 -53.307  13.665  1.00  0.00     0.023 C 
BRANCH  13  14
HETATM   14  C   UNL     1     -45.948 -51.875  13.389  1.00  0.00    -0.021 C 
HETATM   15  C   UNL     1     -46.818 -51.786  12.135  1.00  0.00     0.009 C 
HETATM   16  C   UNL     1     -46.745 -51.367  14.597  1.00  0.00     0.009 C 
ENDBRANCH  13  14
ENDBRANCH  12  13
ENDBRANCH   9  12
ENDBRANCH   7   8
ENDBRANCH   1   7
BRANCH   4  17
HETATM   17  N   UNL     1     -42.004 -47.872  10.810  1.00  0.00    -0.278 N 
HETATM   18  C   UNL     1     -43.235 -47.644  10.088  1.00  0.00     0.155 C 
HETATM   19  C   UNL     1     -43.107 -46.224   9.555  1.00  0.00     0.145 C 
HETATM   20  N   UNL     1     -41.721 -45.909   9.741  1.00  0.00    -0.341 N 
HETATM   21  C   UNL     1     -41.103 -46.827  10.585  1.00  0.00     0.324 C 
HETATM   22  H   UNL     1     -41.302 -44.993   9.636  1.00  0.00     0.164 HD
HETATM   23  O   UNL     1     -39.991 -46.625  11.039  1.00  0.00    -0.247 OA
ENDBRANCH   4  17
TORSDOF 6
ENDMDL
MODEL 8
REMARK VINA RESULT:      -5.8      4.846      6.672
REMARK  6 active torsions:
REMARK  status: ('A' for Active; 'I' for Inactive)
REMARK    1  A    between atoms: C_2  and  C_4 
REMARK    2  A    between atoms: C_4  and  C_5 
REMARK    3  A    between atoms: C_5  and  N_6 
REMARK       I    between atoms: N_6  and  C_7 
REMARK    4  A    between atoms: C_7  and  C_9 
REMARK    5  A    between atoms: C_9  and  C_10 
REMARK    6  A    between atoms: C_13  and  N_16 
ROOT
HETATM    1  C   UNL     1     -42.234 -54.287  14.631  1.00  0.00     0.026 A 
HETATM    2  C   UNL     1     -41.538 -54.287  15.824  1.00  0.00     0.078 A 
HETATM    3  S   UNL     1     -40.187 -53.246  15.712  1.00  0.00    -0.064 SA
HETATM    4  C   UNL     1     -40.610 -52.861  14.103  1.00  0.00     0.155 A 
HETATM    5  N   UNL     1     -41.646 -53.522  13.624  1.00  0.00    -0.339 N 
ATOM      6  HN  UNL     1     -41.970 -53.480  12.658  1.00  0.00     0.168 HD
ENDROOT
BRANCH   1   7
HETATM    7  C   UNL     1     -43.524 -54.992  14.355  1.00  0.00     0.160 C 
BRANCH   7   8
HETATM    8  C   UNL     1     -44.518 -54.143  13.572  1.00  0.00     0.223 C 
HETATM    9  N   UNL     1     -45.497 -53.526  14.321  1.00  0.00    -0.361 N 
HETATM   10  H   UNL     1     -45.582 -53.813  15.294  1.00  0.00     0.162 HD
HETATM   11  O   UNL     1     -44.391 -53.960  12.362  1.00  0.00    -0.273 OA
BRANCH   9  12
HETATM   12  C   UNL     1     -46.523 -52.689  13.744  1.00  0.00     0.123 C 
BRANCH  12  13
HETATM   13  C   UNL     1     -46.743 -51.385  14.515  1.00  0.00     0.023 C 
BRANCH  13  14
HETATM   14  C   UNL     1     -46.579 -51.485  16.046  1.00  0.00    -0.021 C 
HETATM   15  C   UNL     1     -45.510 -50.535  16.589  1.00  0.00     0.009 C 
HETATM   16  C   UNL     1     -47.919 -51.185  16.730  1.00  0.00     0.009 C 
ENDBRANCH  13  14
ENDBRANCH  12  13
ENDBRANCH   9  12
ENDBRANCH   7   8
ENDBRANCH   1   7
BRANCH   4  17
HETATM   17  N   UNL     1     -39.906 -51.934  13.369  1.00  0.00    -0.278 N 
HETATM   18  C   UNL     1     -38.515 -51.611  13.589  1.00  0.00     0.155 C 
HETATM   19  C   UNL     1     -38.105 -50.826  12.351  1.00  0.00     0.145 C 
HETATM   20  N   UNL     1     -39.349 -50.507  11.716  1.00  0.00    -0.341 N 
HETATM   21  C   UNL     1     -40.395 -51.257  12.247  1.00  0.00     0.324 C 
HETATM   22  H   UNL     1     -39.459 -50.117  10.788  1.00  0.00     0.164 HD
HETATM   23  O   UNL     1     -41.488 -51.294  11.711  1.00  0.00    -0.247 OA
ENDBRANCH   4  17
TORSDOF 6
ENDMDL
MODEL 9
REMARK VINA RESULT:      -5.7      2.944      7.005
REMARK  6 active torsions:
REMARK  status: ('A' for Active; 'I' for Inactive)
REMARK    1  A    between atoms: C_2  and  C_4 
REMARK    2  A    between atoms: C_4  and  C_5 
REMARK    3  A    between atoms: C_5  and  N_6 
REMARK       I    between atoms: N_6  and  C_7 
REMARK    4  A    between atoms: C_7  and  C_9 
REMARK    5  A    between atoms: C_9  and  C_10 
REMARK    6  A    between atoms: C_13  and  N_16 
ROOT
HETATM    1  C   UNL     1     -41.493 -51.742  12.202  1.00  0.00     0.026 A 
HETATM    2  C   UNL     1     -40.763 -52.840  12.613  1.00  0.00     0.078 A 
HETATM    3  S   UNL     1     -41.803 -54.004  13.310  1.00  0.00    -0.064 SA
HETATM    4  C   UNL     1     -43.144 -52.987  13.020  1.00  0.00     0.155 A 
HETATM    5  N   UNL     1     -42.851 -51.807  12.512  1.00  0.00    -0.339 N 
ATOM      6  HN  UNL     1     -43.521 -51.051  12.367  1.00  0.00     0.168 HD
ENDROOT
BRANCH   1   7
HETATM    7  C   UNL     1     -40.968 -50.553  11.462  1.00  0.00     0.160 C 
BRANCH   7   8
HETATM    8  C   UNL     1     -41.783 -49.288  11.701  1.00  0.00     0.223 C 
HETATM    9  N   UNL     1     -42.235 -48.645  10.569  1.00  0.00    -0.361 N 
HETATM   10  H   UNL     1     -41.858 -48.960   9.677  1.00  0.00     0.162 HD
HETATM   11  O   UNL     1     -42.082 -48.925  12.838  1.00  0.00    -0.273 OA
BRANCH   9  12
HETATM   12  C   UNL     1     -43.017 -47.430  10.609  1.00  0.00     0.123 C 
BRANCH  12  13
HETATM   13  C   UNL     1     -42.257 -46.206  10.094  1.00  0.00     0.023 C 
BRANCH  13  14
HETATM   14  C   UNL     1     -41.224 -45.607  11.071  1.00  0.00    -0.021 C 
HETATM   15  C   UNL     1     -39.932 -45.178  10.374  1.00  0.00     0.009 C 
HETATM   16  C   UNL     1     -41.835 -44.402  11.796  1.00  0.00     0.009 C 
ENDBRANCH  13  14
ENDBRANCH  12  13
ENDBRANCH   9  12
ENDBRANCH   7   8
ENDBRANCH   1   7
BRANCH   4  17
HETATM   17  N   UNL     1     -44.430 -53.383  13.311  1.00  0.00    -0.278 N 
HETATM   18  C   UNL     1     -44.787 -54.698  13.792  1.00  0.00     0.155 C 
HETATM   19  C   UNL     1     -46.217 -54.547  14.289  1.00  0.00     0.145 C 
HETATM   20  N   UNL     1     -46.636 -53.283  13.760  1.00  0.00    -0.341 N 
HETATM   21  C   UNL     1     -45.552 -52.548  13.289  1.00  0.00     0.324 C 
HETATM   22  H   UNL     1     -47.482 -52.786  14.009  1.00  0.00     0.164 HD
HETATM   23  O   UNL     1     -45.660 -51.370  12.996  1.00  0.00    -0.247 OA
ENDBRANCH   4  17
TORSDOF 6
ENDMDL
