MODEL 1
REMARK VINA RESULT:      -7.4      0.000      0.000
REMARK  6 active torsions:
REMARK  status: ('A' for Active; 'I' for Inactive)
REMARK    1  A    between atoms: C_4  and  O_5 
REMARK    2  A    between atoms: O_5  and  C_6 
REMARK    3  A    between atoms: C_6  and  C_7 
REMARK    4  A    between atoms: C_7  and  O_8 
REMARK    5  A    between atoms: C_7  and  C_9 
REMARK    6  A    between atoms: C_9  and  N_10 
ROOT
HETATM    1  C   UNL     1     -41.416 -48.059  11.106  1.00  0.00     0.161 C 
ENDROOT
BRANCH   1   2
HETATM    2  C   UNL     1     -42.480 -46.959  11.247  1.00  0.00     0.210 C 
BRANCH   2   3
HETATM    3  O   UNL     1     -42.675 -46.325   9.971  1.00  0.00    -0.332 OA
BRANCH   3   4
HETATM    4  C   UNL     1     -43.522 -47.044   9.152  1.00  0.00     0.157 A 
HETATM    5  C   UNL     1     -44.834 -47.189   9.556  1.00  0.00     0.066 A 
HETATM    6  C   UNL     1     -45.710 -47.918   8.744  1.00  0.00    -0.034 A 
HETATM    7  C   UNL     1     -47.142 -48.107   9.145  1.00  0.00     0.050 C 
HETATM    8  C   UNL     1     -45.200 -48.455   7.558  1.00  0.00     0.028 A 
HETATM    9  N   UNL     1     -43.904 -48.290   7.205  1.00  0.00    -0.303 N 
HETATM   10  C   UNL     1     -46.043 -49.244   6.606  1.00  0.00     0.070 C 
HETATM   11  N   UNL     1     -43.061 -47.585   8.009  1.00  0.00    -0.280 N 
ATOM     12  HN  UNL     1     -43.557 -48.696   6.335  1.00  0.00     0.186 HD
ATOM     13  HN  UNL     1     -42.082 -47.467   7.745  1.00  0.00     0.189 HD
ENDBRANCH   3   4
ENDBRANCH   2   3
ENDBRANCH   1   2
BRANCH   1  14
HETATM   14  O   UNL     1     -40.122 -47.481  10.854  1.00  0.00    -0.392 OA
HETATM   15  H   UNL     1     -39.656 -48.034  10.203  1.00  0.00     0.210 HD
ENDBRANCH   1  14
BRANCH   1  16
HETATM   16  C   UNL     1     -41.299 -48.934  12.360  1.00  0.00     0.164 C 
BRANCH  16  17
HETATM   17  N   UNL     1     -41.564 -50.339  12.165  1.00  0.00    -0.339 N 
HETATM   18  C   UNL     1     -40.725 -51.219  11.536  1.00  0.00     0.184 A 
HETATM   19  N   UNL     1     -41.212 -52.439  11.541  1.00  0.00    -0.350 N 
HETATM   20  C   UNL     1     -42.402 -52.350  12.220  1.00  0.00     0.060 A 
ATOM     21  HN  UNL     1     -40.796 -53.273  11.128  1.00  0.00     0.166 HD
HETATM   22  C   UNL     1     -43.326 -53.355  12.541  1.00  0.00     0.039 A 
HETATM   23  C   UNL     1     -42.651 -51.042  12.624  1.00  0.00     0.062 A 
HETATM   24  C   UNL     1     -44.491 -53.034  13.267  1.00  0.00    -0.054 A 
HETATM   25  C   UNL     1     -45.455 -54.143  13.596  1.00  0.00     0.049 C 
HETATM   26  C   UNL     1     -44.726 -51.702  13.664  1.00  0.00    -0.054 A 
HETATM   27  C   UNL     1     -45.949 -51.284  14.440  1.00  0.00     0.049 C 
HETATM   28  C   UNL     1     -43.800 -50.687  13.340  1.00  0.00     0.039 A 
ENDBRANCH  16  17
ENDBRANCH   1  16
TORSDOF 6
ENDMDL
MODEL 2
REMARK VINA RESULT:      -7.4      3.698      6.176
REMARK  6 active torsions:
REMARK  status: ('A' for Active; 'I' for Inactive)
REMARK    1  A    between atoms: C_4  and  O_5 
REMARK    2  A    between atoms: O_5  and  C_6 
REMARK    3  A    between atoms: C_6  and  C_7 
REMARK    4  A    between atoms: C_7  and  O_8 
REMARK    5  A    between atoms: C_7  and  C_9 
REMARK    6  A    between atoms: C_9  and  N_10 
ROOT
HETATM    1  C   UNL     1     -40.641 -50.561  11.772  1.00  0.00     0.161 C 
ENDROOT
BRANCH   1   2
HETATM    2  C   UNL     1     -41.134 -52.014  11.683  1.00  0.00     0.210 C 
BRANCH   2   3
HETATM    3  O   UNL     1     -40.447 -52.807  12.665  1.00  0.00    -0.332 OA
BRANCH   3   4
HETATM    4  C   UNL     1     -41.271 -53.182  13.707  1.00  0.00     0.157 A 
HETATM    5  C   UNL     1     -42.454 -53.820  13.392  1.00  0.00     0.066 A 
HETATM    6  C   UNL     1     -43.308 -54.205  14.431  1.00  0.00    -0.034 A 
HETATM    7  C   UNL     1     -44.606 -54.895  14.136  1.00  0.00     0.050 C 
HETATM    8  C   UNL     1     -42.904 -53.924  15.740  1.00  0.00     0.028 A 
HETATM    9  N   UNL     1     -41.736 -53.292  16.002  1.00  0.00    -0.303 N 
HETATM   10  C   UNL     1     -43.728 -54.297  16.932  1.00  0.00     0.070 C 
HETATM   11  N   UNL     1     -40.919 -52.916  14.979  1.00  0.00    -0.280 N 
ATOM     12  HN  UNL     1     -41.468 -53.097  16.966  1.00  0.00     0.186 HD
ATOM     13  HN  UNL     1     -40.042 -52.434  15.177  1.00  0.00     0.189 HD
ENDBRANCH   3   4
ENDBRANCH   2   3
ENDBRANCH   1   2
BRANCH   1  14
HETATM   14  O   UNL     1     -40.122 -50.125  10.502  1.00  0.00    -0.392 OA
HETATM   15  H   UNL     1     -39.202 -49.835  10.625  1.00  0.00     0.210 HD
ENDBRANCH   1  14
BRANCH   1  16
HETATM   16  C   UNL     1     -41.747 -49.583  12.184  1.00  0.00     0.164 C 
BRANCH  16  17
HETATM   17  N   UNL     1     -42.303 -49.789  13.500  1.00  0.00    -0.339 N 
HETATM   18  C   UNL     1     -41.712 -49.405  14.673  1.00  0.00     0.184 A 
HETATM   19  N   UNL     1     -42.465 -49.689  15.710  1.00  0.00    -0.350 N 
HETATM   20  C   UNL     1     -43.599 -50.259  15.186  1.00  0.00     0.060 A 
ATOM     21  HN  UNL     1     -42.253 -49.523  16.694  1.00  0.00     0.166 HD
HETATM   22  C   UNL     1     -44.748 -50.730  15.841  1.00  0.00     0.039 A 
HETATM   23  C   UNL     1     -43.526 -50.337  13.800  1.00  0.00     0.062 A 
HETATM   24  C   UNL     1     -45.812 -51.272  15.091  1.00  0.00    -0.054 A 
HETATM   25  C   UNL     1     -47.028 -51.760  15.831  1.00  0.00     0.049 C 
HETATM   26  C   UNL     1     -45.716 -51.345  13.687  1.00  0.00    -0.054 A 
HETATM   27  C   UNL     1     -46.811 -51.912  12.821  1.00  0.00     0.049 C 
HETATM   28  C   UNL     1     -44.561 -50.875  13.025  1.00  0.00     0.039 A 
ENDBRANCH  16  17
ENDBRANCH   1  16
TORSDOF 6
ENDMDL
MODEL 3
REMARK VINA RESULT:      -7.2      3.200      4.947
REMARK  6 active torsions:
REMARK  status: ('A' for Active; 'I' for Inactive)
REMARK    1  A    between atoms: C_4  and  O_5 
REMARK    2  A    between atoms: O_5  and  C_6 
REMARK    3  A    between atoms: C_6  and  C_7 
REMARK    4  A    between atoms: C_7  and  O_8 
REMARK    5  A    between atoms: C_7  and  C_9 
REMARK    6  A    between atoms: C_9  and  N_10 
ROOT
HETATM    1  C   UNL     1     -41.045 -52.886  12.480  1.00  0.00     0.161 C 
ENDROOT
BRANCH   1   2
HETATM    2  C   UNL     1     -39.988 -52.015  13.178  1.00  0.00     0.210 C 
BRANCH   2   3
HETATM    3  O   UNL     1     -39.229 -51.307  12.184  1.00  0.00    -0.332 OA
BRANCH   3   4
HETATM    4  C   UNL     1     -39.856 -50.149  11.769  1.00  0.00     0.157 A 
HETATM    5  C   UNL     1     -39.821 -49.061  12.618  1.00  0.00     0.066 A 
HETATM    6  C   UNL     1     -40.454 -47.878  12.223  1.00  0.00    -0.034 A 
HETATM    7  C   UNL     1     -40.446 -46.673  13.114  1.00  0.00     0.050 C 
HETATM    8  C   UNL     1     -41.086 -47.868  10.975  1.00  0.00     0.028 A 
HETATM    9  N   UNL     1     -41.100 -48.962  10.178  1.00  0.00    -0.303 N 
HETATM   10  C   UNL     1     -41.788 -46.659  10.440  1.00  0.00     0.070 C 
HETATM   11  N   UNL     1     -40.485 -50.108  10.580  1.00  0.00    -0.280 N 
ATOM     12  HN  UNL     1     -41.572 -48.927   9.274  1.00  0.00     0.186 HD
ATOM     13  HN  UNL     1     -40.501 -50.934   9.981  1.00  0.00     0.189 HD
ENDBRANCH   3   4
ENDBRANCH   2   3
ENDBRANCH   1   2
BRANCH   1  14
HETATM   14  O   UNL     1     -40.537 -53.392  11.231  1.00  0.00    -0.392 OA
HETATM   15  H   UNL     1     -40.010 -54.190  11.411  1.00  0.00     0.210 HD
ENDBRANCH   1  14
BRANCH   1  16
HETATM   16  C   UNL     1     -41.478 -54.088  13.329  1.00  0.00     0.164 C 
BRANCH  16  17
HETATM   17  N   UNL     1     -42.294 -53.777  14.477  1.00  0.00    -0.339 N 
HETATM   18  C   UNL     1     -41.930 -53.983  15.781  1.00  0.00     0.184 A 
HETATM   19  N   UNL     1     -42.858 -53.570  16.613  1.00  0.00    -0.350 N 
HETATM   20  C   UNL     1     -43.852 -53.055  15.818  1.00  0.00     0.060 A 
ATOM     21  HN  UNL     1     -42.844 -53.621  17.632  1.00  0.00     0.166 HD
HETATM   22  C   UNL     1     -45.068 -52.457  16.182  1.00  0.00     0.039 A 
HETATM   23  C   UNL     1     -43.527 -53.172  14.471  1.00  0.00     0.062 A 
HETATM   24  C   UNL     1     -45.944 -51.981  15.184  1.00  0.00    -0.054 A 
HETATM   25  C   UNL     1     -47.236 -51.341  15.616  1.00  0.00     0.049 C 
HETATM   26  C   UNL     1     -45.597 -52.113  13.824  1.00  0.00    -0.054 A 
HETATM   27  C   UNL     1     -46.482 -51.630  12.704  1.00  0.00     0.049 C 
HETATM   28  C   UNL     1     -44.375 -52.717  13.454  1.00  0.00     0.039 A 
ENDBRANCH  16  17
ENDBRANCH   1  16
TORSDOF 6
ENDMDL
MODEL 4
REMARK VINA RESULT:      -7.2      2.676      7.275
REMARK  6 active torsions:
REMARK  status: ('A' for Active; 'I' for Inactive)
REMARK    1  A    between atoms: C_4  and  O_5 
REMARK    2  A    between atoms: O_5  and  C_6 
REMARK    3  A    between atoms: C_6  and  C_7 
REMARK    4  A    between atoms: C_7  and  O_8 
REMARK    5  A    between atoms: C_7  and  C_9 
REMARK    6  A    between atoms: C_9  and  N_10 
ROOT
HETATM    1  C   UNL     1     -40.474 -49.729  11.718  1.00  0.00     0.161 C 
ENDROOT
BRANCH   1   2
HETATM    2  C   UNL     1     -40.023 -50.946  12.541  1.00  0.00     0.210 C 
BRANCH   2   3
HETATM    3  O   UNL     1     -40.315 -52.147  11.808  1.00  0.00    -0.332 OA
BRANCH   3   4
HETATM    4  C   UNL     1     -41.462 -52.771  12.257  1.00  0.00     0.157 A 
HETATM    5  C   UNL     1     -41.376 -53.509  13.421  1.00  0.00     0.066 A 
HETATM    6  C   UNL     1     -42.524 -54.156  13.893  1.00  0.00    -0.034 A 
HETATM    7  C   UNL     1     -42.476 -54.972  15.149  1.00  0.00     0.050 C 
HETATM    8  C   UNL     1     -43.701 -54.007  13.154  1.00  0.00     0.028 A 
HETATM    9  N   UNL     1     -43.737 -53.277  12.015  1.00  0.00    -0.303 N 
HETATM   10  C   UNL     1     -44.992 -54.642  13.565  1.00  0.00     0.070 C 
HETATM   11  N   UNL     1     -42.610 -52.660  11.563  1.00  0.00    -0.280 N 
ATOM     12  HN  UNL     1     -44.609 -53.189  11.493  1.00  0.00     0.186 HD
ATOM     13  HN  UNL     1     -42.636 -52.115  10.701  1.00  0.00     0.189 HD
ENDBRANCH   3   4
ENDBRANCH   2   3
ENDBRANCH   1   2
BRANCH   1  14
HETATM   14  O   UNL     1     -40.526 -50.058  10.317  1.00  0.00    -0.392 OA
HETATM   15  H   UNL     1     -40.762 -49.257   9.819  1.00  0.00     0.210 HD
ENDBRANCH   1  14
BRANCH   1  16
HETATM   16  C   UNL     1     -41.860 -49.217  12.127  1.00  0.00     0.164 C 
BRANCH  16  17
HETATM   17  N   UNL     1     -42.247 -47.947  11.561  1.00  0.00    -0.339 N 
HETATM   18  C   UNL     1     -43.362 -47.732  10.799  1.00  0.00     0.184 A 
HETATM   19  N   UNL     1     -43.477 -46.470  10.454  1.00  0.00    -0.350 N 
HETATM   20  C   UNL     1     -42.405 -45.839  11.035  1.00  0.00     0.060 A 
ATOM     21  HN  UNL     1     -44.205 -46.049   9.877  1.00  0.00     0.166 HD
HETATM   22  C   UNL     1     -42.047 -44.482  11.014  1.00  0.00     0.039 A 
HETATM   23  C   UNL     1     -41.612 -46.741  11.737  1.00  0.00     0.062 A 
HETATM   24  C   UNL     1     -40.894 -44.048  11.701  1.00  0.00    -0.054 A 
HETATM   25  C   UNL     1     -40.548 -42.584  11.659  1.00  0.00     0.049 C 
HETATM   26  C   UNL     1     -40.103 -44.980  12.404  1.00  0.00    -0.054 A 
HETATM   27  C   UNL     1     -38.859 -44.591  13.160  1.00  0.00     0.049 C 
HETATM   28  C   UNL     1     -40.459 -46.346  12.425  1.00  0.00     0.039 A 
ENDBRANCH  16  17
ENDBRANCH   1  16
TORSDOF 6
ENDMDL
MODEL 5
REMARK VINA RESULT:      -6.9      3.641      5.416
REMARK  6 active torsions:
REMARK  status: ('A' for Active; 'I' for Inactive)
REMARK    1  A    between atoms: C_4  and  O_5 
REMARK    2  A    between atoms: O_5  and  C_6 
REMARK    3  A    between atoms: C_6  and  C_7 
REMARK    4  A    between atoms: C_7  and  O_8 
REMARK    5  A    between atoms: C_7  and  C_9 
REMARK    6  A    between atoms: C_9  and  N_10 
ROOT
HETATM    1  C   UNL     1     -41.387 -53.379  12.747  1.00  0.00     0.161 C 
ENDROOT
BRANCH   1   2
HETATM    2  C   UNL     1     -40.377 -52.465  13.459  1.00  0.00     0.210 C 
BRANCH   2   3
HETATM    3  O   UNL     1     -39.471 -51.916  12.487  1.00  0.00    -0.332 OA
BRANCH   3   4
HETATM    4  C   UNL     1     -39.838 -50.647  12.087  1.00  0.00     0.157 A 
HETATM    5  C   UNL     1     -39.476 -49.589  12.897  1.00  0.00     0.066 A 
HETATM    6  C   UNL     1     -39.841 -48.293  12.515  1.00  0.00    -0.034 A 
HETATM    7  C   UNL     1     -39.474 -47.115  13.365  1.00  0.00     0.050 C 
HETATM    8  C   UNL     1     -40.552 -48.147  11.319  1.00  0.00     0.028 A 
HETATM    9  N   UNL     1     -40.890 -49.214  10.559  1.00  0.00    -0.303 N 
HETATM   10  C   UNL     1     -40.988 -46.811  10.803  1.00  0.00     0.070 C 
HETATM   11  N   UNL     1     -40.534 -50.470  10.948  1.00  0.00    -0.280 N 
ATOM     12  HN  UNL     1     -41.412 -49.078   9.693  1.00  0.00     0.186 HD
ATOM     13  HN  UNL     1     -40.795 -51.275  10.378  1.00  0.00     0.189 HD
ENDBRANCH   3   4
ENDBRANCH   2   3
ENDBRANCH   1   2
BRANCH   1  14
HETATM   14  O   UNL     1     -40.728 -54.541  12.211  1.00  0.00    -0.392 OA
HETATM   15  H   UNL     1     -40.164 -54.262  11.469  1.00  0.00     0.210 HD
ENDBRANCH   1  14
BRANCH   1  16
HETATM   16  C   UNL     1     -42.505 -53.866  13.678  1.00  0.00     0.164 C 
BRANCH  16  17
HETATM   17  N   UNL     1     -43.783 -53.218  13.509  1.00  0.00    -0.339 N 
HETATM   18  C   UNL     1     -44.421 -53.035  12.312  1.00  0.00     0.184 A 
HETATM   19  N   UNL     1     -45.585 -52.449  12.469  1.00  0.00    -0.350 N 
HETATM   20  C   UNL     1     -45.717 -52.266  13.823  1.00  0.00     0.060 A 
ATOM     21  HN  UNL     1     -46.249 -52.186  11.741  1.00  0.00     0.166 HD
HETATM   22  C   UNL     1     -46.778 -51.706  14.551  1.00  0.00     0.039 A 
HETATM   23  C   UNL     1     -44.599 -52.737  14.504  1.00  0.00     0.062 A 
HETATM   24  C   UNL     1     -46.704 -51.629  15.957  1.00  0.00    -0.054 A 
HETATM   25  C   UNL     1     -47.866 -51.028  16.700  1.00  0.00     0.049 C 
HETATM   26  C   UNL     1     -45.561 -52.110  16.627  1.00  0.00    -0.054 A 
HETATM   27  C   UNL     1     -45.410 -52.060  18.126  1.00  0.00     0.049 C 
HETATM   28  C   UNL     1     -44.489 -52.671  15.898  1.00  0.00     0.039 A 
ENDBRANCH  16  17
ENDBRANCH   1  16
TORSDOF 6
ENDMDL
MODEL 6
REMARK VINA RESULT:      -6.8      3.118      5.561
REMARK  6 active torsions:
REMARK  status: ('A' for Active; 'I' for Inactive)
REMARK    1  A    between atoms: C_4  and  O_5 
REMARK    2  A    between atoms: O_5  and  C_6 
REMARK    3  A    between atoms: C_6  and  C_7 
REMARK    4  A    between atoms: C_7  and  O_8 
REMARK    5  A    between atoms: C_7  and  C_9 
REMARK    6  A    between atoms: C_9  and  N_10 
ROOT
HETATM    1  C   UNL     1     -40.205 -45.918  10.695  1.00  0.00     0.161 C 
ENDROOT
BRANCH   1   2
HETATM    2  C   UNL     1     -41.722 -46.164  10.695  1.00  0.00     0.210 C 
BRANCH   2   3
HETATM    3  O   UNL     1     -42.006 -47.362   9.952  1.00  0.00    -0.332 OA
BRANCH   3   4
HETATM    4  C   UNL     1     -41.829 -48.503  10.708  1.00  0.00     0.157 A 
HETATM    5  C   UNL     1     -42.573 -48.628  11.865  1.00  0.00     0.066 A 
HETATM    6  C   UNL     1     -42.408 -49.774  12.651  1.00  0.00    -0.034 A 
HETATM    7  C   UNL     1     -43.189 -49.949  13.917  1.00  0.00     0.050 C 
HETATM    8  C   UNL     1     -41.494 -50.735  12.208  1.00  0.00     0.028 A 
HETATM    9  N   UNL     1     -40.782 -50.568  11.069  1.00  0.00    -0.303 N 
HETATM   10  C   UNL     1     -41.239 -52.005  12.959  1.00  0.00     0.070 C 
HETATM   11  N   UNL     1     -40.949 -49.444  10.319  1.00  0.00    -0.280 N 
ATOM     12  HN  UNL     1     -40.120 -51.285  10.772  1.00  0.00     0.186 HD
ATOM     13  HN  UNL     1     -40.408 -49.316   9.464  1.00  0.00     0.189 HD
ENDBRANCH   3   4
ENDBRANCH   2   3
ENDBRANCH   1   2
BRANCH   1  14
HETATM   14  O   UNL     1     -39.830 -45.075   9.591  1.00  0.00    -0.392 OA
HETATM   15  H   UNL     1     -38.866 -45.131   9.471  1.00  0.00     0.210 HD
ENDBRANCH   1  14
BRANCH   1  16
HETATM   16  C   UNL     1     -39.714 -45.246  11.983  1.00  0.00     0.164 C 
BRANCH  16  17
HETATM   17  N   UNL     1     -40.028 -45.942  13.208  1.00  0.00    -0.339 N 
HETATM   18  C   UNL     1     -40.870 -45.480  14.182  1.00  0.00     0.184 A 
HETATM   19  N   UNL     1     -40.994 -46.343  15.164  1.00  0.00    -0.350 N 
HETATM   20  C   UNL     1     -40.219 -47.417  14.800  1.00  0.00     0.060 A 
ATOM     21  HN  UNL     1     -41.546 -46.239  16.015  1.00  0.00     0.166 HD
HETATM   22  C   UNL     1     -40.004 -48.632  15.468  1.00  0.00     0.039 A 
HETATM   23  C   UNL     1     -39.598 -47.194  13.576  1.00  0.00     0.062 A 
HETATM   24  C   UNL     1     -39.167 -49.611  14.894  1.00  0.00    -0.054 A 
HETATM   25  C   UNL     1     -38.967 -50.903  15.640  1.00  0.00     0.049 C 
HETATM   26  C   UNL     1     -38.544 -49.364  13.654  1.00  0.00    -0.054 A 
HETATM   27  C   UNL     1     -37.636 -50.361  12.981  1.00  0.00     0.049 C 
HETATM   28  C   UNL     1     -38.756 -48.141  12.980  1.00  0.00     0.039 A 
ENDBRANCH  16  17
ENDBRANCH   1  16
TORSDOF 6
ENDMDL
MODEL 7
REMARK VINA RESULT:      -6.8      3.834      5.785
REMARK  6 active torsions:
REMARK  status: ('A' for Active; 'I' for Inactive)
REMARK    1  A    between atoms: C_4  and  O_5 
REMARK    2  A    between atoms: O_5  and  C_6 
REMARK    3  A    between atoms: C_6  and  C_7 
REMARK    4  A    between atoms: C_7  and  O_8 
REMARK    5  A    between atoms: C_7  and  C_9 
REMARK    6  A    between atoms: C_9  and  N_10 
ROOT
HETATM    1  C   UNL     1     -39.092 -50.799  14.311  1.00  0.00     0.161 C 
ENDROOT
BRANCH   1   2
HETATM    2  C   UNL     1     -39.072 -51.587  12.992  1.00  0.00     0.210 C 
BRANCH   2   3
HETATM    3  O   UNL     1     -39.280 -52.981  13.272  1.00  0.00    -0.332 OA
BRANCH   3   4
HETATM    4  C   UNL     1     -40.616 -53.329  13.247  1.00  0.00     0.157 A 
HETATM    5  C   UNL     1     -41.148 -53.916  14.377  1.00  0.00     0.066 A 
HETATM    6  C   UNL     1     -42.499 -54.281  14.373  1.00  0.00    -0.034 A 
HETATM    7  C   UNL     1     -43.118 -54.926  15.576  1.00  0.00     0.050 C 
HETATM    8  C   UNL     1     -43.236 -54.021  13.215  1.00  0.00     0.028 A 
HETATM    9  N   UNL     1     -42.671 -53.447  12.127  1.00  0.00    -0.303 N 
HETATM   10  C   UNL     1     -44.690 -54.358  13.096  1.00  0.00     0.070 C 
HETATM   11  N   UNL     1     -41.353 -53.104  12.143  1.00  0.00    -0.280 N 
ATOM     12  HN  UNL     1     -43.233 -53.272  11.293  1.00  0.00     0.186 HD
ATOM     13  HN  UNL     1     -40.926 -52.678  11.320  1.00  0.00     0.189 HD
ENDBRANCH   3   4
ENDBRANCH   2   3
ENDBRANCH   1   2
BRANCH   1  14
HETATM   14  O   UNL     1     -37.758 -50.406  14.685  1.00  0.00    -0.392 OA
HETATM   15  H   UNL     1     -37.278 -51.194  14.994  1.00  0.00     0.210 HD
ENDBRANCH   1  14
BRANCH   1  16
HETATM   16  C   UNL     1     -39.946 -49.527  14.229  1.00  0.00     0.164 C 
BRANCH  16  17
HETATM   17  N   UNL     1     -41.217 -49.673  13.561  1.00  0.00    -0.339 N 
HETATM   18  C   UNL     1     -41.445 -49.415  12.237  1.00  0.00     0.184 A 
HETATM   19  N   UNL     1     -42.688 -49.673  11.900  1.00  0.00    -0.350 N 
HETATM   20  C   UNL     1     -43.282 -50.139  13.047  1.00  0.00     0.060 A 
ATOM     21  HN  UNL     1     -43.120 -49.552  10.984  1.00  0.00     0.166 HD
HETATM   22  C   UNL     1     -44.596 -50.584  13.256  1.00  0.00     0.039 A 
HETATM   23  C   UNL     1     -42.383 -50.149  14.109  1.00  0.00     0.062 A 
HETATM   24  C   UNL     1     -44.991 -51.038  14.532  1.00  0.00    -0.054 A 
HETATM   25  C   UNL     1     -46.408 -51.513  14.712  1.00  0.00     0.049 C 
HETATM   26  C   UNL     1     -44.065 -51.037  15.594  1.00  0.00    -0.054 A 
HETATM   27  C   UNL     1     -44.415 -51.506  16.984  1.00  0.00     0.049 C 
HETATM   28  C   UNL     1     -42.743 -50.587  15.389  1.00  0.00     0.039 A 
ENDBRANCH  16  17
ENDBRANCH   1  16
TORSDOF 6
ENDMDL
MODEL 8
REMARK VINA RESULT:      -6.7      3.326      4.926
REMARK  6 active torsions:
REMARK  status: ('A' for Active; 'I' for Inactive)
REMARK    1  A    between atoms: C_4  and  O_5 
REMARK    2  A    between atoms: O_5  and  C_6 
REMARK    3  A    between atoms: C_6  and  C_7 
REMARK    4  A    between atoms: C_7  and  O_8 
REMARK    5  A    between atoms: C_7  and  C_9 
REMARK    6  A    between atoms: C_9  and  N_10 
ROOT
HETATM    1  C   UNL     1     -39.175 -53.081  15.340  1.00  0.00     0.161 C 
ENDROOT
BRANCH   1   2
HETATM    2  C   UNL     1     -39.129 -51.669  14.734  1.00  0.00     0.210 C 
BRANCH   2   3
HETATM    3  O   UNL     1     -38.917 -51.771  13.316  1.00  0.00    -0.332 OA
BRANCH   3   4
HETATM    4  C   UNL     1     -39.710 -50.895  12.603  1.00  0.00     0.157 A 
HETATM    5  C   UNL     1     -40.793 -50.336  13.252  1.00  0.00     0.066 A 
HETATM    6  C   UNL     1     -41.615 -49.449  12.548  1.00  0.00    -0.034 A 
HETATM    7  C   UNL     1     -42.804 -48.821  13.210  1.00  0.00     0.050 C 
HETATM    8  C   UNL     1     -41.282 -49.175  11.218  1.00  0.00     0.028 A 
HETATM    9  N   UNL     1     -40.213 -49.752  10.620  1.00  0.00    -0.303 N 
HETATM   10  C   UNL     1     -42.080 -48.237  10.367  1.00  0.00     0.070 C 
HETATM   11  N   UNL     1     -39.427 -50.619  11.316  1.00  0.00    -0.280 N 
ATOM     12  HN  UNL     1     -39.996 -49.537   9.647  1.00  0.00     0.186 HD
ATOM     13  HN  UNL     1     -38.625 -51.058  10.863  1.00  0.00     0.189 HD
ENDBRANCH   3   4
ENDBRANCH   2   3
ENDBRANCH   1   2
BRANCH   1  14
HETATM   14  O   UNL     1     -38.461 -53.118  16.590  1.00  0.00    -0.392 OA
HETATM   15  H   UNL     1     -38.021 -52.261  16.721  1.00  0.00     0.210 HD
ENDBRANCH   1  14
BRANCH   1  16
HETATM   16  C   UNL     1     -40.606 -53.565  15.607  1.00  0.00     0.164 C 
BRANCH  16  17
HETATM   17  N   UNL     1     -41.487 -53.561  14.464  1.00  0.00    -0.339 N 
HETATM   18  C   UNL     1     -41.263 -54.234  13.294  1.00  0.00     0.184 A 
HETATM   19  N   UNL     1     -42.254 -54.076  12.447  1.00  0.00    -0.350 N 
HETATM   20  C   UNL     1     -43.167 -53.289  13.104  1.00  0.00     0.060 A 
ATOM     21  HN  UNL     1     -42.329 -54.456  11.504  1.00  0.00     0.166 HD
HETATM   22  C   UNL     1     -44.422 -52.829  12.677  1.00  0.00     0.039 A 
HETATM   23  C   UNL     1     -42.713 -52.948  14.373  1.00  0.00     0.062 A 
HETATM   24  C   UNL     1     -45.208 -52.032  13.534  1.00  0.00    -0.054 A 
HETATM   25  C   UNL     1     -46.551 -51.564  13.041  1.00  0.00     0.049 C 
HETATM   26  C   UNL     1     -44.728 -51.695  14.816  1.00  0.00    -0.054 A 
HETATM   27  C   UNL     1     -45.510 -50.846  15.785  1.00  0.00     0.049 C 
HETATM   28  C   UNL     1     -43.464 -52.153  15.248  1.00  0.00     0.039 A 
ENDBRANCH  16  17
ENDBRANCH   1  16
TORSDOF 6
ENDMDL
MODEL 9
REMARK VINA RESULT:      -6.6      3.670      6.213
REMARK  6 active torsions:
REMARK  status: ('A' for Active; 'I' for Inactive)
REMARK    1  A    between atoms: C_4  and  O_5 
REMARK    2  A    between atoms: O_5  and  C_6 
REMARK    3  A    between atoms: C_6  and  C_7 
REMARK    4  A    between atoms: C_7  and  O_8 
REMARK    5  A    between atoms: C_7  and  C_9 
REMARK    6  A    between atoms: C_9  and  N_10 
ROOT
HETATM    1  C   UNL     1     -39.025 -52.103  14.899  1.00  0.00     0.161 C 
ENDROOT
BRANCH   1   2
HETATM    2  C   UNL     1     -39.087 -53.551  14.388  1.00  0.00     0.210 C 
BRANCH   2   3
HETATM    3  O   UNL     1     -39.519 -53.550  13.017  1.00  0.00    -0.332 OA
BRANCH   3   4
HETATM    4  C   UNL     1     -40.893 -53.475  12.899  1.00  0.00     0.157 A 
HETATM    5  C   UNL     1     -41.654 -54.159  13.826  1.00  0.00     0.066 A 
HETATM    6  C   UNL     1     -43.048 -54.103  13.724  1.00  0.00    -0.034 A 
HETATM    7  C   UNL     1     -43.915 -54.835  14.705  1.00  0.00     0.050 C 
HETATM    8  C   UNL     1     -43.591 -53.345  12.683  1.00  0.00     0.028 A 
HETATM    9  N   UNL     1     -42.805 -52.694  11.793  1.00  0.00    -0.303 N 
HETATM   10  C   UNL     1     -45.067 -53.202  12.478  1.00  0.00     0.070 C 
HETATM   11  N   UNL     1     -41.450 -52.764  11.901  1.00  0.00    -0.280 N 
ATOM     12  HN  UNL     1     -43.229 -52.151  11.041  1.00  0.00     0.186 HD
ATOM     13  HN  UNL     1     -40.858 -52.279  11.227  1.00  0.00     0.189 HD
ENDBRANCH   3   4
ENDBRANCH   2   3
ENDBRANCH   1   2
BRANCH   1  14
HETATM   14  O   UNL     1     -38.636 -52.073  16.285  1.00  0.00    -0.392 OA
HETATM   15  H   UNL     1     -38.305 -51.183  16.495  1.00  0.00     0.210 HD
ENDBRANCH   1  14
BRANCH   1  16
HETATM   16  C   UNL     1     -38.028 -51.240  14.117  1.00  0.00     0.164 C 
BRANCH  16  17
HETATM   17  N   UNL     1     -38.563 -50.568  12.956  1.00  0.00    -0.339 N 
HETATM   18  C   UNL     1     -37.938 -50.478  11.742  1.00  0.00     0.184 A 
HETATM   19  N   UNL     1     -38.678 -49.842  10.863  1.00  0.00    -0.350 N 
HETATM   20  C   UNL     1     -39.837 -49.528  11.529  1.00  0.00     0.060 A 
ATOM     21  HN  UNL     1     -38.442 -49.626   9.895  1.00  0.00     0.166 HD
HETATM   22  C   UNL     1     -40.985 -48.867  11.064  1.00  0.00     0.039 A 
HETATM   23  C   UNL     1     -39.794 -49.970  12.847  1.00  0.00     0.062 A 
HETATM   24  C   UNL     1     -42.078 -48.661  11.931  1.00  0.00    -0.054 A 
HETATM   25  C   UNL     1     -43.292 -47.954  11.391  1.00  0.00     0.049 C 
HETATM   26  C   UNL     1     -42.012 -49.114  13.264  1.00  0.00    -0.054 A 
HETATM   27  C   UNL     1     -43.139 -48.929  14.247  1.00  0.00     0.049 C 
HETATM   28  C   UNL     1     -40.858 -49.777  13.736  1.00  0.00     0.039 A 
ENDBRANCH  16  17
ENDBRANCH   1  16
TORSDOF 6
ENDMDL
