MODEL 1
REMARK VINA RESULT:      -6.9      0.000      0.000
REMARK  6 active torsions:
REMARK  status: ('A' for Active; 'I' for Inactive)
REMARK    1  A    between atoms: N_1  and  C_12 
REMARK    2  A    between atoms: N_2  and  C_14 
REMARK    3  A    between atoms: C_4  and  C_13 
REMARK    4  A    between atoms: N_6  and  C_15 
REMARK    5  A    between atoms: C_12  and  C_13 
REMARK    6  A    between atoms: C_15  and  C_17 
ROOT
HETATM    1  C   UNL     1     -44.378 -55.006  14.368  1.00  0.00     0.221 C 
ENDROOT
BRANCH   1   2
HETATM    2  N   UNL     1     -45.213 -53.799  14.366  1.00  0.00    -0.256 N 
HETATM    3  C   UNL     1     -46.004 -53.582  15.482  1.00  0.00     0.334 C 
HETATM    4  N   UNL     1     -46.569 -52.322  15.602  1.00  0.00    -0.279 N 
HETATM    5  O   UNL     1     -46.215 -54.455  16.320  1.00  0.00    -0.246 OA
HETATM    6  C   UNL     1     -46.725 -51.507  14.505  1.00  0.00     0.146 C 
HETATM    7  C   UNL     1     -46.263 -51.881  13.315  1.00  0.00     0.200 C 
HETATM    8  C   UNL     1     -45.438 -53.110  13.182  1.00  0.00     0.292 C 
HETATM    9  F   UNL     1     -46.492 -51.159  12.201  1.00  0.00    -0.199 F 
HETATM   10  O   UNL     1     -45.043 -53.479  12.079  1.00  0.00    -0.264 OA
BRANCH   4  11
HETATM   11  C   UNL     1     -46.899 -51.889  16.951  1.00  0.00     0.232 C 
HETATM   12  O   UNL     1     -48.259 -51.453  17.071  1.00  0.00    -0.366 OA
HETATM   13  C   UNL     1     -48.295 -50.412  18.063  1.00  0.00     0.170 C 
HETATM   14  C   UNL     1     -46.870 -50.140  18.512  1.00  0.00     0.031 C 
HETATM   15  C   UNL     1     -46.056 -50.692  17.374  1.00  0.00     0.056 C 
ENDBRANCH   4  11
ENDBRANCH   1   2
BRANCH   1  16
HETATM   16  C   UNL     1     -43.116 -54.902  15.264  1.00  0.00     0.179 C 
HETATM   17  O   UNL     1     -42.855 -55.797  16.071  1.00  0.00    -0.290 OA
BRANCH  16  18
HETATM   18  C   UNL     1     -42.238 -53.717  15.131  1.00  0.00     0.036 C 
HETATM   19  C   UNL     1     -41.315 -53.441  14.117  1.00  0.00     0.022 C 
HETATM   20  N   UNL     1     -40.599 -52.302  14.483  1.00  0.00    -0.348 N 
HETATM   21  C   UNL     1     -41.057 -54.179  12.844  1.00  0.00     0.069 C 
HETATM   22  C   UNL     1     -41.208 -51.727  15.575  1.00  0.00     0.009 C 
HETATM   23  C   UNL     1     -42.233 -52.560  15.951  1.00  0.00     0.042 C 
HETATM   24  C   UNL     1     -40.802 -50.433  16.192  1.00  0.00     0.068 C 
BRANCH  20  25
HETATM   25  C   UNL     1     -39.458 -51.706  13.781  1.00  0.00     0.194 C 
BRANCH  25  26
HETATM   26  C   UNL     1     -39.846 -50.677  12.781  1.00  0.00     0.070 A 
HETATM   27  O   UNL     1     -39.066 -49.549  12.782  1.00  0.00    -0.325 OA
HETATM   28  C   UNL     1     -39.545 -48.726  11.815  1.00  0.00     0.142 A 
HETATM   29  C   UNL     1     -40.631 -49.299  11.191  1.00  0.00     0.027 A 
HETATM   30  C   UNL     1     -40.827 -50.560  11.811  1.00  0.00     0.036 A 
ENDBRANCH  25  26
ENDBRANCH  20  25
ENDBRANCH  16  18
ENDBRANCH   1  16
TORSDOF 6
ENDMDL
MODEL 2
REMARK VINA RESULT:      -6.6      3.471      6.086
REMARK  6 active torsions:
REMARK  status: ('A' for Active; 'I' for Inactive)
REMARK    1  A    between atoms: N_1  and  C_12 
REMARK    2  A    between atoms: N_2  and  C_14 
REMARK    3  A    between atoms: C_4  and  C_13 
REMARK    4  A    between atoms: N_6  and  C_15 
REMARK    5  A    between atoms: C_12  and  C_13 
REMARK    6  A    between atoms: C_15  and  C_17 
ROOT
HETATM    1  C   UNL     1     -39.877 -49.840  13.519  1.00  0.00     0.221 C 
ENDROOT
BRANCH   1   2
HETATM    2  N   UNL     1     -40.850 -50.925  13.694  1.00  0.00    -0.256 N 
HETATM    3  C   UNL     1     -42.031 -50.610  14.343  1.00  0.00     0.334 C 
HETATM    4  N   UNL     1     -43.051 -51.546  14.260  1.00  0.00    -0.279 N 
HETATM    5  O   UNL     1     -42.178 -49.567  14.974  1.00  0.00    -0.246 OA
HETATM    6  C   UNL     1     -42.782 -52.863  13.967  1.00  0.00     0.146 C 
HETATM    7  C   UNL     1     -41.542 -53.251  13.679  1.00  0.00     0.200 C 
HETATM    8  C   UNL     1     -40.459 -52.245  13.517  1.00  0.00     0.292 C 
HETATM    9  F   UNL     1     -41.224 -54.546  13.493  1.00  0.00    -0.199 F 
HETATM   10  O   UNL     1     -39.306 -52.603  13.289  1.00  0.00    -0.264 OA
BRANCH   4  11
HETATM   11  C   UNL     1     -44.406 -51.039  14.411  1.00  0.00     0.232 C 
HETATM   12  O   UNL     1     -45.000 -51.425  15.657  1.00  0.00    -0.366 OA
HETATM   13  C   UNL     1     -46.412 -51.582  15.434  1.00  0.00     0.170 C 
HETATM   14  C   UNL     1     -46.683 -51.363  13.956  1.00  0.00     0.031 C 
HETATM   15  C   UNL     1     -45.332 -51.596  13.336  1.00  0.00     0.056 C 
ENDBRANCH   4  11
ENDBRANCH   1   2
BRANCH   1  16
HETATM   16  C   UNL     1     -39.670 -49.405  12.045  1.00  0.00     0.179 C 
HETATM   17  O   UNL     1     -38.999 -50.102  11.282  1.00  0.00    -0.290 OA
BRANCH  16  18
HETATM   18  C   UNL     1     -40.292 -48.144  11.576  1.00  0.00     0.036 C 
HETATM   19  C   UNL     1     -41.647 -47.890  11.340  1.00  0.00     0.022 C 
HETATM   20  N   UNL     1     -41.755 -46.630  10.755  1.00  0.00    -0.348 N 
HETATM   21  C   UNL     1     -42.834 -48.754  11.615  1.00  0.00     0.069 C 
HETATM   22  C   UNL     1     -40.535 -45.996  10.837  1.00  0.00     0.009 C 
HETATM   23  C   UNL     1     -39.649 -46.897  11.374  1.00  0.00     0.042 C 
HETATM   24  C   UNL     1     -40.278 -44.590  10.419  1.00  0.00     0.068 C 
BRANCH  20  25
HETATM   25  C   UNL     1     -42.968 -45.991  10.236  1.00  0.00     0.194 C 
BRANCH  25  26
HETATM   26  C   UNL     1     -43.737 -46.849   9.296  1.00  0.00     0.070 A 
HETATM   27  O   UNL     1     -45.053 -47.035   9.631  1.00  0.00    -0.325 OA
HETATM   28  C   UNL     1     -45.605 -47.826   8.676  1.00  0.00     0.142 A 
HETATM   29  C   UNL     1     -44.663 -48.163   7.728  1.00  0.00     0.027 A 
HETATM   30  C   UNL     1     -43.456 -47.532   8.126  1.00  0.00     0.036 A 
ENDBRANCH  25  26
ENDBRANCH  20  25
ENDBRANCH  16  18
ENDBRANCH   1  16
TORSDOF 6
ENDMDL
MODEL 3
REMARK VINA RESULT:      -6.5      1.269      2.110
REMARK  6 active torsions:
REMARK  status: ('A' for Active; 'I' for Inactive)
REMARK    1  A    between atoms: N_1  and  C_12 
REMARK    2  A    between atoms: N_2  and  C_14 
REMARK    3  A    between atoms: C_4  and  C_13 
REMARK    4  A    between atoms: N_6  and  C_15 
REMARK    5  A    between atoms: C_12  and  C_13 
REMARK    6  A    between atoms: C_15  and  C_17 
ROOT
HETATM    1  C   UNL     1     -44.342 -54.928  14.380  1.00  0.00     0.221 C 
ENDROOT
BRANCH   1   2
HETATM    2  N   UNL     1     -45.225 -53.756  14.402  1.00  0.00    -0.256 N 
HETATM    3  C   UNL     1     -45.954 -53.542  15.560  1.00  0.00     0.334 C 
HETATM    4  N   UNL     1     -46.562 -52.302  15.687  1.00  0.00    -0.279 N 
HETATM    5  O   UNL     1     -46.076 -54.400  16.430  1.00  0.00    -0.246 OA
HETATM    6  C   UNL     1     -46.819 -51.523  14.583  1.00  0.00     0.146 C 
HETATM    7  C   UNL     1     -46.416 -51.909  13.375  1.00  0.00     0.200 C 
HETATM    8  C   UNL     1     -45.551 -53.107  13.220  1.00  0.00     0.292 C 
HETATM    9  F   UNL     1     -46.743 -51.225  12.262  1.00  0.00    -0.199 F 
HETATM   10  O   UNL     1     -45.210 -53.488  12.102  1.00  0.00    -0.264 OA
BRANCH   4  11
HETATM   11  C   UNL     1     -46.824 -51.849  17.044  1.00  0.00     0.232 C 
HETATM   12  O   UNL     1     -48.204 -51.522  17.256  1.00  0.00    -0.366 OA
HETATM   13  C   UNL     1     -48.253 -50.451  18.215  1.00  0.00     0.170 C 
HETATM   14  C   UNL     1     -46.827 -50.046  18.544  1.00  0.00     0.031 C 
HETATM   15  C   UNL     1     -46.056 -50.571  17.363  1.00  0.00     0.056 C 
ENDBRANCH   4  11
ENDBRANCH   1   2
BRANCH   1  16
HETATM   16  C   UNL     1     -42.903 -54.648  14.885  1.00  0.00     0.179 C 
HETATM   17  O   UNL     1     -42.356 -55.433  15.663  1.00  0.00    -0.290 OA
BRANCH  16  18
HETATM   18  C   UNL     1     -42.204 -53.429  14.418  1.00  0.00     0.036 C 
HETATM   19  C   UNL     1     -41.727 -52.362  15.189  1.00  0.00     0.022 C 
HETATM   20  N   UNL     1     -41.288 -51.364  14.321  1.00  0.00    -0.348 N 
HETATM   21  C   UNL     1     -41.668 -52.220  16.674  1.00  0.00     0.069 C 
HETATM   22  C   UNL     1     -41.259 -51.870  13.041  1.00  0.00     0.009 C 
HETATM   23  C   UNL     1     -41.776 -53.141  13.098  1.00  0.00     0.042 C 
HETATM   24  C   UNL     1     -40.741 -51.140  11.850  1.00  0.00     0.068 C 
BRANCH  20  25
HETATM   25  C   UNL     1     -40.810 -50.025  14.676  1.00  0.00     0.194 C 
BRANCH  25  26
HETATM   26  C   UNL     1     -39.336 -49.944  14.846  1.00  0.00     0.070 A 
HETATM   27  O   UNL     1     -38.798 -48.700  14.641  1.00  0.00    -0.325 OA
HETATM   28  C   UNL     1     -37.460 -48.799  14.841  1.00  0.00     0.142 A 
HETATM   29  C   UNL     1     -37.118 -50.094  15.165  1.00  0.00     0.027 A 
HETATM   30  C   UNL     1     -38.327 -50.836  15.170  1.00  0.00     0.036 A 
ENDBRANCH  25  26
ENDBRANCH  20  25
ENDBRANCH  16  18
ENDBRANCH   1  16
TORSDOF 6
ENDMDL
MODEL 4
REMARK VINA RESULT:      -6.5      2.686      7.139
REMARK  6 active torsions:
REMARK  status: ('A' for Active; 'I' for Inactive)
REMARK    1  A    between atoms: N_1  and  C_12 
REMARK    2  A    between atoms: N_2  and  C_14 
REMARK    3  A    between atoms: C_4  and  C_13 
REMARK    4  A    between atoms: N_6  and  C_15 
REMARK    5  A    between atoms: C_12  and  C_13 
REMARK    6  A    between atoms: C_15  and  C_17 
ROOT
HETATM    1  C   UNL     1     -40.080 -52.693  13.711  1.00  0.00     0.221 C 
ENDROOT
BRANCH   1   2
HETATM    2  N   UNL     1     -39.874 -51.325  13.223  1.00  0.00    -0.256 N 
HETATM    3  C   UNL     1     -40.724 -50.881  12.224  1.00  0.00     0.334 C 
HETATM    4  N   UNL     1     -40.713 -49.519  11.965  1.00  0.00    -0.279 N 
HETATM    5  O   UNL     1     -41.442 -51.643  11.584  1.00  0.00    -0.246 OA
HETATM    6  C   UNL     1     -39.640 -48.736  12.325  1.00  0.00     0.146 C 
HETATM    7  C   UNL     1     -38.621 -49.259  13.001  1.00  0.00     0.200 C 
HETATM    8  C   UNL     1     -38.695 -50.652  13.513  1.00  0.00     0.292 C 
HETATM    9  F   UNL     1     -37.509 -48.551  13.276  1.00  0.00    -0.199 F 
HETATM   10  O   UNL     1     -37.739 -51.150  14.105  1.00  0.00    -0.264 OA
BRANCH   4  11
HETATM   11  C   UNL     1     -41.924 -48.964  11.380  1.00  0.00     0.232 C 
HETATM   12  O   UNL     1     -41.689 -48.358  10.103  1.00  0.00    -0.366 OA
HETATM   13  C   UNL     1     -42.608 -47.260   9.968  1.00  0.00     0.170 C 
HETATM   14  C   UNL     1     -43.389 -47.137  11.265  1.00  0.00     0.031 C 
HETATM   15  C   UNL     1     -42.506 -47.855  12.249  1.00  0.00     0.056 C 
ENDBRANCH   4  11
ENDBRANCH   1   2
BRANCH   1  16
HETATM   16  C   UNL     1     -41.086 -52.803  14.887  1.00  0.00     0.179 C 
HETATM   17  O   UNL     1     -40.702 -52.642  16.047  1.00  0.00    -0.290 OA
BRANCH  16  18
HETATM   18  C   UNL     1     -42.506 -53.102  14.589  1.00  0.00     0.036 C 
HETATM   19  C   UNL     1     -43.578 -52.204  14.523  1.00  0.00     0.022 C 
HETATM   20  N   UNL     1     -44.751 -52.943  14.378  1.00  0.00    -0.348 N 
HETATM   21  C   UNL     1     -43.569 -50.713  14.598  1.00  0.00     0.069 C 
HETATM   22  C   UNL     1     -44.421 -54.253  14.115  1.00  0.00     0.009 C 
HETATM   23  C   UNL     1     -43.054 -54.350  14.201  1.00  0.00     0.042 C 
HETATM   24  C   UNL     1     -45.401 -55.327  13.792  1.00  0.00     0.068 C 
BRANCH  20  25
HETATM   25  C   UNL     1     -46.126 -52.434  14.375  1.00  0.00     0.194 C 
BRANCH  25  26
HETATM   26  C   UNL     1     -46.648 -52.120  15.730  1.00  0.00     0.070 A 
HETATM   27  O   UNL     1     -46.178 -52.931  16.731  1.00  0.00    -0.325 OA
HETATM   28  C   UNL     1     -46.741 -52.508  17.892  1.00  0.00     0.142 A 
HETATM   29  C   UNL     1     -47.576 -51.438  17.658  1.00  0.00     0.027 A 
HETATM   30  C   UNL     1     -47.518 -51.185  16.263  1.00  0.00     0.036 A 
ENDBRANCH  25  26
ENDBRANCH  20  25
ENDBRANCH  16  18
ENDBRANCH   1  16
TORSDOF 6
ENDMDL
MODEL 5
REMARK VINA RESULT:      -6.5      2.859      6.585
REMARK  6 active torsions:
REMARK  status: ('A' for Active; 'I' for Inactive)
REMARK    1  A    between atoms: N_1  and  C_12 
REMARK    2  A    between atoms: N_2  and  C_14 
REMARK    3  A    between atoms: C_4  and  C_13 
REMARK    4  A    between atoms: N_6  and  C_15 
REMARK    5  A    between atoms: C_12  and  C_13 
REMARK    6  A    between atoms: C_15  and  C_17 
ROOT
HETATM    1  C   UNL     1     -39.599 -52.764  13.650  1.00  0.00     0.221 C 
ENDROOT
BRANCH   1   2
HETATM    2  N   UNL     1     -39.445 -51.558  12.827  1.00  0.00    -0.256 N 
HETATM    3  C   UNL     1     -40.579 -51.088  12.186  1.00  0.00     0.334 C 
HETATM    4  N   UNL     1     -40.500 -49.813  11.647  1.00  0.00    -0.279 N 
HETATM    5  O   UNL     1     -41.602 -51.760  12.079  1.00  0.00    -0.246 OA
HETATM    6  C   UNL     1     -39.284 -49.240  11.357  1.00  0.00     0.146 C 
HETATM    7  C   UNL     1     -38.152 -49.869  11.661  1.00  0.00     0.200 C 
HETATM    8  C   UNL     1     -38.180 -51.124  12.456  1.00  0.00     0.292 C 
HETATM    9  F   UNL     1     -36.948 -49.388  11.296  1.00  0.00    -0.199 F 
HETATM   10  O   UNL     1     -37.139 -51.727  12.706  1.00  0.00    -0.264 OA
BRANCH   4  11
HETATM   11  C   UNL     1     -41.758 -49.098  11.495  1.00  0.00     0.232 C 
HETATM   12  O   UNL     1     -41.722 -48.146  10.424  1.00  0.00    -0.366 OA
HETATM   13  C   UNL     1     -42.574 -47.047  10.792  1.00  0.00     0.170 C 
HETATM   14  C   UNL     1     -43.091 -47.301  12.197  1.00  0.00     0.031 C 
HETATM   15  C   UNL     1     -42.093 -48.287  12.741  1.00  0.00     0.056 C 
ENDBRANCH   4  11
ENDBRANCH   1   2
BRANCH   1  16
HETATM   16  C   UNL     1     -39.891 -52.478  15.146  1.00  0.00     0.179 C 
HETATM   17  O   UNL     1     -38.961 -52.365  15.947  1.00  0.00    -0.290 OA
BRANCH  16  18
HETATM   18  C   UNL     1     -41.298 -52.344  15.588  1.00  0.00     0.036 C 
HETATM   19  C   UNL     1     -42.366 -53.210  15.331  1.00  0.00     0.022 C 
HETATM   20  N   UNL     1     -43.533 -52.609  15.800  1.00  0.00    -0.348 N 
HETATM   21  C   UNL     1     -42.361 -54.549  14.669  1.00  0.00     0.069 C 
HETATM   22  C   UNL     1     -43.193 -51.506  16.550  1.00  0.00     0.009 C 
HETATM   23  C   UNL     1     -41.830 -51.362  16.461  1.00  0.00     0.042 C 
HETATM   24  C   UNL     1     -44.159 -50.664  17.309  1.00  0.00     0.068 C 
BRANCH  20  25
HETATM   25  C   UNL     1     -44.907 -53.097  15.650  1.00  0.00     0.194 C 
BRANCH  25  26
HETATM   26  C   UNL     1     -45.610 -52.543  14.464  1.00  0.00     0.070 A 
HETATM   27  O   UNL     1     -45.421 -53.244  13.301  1.00  0.00    -0.325 OA
HETATM   28  C   UNL     1     -46.130 -52.615  12.330  1.00  0.00     0.142 A 
HETATM   29  C   UNL     1     -46.772 -51.510  12.844  1.00  0.00     0.027 A 
HETATM   30  C   UNL     1     -46.439 -51.461  14.222  1.00  0.00     0.036 A 
ENDBRANCH  25  26
ENDBRANCH  20  25
ENDBRANCH  16  18
ENDBRANCH   1  16
TORSDOF 6
ENDMDL
MODEL 6
REMARK VINA RESULT:      -6.4      3.903      7.624
REMARK  6 active torsions:
REMARK  status: ('A' for Active; 'I' for Inactive)
REMARK    1  A    between atoms: N_1  and  C_12 
REMARK    2  A    between atoms: N_2  and  C_14 
REMARK    3  A    between atoms: C_4  and  C_13 
REMARK    4  A    between atoms: N_6  and  C_15 
REMARK    5  A    between atoms: C_12  and  C_13 
REMARK    6  A    between atoms: C_15  and  C_17 
ROOT
HETATM    1  C   UNL     1     -39.402 -47.820  13.697  1.00  0.00     0.221 C 
ENDROOT
BRANCH   1   2
HETATM    2  N   UNL     1     -40.234 -46.764  13.108  1.00  0.00    -0.256 N 
HETATM    3  C   UNL     1     -40.609 -46.926  11.785  1.00  0.00     0.334 C 
HETATM    4  N   UNL     1     -41.610 -46.087  11.320  1.00  0.00    -0.279 N 
HETATM    5  O   UNL     1     -40.082 -47.755  11.047  1.00  0.00    -0.246 OA
HETATM    6  C   UNL     1     -41.888 -44.896  11.951  1.00  0.00     0.146 C 
HETATM    7  C   UNL     1     -41.251 -44.562  13.071  1.00  0.00     0.200 C 
HETATM    8  C   UNL     1     -40.348 -45.534  13.740  1.00  0.00     0.292 C 
HETATM    9  F   UNL     1     -41.420 -43.360  13.655  1.00  0.00    -0.199 F 
HETATM   10  O   UNL     1     -39.730 -45.214  14.753  1.00  0.00    -0.264 OA
BRANCH   4  11
HETATM   11  C   UNL     1     -42.393 -46.578  10.197  1.00  0.00     0.232 C 
HETATM   12  O   UNL     1     -42.923 -45.517   9.391  1.00  0.00    -0.366 OA
HETATM   13  C   UNL     1     -44.184 -45.962   8.862  1.00  0.00     0.170 C 
HETATM   14  C   UNL     1     -44.481 -47.334   9.442  1.00  0.00     0.031 C 
HETATM   15  C   UNL     1     -43.609 -47.368  10.668  1.00  0.00     0.056 C 
ENDBRANCH   4  11
ENDBRANCH   1   2
BRANCH   1  16
HETATM   16  C   UNL     1     -40.193 -48.857  14.536  1.00  0.00     0.179 C 
HETATM   17  O   UNL     1     -40.846 -48.492  15.515  1.00  0.00    -0.290 OA
BRANCH  16  18
HETATM   18  C   UNL     1     -40.150 -50.283  14.139  1.00  0.00     0.036 C 
HETATM   19  C   UNL     1     -40.944 -50.937  13.190  1.00  0.00     0.022 C 
HETATM   20  N   UNL     1     -40.670 -52.301  13.262  1.00  0.00    -0.348 N 
HETATM   21  C   UNL     1     -41.943 -50.366  12.238  1.00  0.00     0.069 C 
HETATM   22  C   UNL     1     -39.563 -52.490  14.058  1.00  0.00     0.009 C 
HETATM   23  C   UNL     1     -39.214 -51.261  14.562  1.00  0.00     0.042 C 
HETATM   24  C   UNL     1     -38.895 -53.801  14.289  1.00  0.00     0.068 C 
BRANCH  20  25
HETATM   25  C   UNL     1     -41.341 -53.382  12.535  1.00  0.00     0.194 C 
BRANCH  25  26
HETATM   26  C   UNL     1     -42.535 -53.921  13.237  1.00  0.00     0.070 A 
HETATM   27  O   UNL     1     -43.722 -53.750  12.572  1.00  0.00    -0.325 OA
HETATM   28  C   UNL     1     -44.698 -54.299  13.339  1.00  0.00     0.142 A 
HETATM   29  C   UNL     1     -44.163 -54.818  14.498  1.00  0.00     0.027 A 
HETATM   30  C   UNL     1     -42.767 -54.576  14.435  1.00  0.00     0.036 A 
ENDBRANCH  25  26
ENDBRANCH  20  25
ENDBRANCH  16  18
ENDBRANCH   1  16
TORSDOF 6
ENDMDL
MODEL 7
REMARK VINA RESULT:      -6.4      3.338      7.562
REMARK  6 active torsions:
REMARK  status: ('A' for Active; 'I' for Inactive)
REMARK    1  A    between atoms: N_1  and  C_12 
REMARK    2  A    between atoms: N_2  and  C_14 
REMARK    3  A    between atoms: C_4  and  C_13 
REMARK    4  A    between atoms: N_6  and  C_15 
REMARK    5  A    between atoms: C_12  and  C_13 
REMARK    6  A    between atoms: C_15  and  C_17 
ROOT
HETATM    1  C   UNL     1     -39.454 -50.116  12.680  1.00  0.00     0.221 C 
ENDROOT
BRANCH   1   2
HETATM    2  N   UNL     1     -39.941 -48.793  12.268  1.00  0.00    -0.256 N 
HETATM    3  C   UNL     1     -40.660 -48.730  11.086  1.00  0.00     0.334 C 
HETATM    4  N   UNL     1     -41.350 -47.551  10.846  1.00  0.00    -0.279 N 
HETATM    5  O   UNL     1     -40.683 -49.655  10.279  1.00  0.00    -0.246 OA
HETATM    6  C   UNL     1     -40.993 -46.380  11.473  1.00  0.00     0.146 C 
HETATM    7  C   UNL     1     -40.025 -46.371  12.386  1.00  0.00     0.200 C 
HETATM    8  C   UNL     1     -39.423 -47.647  12.855  1.00  0.00     0.292 C 
HETATM    9  F   UNL     1     -39.578 -45.229  12.941  1.00  0.00    -0.199 F 
HETATM   10  O   UNL     1     -38.503 -47.639  13.670  1.00  0.00    -0.264 OA
BRANCH   4  11
HETATM   11  C   UNL     1     -42.509 -47.649   9.973  1.00  0.00     0.232 C 
HETATM   12  O   UNL     1     -42.657 -46.501   9.126  1.00  0.00    -0.366 OA
HETATM   13  C   UNL     1     -44.065 -46.301   8.911  1.00  0.00     0.170 C 
HETATM   14  C   UNL     1     -44.819 -47.328   9.736  1.00  0.00     0.031 C 
HETATM   15  C   UNL     1     -43.804 -47.727  10.772  1.00  0.00     0.056 C 
ENDBRANCH   4  11
ENDBRANCH   1   2
BRANCH   1  16
HETATM   16  C   UNL     1     -40.275 -50.766  13.822  1.00  0.00     0.179 C 
HETATM   17  O   UNL     1     -39.792 -50.867  14.952  1.00  0.00    -0.290 OA
BRANCH  16  18
HETATM   18  C   UNL     1     -41.641 -51.260  13.532  1.00  0.00     0.036 C 
HETATM   19  C   UNL     1     -42.848 -50.558  13.631  1.00  0.00     0.022 C 
HETATM   20  N   UNL     1     -43.891 -51.459  13.420  1.00  0.00    -0.348 N 
HETATM   21  C   UNL     1     -43.081 -49.111  13.921  1.00  0.00     0.069 C 
HETATM   22  C   UNL     1     -43.365 -52.646  12.960  1.00  0.00     0.009 C 
HETATM   23  C   UNL     1     -41.998 -52.518  12.986  1.00  0.00     0.042 C 
HETATM   24  C   UNL     1     -44.172 -53.817  12.517  1.00  0.00     0.068 C 
BRANCH  20  25
HETATM   25  C   UNL     1     -45.328 -51.198  13.536  1.00  0.00     0.194 C 
BRANCH  25  26
HETATM   26  C   UNL     1     -45.835 -51.262  14.932  1.00  0.00     0.070 A 
HETATM   27  O   UNL     1     -47.198 -51.346  15.048  1.00  0.00    -0.325 OA
HETATM   28  C   UNL     1     -47.489 -51.404  16.372  1.00  0.00     0.142 A 
HETATM   29  C   UNL     1     -46.333 -51.350  17.120  1.00  0.00     0.027 A 
HETATM   30  C   UNL     1     -45.263 -51.259  16.193  1.00  0.00     0.036 A 
ENDBRANCH  25  26
ENDBRANCH  20  25
ENDBRANCH  16  18
ENDBRANCH   1  16
TORSDOF 6
ENDMDL
MODEL 8
REMARK VINA RESULT:      -6.4      2.848      7.234
REMARK  6 active torsions:
REMARK  status: ('A' for Active; 'I' for Inactive)
REMARK    1  A    between atoms: N_1  and  C_12 
REMARK    2  A    between atoms: N_2  and  C_14 
REMARK    3  A    between atoms: C_4  and  C_13 
REMARK    4  A    between atoms: N_6  and  C_15 
REMARK    5  A    between atoms: C_12  and  C_13 
REMARK    6  A    between atoms: C_15  and  C_17 
ROOT
HETATM    1  C   UNL     1     -38.872 -51.737  14.478  1.00  0.00     0.221 C 
ENDROOT
BRANCH   1   2
HETATM    2  N   UNL     1     -38.763 -50.744  13.402  1.00  0.00    -0.256 N 
HETATM    3  C   UNL     1     -39.867 -49.939  13.178  1.00  0.00     0.334 C 
HETATM    4  N   UNL     1     -39.669 -48.831  12.367  1.00  0.00    -0.279 N 
HETATM    5  O   UNL     1     -40.972 -50.188  13.652  1.00  0.00    -0.246 OA
HETATM    6  C   UNL     1     -38.613 -48.776  11.487  1.00  0.00     0.146 C 
HETATM    7  C   UNL     1     -37.712 -49.755  11.452  1.00  0.00     0.200 C 
HETATM    8  C   UNL     1     -37.744 -50.842  12.465  1.00  0.00     0.292 C 
HETATM    9  F   UNL     1     -36.728 -49.786  10.532  1.00  0.00    -0.199 F 
HETATM   10  O   UNL     1     -36.937 -51.767  12.411  1.00  0.00    -0.264 OA
BRANCH   4  11
HETATM   11  C   UNL     1     -40.580 -47.715  12.567  1.00  0.00     0.232 C 
HETATM   12  O   UNL     1     -41.716 -47.770  11.694  1.00  0.00    -0.366 OA
HETATM   13  C   UNL     1     -42.099 -46.416  11.395  1.00  0.00     0.170 C 
HETATM   14  C   UNL     1     -41.094 -45.486  12.052  1.00  0.00     0.031 C 
HETATM   15  C   UNL     1     -39.905 -46.383  12.263  1.00  0.00     0.056 C 
ENDBRANCH   4  11
ENDBRANCH   1   2
BRANCH   1  16
HETATM   16  C   UNL     1     -39.410 -53.116  14.016  1.00  0.00     0.179 C 
HETATM   17  O   UNL     1     -38.628 -53.990  13.638  1.00  0.00    -0.290 OA
BRANCH  16  18
HETATM   18  C   UNL     1     -40.871 -53.359  14.039  1.00  0.00     0.036 C 
HETATM   19  C   UNL     1     -41.716 -53.417  15.153  1.00  0.00     0.022 C 
HETATM   20  N   UNL     1     -42.975 -53.830  14.721  1.00  0.00    -0.348 N 
HETATM   21  C   UNL     1     -41.413 -53.123  16.586  1.00  0.00     0.069 C 
HETATM   22  C   UNL     1     -43.002 -53.801  13.344  1.00  0.00     0.009 C 
HETATM   23  C   UNL     1     -41.737 -53.475  12.922  1.00  0.00     0.042 C 
HETATM   24  C   UNL     1     -44.208 -54.070  12.513  1.00  0.00     0.068 C 
BRANCH  20  25
HETATM   25  C   UNL     1     -44.144 -54.135  15.551  1.00  0.00     0.194 C 
BRANCH  25  26
HETATM   26  C   UNL     1     -45.143 -53.035  15.598  1.00  0.00     0.070 A 
HETATM   27  O   UNL     1     -46.426 -53.408  15.292  1.00  0.00    -0.325 OA
HETATM   28  C   UNL     1     -47.204 -52.300  15.389  1.00  0.00     0.142 A 
HETATM   29  C   UNL     1     -46.442 -51.209  15.746  1.00  0.00     0.027 A 
HETATM   30  C   UNL     1     -45.111 -51.681  15.882  1.00  0.00     0.036 A 
ENDBRANCH  25  26
ENDBRANCH  20  25
ENDBRANCH  16  18
ENDBRANCH   1  16
TORSDOF 6
ENDMDL
MODEL 9
REMARK VINA RESULT:      -6.4      2.404      6.508
REMARK  6 active torsions:
REMARK  status: ('A' for Active; 'I' for Inactive)
REMARK    1  A    between atoms: N_1  and  C_12 
REMARK    2  A    between atoms: N_2  and  C_14 
REMARK    3  A    between atoms: C_4  and  C_13 
REMARK    4  A    between atoms: N_6  and  C_15 
REMARK    5  A    between atoms: C_12  and  C_13 
REMARK    6  A    between atoms: C_15  and  C_17 
ROOT
HETATM    1  C   UNL     1     -45.235 -53.389  12.716  1.00  0.00     0.221 C 
ENDROOT
BRANCH   1   2
HETATM    2  N   UNL     1     -44.018 -53.682  13.483  1.00  0.00    -0.256 N 
HETATM    3  C   UNL     1     -42.850 -53.070  13.061  1.00  0.00     0.334 C 
HETATM    4  N   UNL     1     -41.776 -53.120  13.938  1.00  0.00    -0.279 N 
HETATM    5  O   UNL     1     -42.750 -52.523  11.967  1.00  0.00    -0.246 OA
HETATM    6  C   UNL     1     -41.711 -54.076  14.925  1.00  0.00     0.146 C 
HETATM    7  C   UNL     1     -42.718 -54.925  15.111  1.00  0.00     0.200 C 
HETATM    8  C   UNL     1     -43.989 -54.757  14.360  1.00  0.00     0.292 C 
HETATM    9  F   UNL     1     -42.643 -55.939  15.995  1.00  0.00    -0.199 F 
HETATM   10  O   UNL     1     -44.907 -55.563  14.501  1.00  0.00    -0.264 OA
BRANCH   4  11
HETATM   11  C   UNL     1     -40.786 -52.063  13.805  1.00  0.00     0.232 C 
HETATM   12  O   UNL     1     -39.580 -52.516  13.175  1.00  0.00    -0.366 OA
HETATM   13  C   UNL     1     -38.489 -51.765  13.735  1.00  0.00     0.170 C 
HETATM   14  C   UNL     1     -39.047 -50.865  14.824  1.00  0.00     0.031 C 
HETATM   15  C   UNL     1     -40.351 -51.532  15.166  1.00  0.00     0.056 C 
ENDBRANCH   4  11
ENDBRANCH   1   2
BRANCH   1  16
HETATM   16  C   UNL     1     -45.883 -52.021  13.051  1.00  0.00     0.179 C 
HETATM   17  O   UNL     1     -46.269 -51.280  12.145  1.00  0.00    -0.290 OA
BRANCH  16  18
HETATM   18  C   UNL     1     -46.028 -51.626  14.471  1.00  0.00     0.036 C 
HETATM   19  C   UNL     1     -45.137 -50.881  15.252  1.00  0.00     0.022 C 
HETATM   20  N   UNL     1     -45.601 -50.891  16.566  1.00  0.00    -0.348 N 
HETATM   21  C   UNL     1     -43.884 -50.177  14.846  1.00  0.00     0.069 C 
HETATM   22  C   UNL     1     -46.873 -51.417  16.584  1.00  0.00     0.009 C 
HETATM   23  C   UNL     1     -47.157 -51.829  15.305  1.00  0.00     0.042 C 
HETATM   24  C   UNL     1     -47.744 -51.493  17.789  1.00  0.00     0.068 C 
BRANCH  20  25
HETATM   25  C   UNL     1     -44.935 -50.334  17.748  1.00  0.00     0.194 C 
BRANCH  25  26
HETATM   26  C   UNL     1     -45.111 -48.865  17.892  1.00  0.00     0.070 A 
HETATM   27  O   UNL     1     -46.262 -48.481  18.529  1.00  0.00    -0.325 OA
HETATM   28  C   UNL     1     -46.262 -47.125  18.584  1.00  0.00     0.142 A 
HETATM   29  C   UNL     1     -45.129 -46.621  17.984  1.00  0.00     0.027 A 
HETATM   30  C   UNL     1     -44.383 -47.742  17.537  1.00  0.00     0.036 A 
ENDBRANCH  25  26
ENDBRANCH  20  25
ENDBRANCH  16  18
ENDBRANCH   1  16
TORSDOF 6
ENDMDL
