MODEL 1
REMARK VINA RESULT:      -4.9      0.000      0.000
REMARK  5 active torsions:
REMARK  status: ('A' for Active; 'I' for Inactive)
REMARK    1  A    between atoms: C_2  and  C_3 
REMARK    2  A    between atoms: C_2  and  N_13 
REMARK       I    between atoms: C_3  and  N_5 
REMARK    3  A    between atoms: N_5  and  C_6 
REMARK    4  A    between atoms: C_6  and  C_7 
REMARK    5  A    between atoms: C_6  and  C_10 
ROOT
HETATM    1  C   UNL     1     -42.679 -49.964  13.471  1.00  0.00     0.240 C 
HETATM    2  O   UNL     1     -42.195 -50.312  14.548  1.00  0.00    -0.271 OA
HETATM    3  N   UNL     1     -43.738 -50.615  12.875  1.00  0.00    -0.354 N 
HETATM    4  H   UNL     1     -44.021 -50.379  11.935  1.00  0.00     0.162 HD
ENDROOT
BRANCH   1   5
HETATM    5  C   UNL     1     -42.136 -48.746  12.730  1.00  0.00     0.178 C 
HETATM    6  C   UNL     1     -43.128 -48.229  11.691  1.00  0.00     0.043 C 
BRANCH   5   7
HETATM    7  N   UNL     1     -40.799 -49.005  12.214  1.00  0.00    -0.338 N 
HETATM    8  C   UNL     1     -39.610 -48.489  12.652  1.00  0.00     0.109 A 
HETATM    9  C   UNL     1     -38.654 -49.069  11.851  1.00  0.00     0.106 A 
HETATM   10  N   UNL     1     -39.229 -49.914  10.940  1.00  0.00    -0.361 N 
HETATM   11  C   UNL     1     -40.519 -49.858  11.180  1.00  0.00     0.183 A 
ATOM     12  HN  UNL     1     -38.756 -50.469  10.227  1.00  0.00     0.166 HD
ENDBRANCH   5   7
ENDBRANCH   1   5
BRANCH   3  13
HETATM   13  C   UNL     1     -44.349 -51.785  13.471  1.00  0.00     0.092 C 
BRANCH  13  14
HETATM   14  C   UNL     1     -45.848 -51.643  13.354  1.00  0.00     0.009 A 
HETATM   15  C   UNL     1     -46.699 -51.322  14.561  1.00  0.00     0.007 A 
HETATM   16  C   UNL     1     -46.741 -52.699  13.965  1.00  0.00     0.007 A 
ENDBRANCH  13  14
BRANCH  13  17
HETATM   17  C   UNL     1     -43.869 -53.065  12.826  1.00  0.00     0.009 A 
HETATM   18  C   UNL     1     -43.779 -54.325  13.655  1.00  0.00     0.007 A 
HETATM   19  C   UNL     1     -42.528 -53.727  13.076  1.00  0.00     0.007 A 
ENDBRANCH  13  17
ENDBRANCH   3  13
TORSDOF 5
ENDMDL
MODEL 2
REMARK VINA RESULT:      -4.8      2.401      3.533
REMARK  5 active torsions:
REMARK  status: ('A' for Active; 'I' for Inactive)
REMARK    1  A    between atoms: C_2  and  C_3 
REMARK    2  A    between atoms: C_2  and  N_13 
REMARK       I    between atoms: C_3  and  N_5 
REMARK    3  A    between atoms: N_5  and  C_6 
REMARK    4  A    between atoms: C_6  and  C_7 
REMARK    5  A    between atoms: C_6  and  C_10 
ROOT
HETATM    1  C   UNL     1     -42.215 -54.026  14.326  1.00  0.00     0.240 C 
HETATM    2  O   UNL     1     -42.360 -54.754  15.308  1.00  0.00    -0.271 OA
HETATM    3  N   UNL     1     -43.191 -53.162  13.878  1.00  0.00    -0.354 N 
HETATM    4  H   UNL     1     -43.082 -52.679  12.998  1.00  0.00     0.162 HD
ENDROOT
BRANCH   1   5
HETATM    5  C   UNL     1     -40.904 -54.023  13.546  1.00  0.00     0.178 C 
HETATM    6  C   UNL     1     -39.738 -54.517  14.401  1.00  0.00     0.043 C 
BRANCH   5   7
HETATM    7  N   UNL     1     -40.682 -52.734  12.907  1.00  0.00    -0.338 N 
HETATM    8  C   UNL     1     -39.984 -51.661  13.390  1.00  0.00     0.109 A 
HETATM    9  C   UNL     1     -40.054 -50.713  12.395  1.00  0.00     0.106 A 
HETATM   10  N   UNL     1     -40.778 -51.179  11.330  1.00  0.00    -0.361 N 
HETATM   11  C   UNL     1     -41.143 -52.395  11.663  1.00  0.00     0.183 A 
ATOM     12  HN  UNL     1     -40.988 -50.685  10.463  1.00  0.00     0.166 HD
ENDBRANCH   5   7
ENDBRANCH   1   5
BRANCH   3  13
HETATM   13  C   UNL     1     -44.482 -53.064  14.527  1.00  0.00     0.092 C 
BRANCH  13  14
HETATM   14  C   UNL     1     -44.887 -51.610  14.550  1.00  0.00     0.009 A 
HETATM   15  C   UNL     1     -45.376 -50.955  15.822  1.00  0.00     0.007 A 
HETATM   16  C   UNL     1     -46.346 -51.251  14.714  1.00  0.00     0.007 A 
ENDBRANCH  13  14
BRANCH  13  17
HETATM   17  C   UNL     1     -45.527 -53.911  13.837  1.00  0.00     0.009 A 
HETATM   18  C   UNL     1     -46.509 -54.701  14.670  1.00  0.00     0.007 A 
HETATM   19  C   UNL     1     -45.536 -55.426  13.784  1.00  0.00     0.007 A 
ENDBRANCH  13  17
ENDBRANCH   3  13
TORSDOF 5
ENDMDL
MODEL 3
REMARK VINA RESULT:      -4.7      3.261      5.113
REMARK  5 active torsions:
REMARK  status: ('A' for Active; 'I' for Inactive)
REMARK    1  A    between atoms: C_2  and  C_3 
REMARK    2  A    between atoms: C_2  and  N_13 
REMARK       I    between atoms: C_3  and  N_5 
REMARK    3  A    between atoms: N_5  and  C_6 
REMARK    4  A    between atoms: C_6  and  C_7 
REMARK    5  A    between atoms: C_6  and  C_10 
ROOT
HETATM    1  C   UNL     1     -44.225 -54.485  14.963  1.00  0.00     0.240 C 
HETATM    2  O   UNL     1     -45.191 -55.123  14.543  1.00  0.00    -0.271 OA
HETATM    3  N   UNL     1     -44.336 -53.476  15.895  1.00  0.00    -0.354 N 
HETATM    4  H   UNL     1     -43.541 -52.895  16.116  1.00  0.00     0.162 HD
ENDROOT
BRANCH   1   5
HETATM    5  C   UNL     1     -42.814 -54.804  14.480  1.00  0.00     0.178 C 
HETATM    6  C   UNL     1     -41.838 -54.950  15.647  1.00  0.00     0.043 C 
BRANCH   5   7
HETATM    7  N   UNL     1     -42.391 -53.863  13.452  1.00  0.00    -0.338 N 
HETATM    8  C   UNL     1     -41.126 -53.415  13.187  1.00  0.00     0.109 A 
HETATM    9  C   UNL     1     -41.266 -52.569  12.111  1.00  0.00     0.106 A 
HETATM   10  N   UNL     1     -42.577 -52.487  11.724  1.00  0.00    -0.361 N 
HETATM   11  C   UNL     1     -43.231 -53.275  12.546  1.00  0.00     0.183 A 
ATOM     12  HN  UNL     1     -42.962 -51.933  10.960  1.00  0.00     0.166 HD
ENDBRANCH   5   7
ENDBRANCH   1   5
BRANCH   3  13
HETATM   13  C   UNL     1     -45.617 -53.073  16.437  1.00  0.00     0.092 C 
BRANCH  13  14
HETATM   14  C   UNL     1     -45.520 -53.105  17.943  1.00  0.00     0.009 A 
HETATM   15  C   UNL     1     -46.062 -54.273  18.736  1.00  0.00     0.007 A 
HETATM   16  C   UNL     1     -46.778 -52.953  18.768  1.00  0.00     0.007 A 
ENDBRANCH  13  14
BRANCH  13  17
HETATM   17  C   UNL     1     -46.034 -51.705  15.945  1.00  0.00     0.009 A 
HETATM   18  C   UNL     1     -47.503 -51.362  15.867  1.00  0.00     0.007 A 
HETATM   19  C   UNL     1     -46.686 -51.413  14.608  1.00  0.00     0.007 A 
ENDBRANCH  13  17
ENDBRANCH   3  13
TORSDOF 5
ENDMDL
MODEL 4
REMARK VINA RESULT:      -4.7      1.337      2.476
REMARK  5 active torsions:
REMARK  status: ('A' for Active; 'I' for Inactive)
REMARK    1  A    between atoms: C_2  and  C_3 
REMARK    2  A    between atoms: C_2  and  N_13 
REMARK       I    between atoms: C_3  and  N_5 
REMARK    3  A    between atoms: N_5  and  C_6 
REMARK    4  A    between atoms: C_6  and  C_7 
REMARK    5  A    between atoms: C_6  and  C_10 
ROOT
HETATM    1  C   UNL     1     -42.114 -50.383  12.835  1.00  0.00     0.240 C 
HETATM    2  O   UNL     1     -41.744 -50.315  14.007  1.00  0.00    -0.271 OA
HETATM    3  N   UNL     1     -43.194 -51.136  12.427  1.00  0.00    -0.354 N 
HETATM    4  H   UNL     1     -43.385 -51.267  11.445  1.00  0.00     0.162 HD
ENDROOT
BRANCH   1   5
HETATM    5  C   UNL     1     -41.393 -49.595  11.745  1.00  0.00     0.178 C 
HETATM    6  C   UNL     1     -39.953 -49.273  12.142  1.00  0.00     0.043 C 
BRANCH   5   7
HETATM    7  N   UNL     1     -42.179 -48.441  11.332  1.00  0.00    -0.338 N 
HETATM    8  C   UNL     1     -42.370 -47.959  10.065  1.00  0.00     0.109 A 
HETATM    9  C   UNL     1     -43.208 -46.879  10.218  1.00  0.00     0.106 A 
HETATM   10  N   UNL     1     -43.523 -46.690  11.537  1.00  0.00    -0.361 N 
HETATM   11  C   UNL     1     -42.893 -47.642  12.185  1.00  0.00     0.183 A 
ATOM     12  HN  UNL     1     -44.121 -45.964  11.931  1.00  0.00     0.166 HD
ENDBRANCH   5   7
ENDBRANCH   1   5
BRANCH   3  13
HETATM   13  C   UNL     1     -43.966 -51.931  13.359  1.00  0.00     0.092 C 
BRANCH  13  14
HETATM   14  C   UNL     1     -45.423 -51.578  13.181  1.00  0.00     0.009 A 
HETATM   15  C   UNL     1     -46.323 -51.348  14.375  1.00  0.00     0.007 A 
HETATM   16  C   UNL     1     -46.481 -52.594  13.551  1.00  0.00     0.007 A 
ENDBRANCH  13  14
BRANCH  13  17
HETATM   17  C   UNL     1     -43.736 -53.413  13.166  1.00  0.00     0.009 A 
HETATM   18  C   UNL     1     -43.503 -54.291  14.373  1.00  0.00     0.007 A 
HETATM   19  C   UNL     1     -42.412 -54.128  13.353  1.00  0.00     0.007 A 
ENDBRANCH  13  17
ENDBRANCH   3  13
TORSDOF 5
ENDMDL
MODEL 5
REMARK VINA RESULT:      -4.7      1.676      2.886
REMARK  5 active torsions:
REMARK  status: ('A' for Active; 'I' for Inactive)
REMARK    1  A    between atoms: C_2  and  C_3 
REMARK    2  A    between atoms: C_2  and  N_13 
REMARK       I    between atoms: C_3  and  N_5 
REMARK    3  A    between atoms: N_5  and  C_6 
REMARK    4  A    between atoms: C_6  and  C_7 
REMARK    5  A    between atoms: C_6  and  C_10 
ROOT
HETATM    1  C   UNL     1     -41.875 -51.949  12.949  1.00  0.00     0.240 C 
HETATM    2  O   UNL     1     -41.915 -52.361  11.790  1.00  0.00    -0.271 OA
HETATM    3  N   UNL     1     -42.954 -52.000  13.805  1.00  0.00    -0.354 N 
HETATM    4  H   UNL     1     -42.919 -51.537  14.701  1.00  0.00     0.162 HD
ENDROOT
BRANCH   1   5
HETATM    5  C   UNL     1     -40.587 -51.368  13.524  1.00  0.00     0.178 C 
HETATM    6  C   UNL     1     -40.715 -51.081  15.019  1.00  0.00     0.043 C 
BRANCH   5   7
HETATM    7  N   UNL     1     -40.126 -50.238  12.729  1.00  0.00    -0.338 N 
HETATM    8  C   UNL     1     -40.708 -49.006  12.595  1.00  0.00     0.109 A 
HETATM    9  C   UNL     1     -39.868 -48.305  11.762  1.00  0.00     0.106 A 
HETATM   10  N   UNL     1     -38.802 -49.076  11.383  1.00  0.00    -0.361 N 
HETATM   11  C   UNL     1     -38.981 -50.233  11.979  1.00  0.00     0.183 A 
ATOM     12  HN  UNL     1     -38.032 -48.809  10.770  1.00  0.00     0.166 HD
ENDBRANCH   5   7
ENDBRANCH   1   5
BRANCH   3  13
HETATM   13  C   UNL     1     -44.236 -52.528  13.387  1.00  0.00     0.092 C 
BRANCH  13  14
HETATM   14  C   UNL     1     -44.650 -53.591  14.376  1.00  0.00     0.009 A 
HETATM   15  C   UNL     1     -43.869 -54.878  14.513  1.00  0.00     0.007 A 
HETATM   16  C   UNL     1     -45.224 -54.893  13.866  1.00  0.00     0.007 A 
ENDBRANCH  13  14
BRANCH  13  17
HETATM   17  C   UNL     1     -45.286 -51.445  13.278  1.00  0.00     0.009 A 
HETATM   18  C   UNL     1     -46.574 -51.580  14.056  1.00  0.00     0.007 A 
HETATM   19  C   UNL     1     -46.611 -51.576  12.554  1.00  0.00     0.007 A 
ENDBRANCH  13  17
ENDBRANCH   3  13
TORSDOF 5
ENDMDL
MODEL 6
REMARK VINA RESULT:      -4.6      2.851      5.159
REMARK  5 active torsions:
REMARK  status: ('A' for Active; 'I' for Inactive)
REMARK    1  A    between atoms: C_2  and  C_3 
REMARK    2  A    between atoms: C_2  and  N_13 
REMARK       I    between atoms: C_3  and  N_5 
REMARK    3  A    between atoms: N_5  and  C_6 
REMARK    4  A    between atoms: C_6  and  C_7 
REMARK    5  A    between atoms: C_6  and  C_10 
ROOT
HETATM    1  C   UNL     1     -41.306 -47.856  11.142  1.00  0.00     0.240 C 
HETATM    2  O   UNL     1     -41.327 -47.471  12.311  1.00  0.00    -0.271 OA
HETATM    3  N   UNL     1     -40.867 -49.108  10.768  1.00  0.00    -0.354 N 
HETATM    4  H   UNL     1     -40.746 -49.337   9.792  1.00  0.00     0.162 HD
ENDROOT
BRANCH   1   5
HETATM    5  C   UNL     1     -41.803 -46.953  10.017  1.00  0.00     0.178 C 
HETATM    6  C   UNL     1     -41.641 -45.475  10.366  1.00  0.00     0.043 C 
BRANCH   5   7
HETATM    7  N   UNL     1     -43.147 -47.332   9.601  1.00  0.00    -0.338 N 
HETATM    8  C   UNL     1     -44.275 -47.420  10.370  1.00  0.00     0.109 A 
HETATM    9  C   UNL     1     -45.272 -47.789   9.497  1.00  0.00     0.106 A 
HETATM   10  N   UNL     1     -44.780 -47.934   8.228  1.00  0.00    -0.361 N 
HETATM   11  C   UNL     1     -43.500 -47.653   8.318  1.00  0.00     0.183 A 
ATOM     12  HN  UNL     1     -45.296 -48.202   7.391  1.00  0.00     0.166 HD
ENDBRANCH   5   7
ENDBRANCH   1   5
BRANCH   3  13
HETATM   13  C   UNL     1     -40.370 -50.064  11.735  1.00  0.00     0.092 C 
BRANCH  13  14
HETATM   14  C   UNL     1     -41.112 -51.363  11.535  1.00  0.00     0.009 A 
HETATM   15  C   UNL     1     -42.223 -51.781  12.472  1.00  0.00     0.007 A 
HETATM   16  C   UNL     1     -40.903 -52.493  12.517  1.00  0.00     0.007 A 
ENDBRANCH  13  14
BRANCH  13  17
HETATM   17  C   UNL     1     -38.876 -50.264  11.617  1.00  0.00     0.009 A 
HETATM   18  C   UNL     1     -38.083 -50.665  12.839  1.00  0.00     0.007 A 
HETATM   19  C   UNL     1     -37.818 -49.339  12.184  1.00  0.00     0.007 A 
ENDBRANCH  13  17
ENDBRANCH   3  13
TORSDOF 5
ENDMDL
MODEL 7
REMARK VINA RESULT:      -4.5      1.869      3.349
REMARK  5 active torsions:
REMARK  status: ('A' for Active; 'I' for Inactive)
REMARK    1  A    between atoms: C_2  and  C_3 
REMARK    2  A    between atoms: C_2  and  N_13 
REMARK       I    between atoms: C_3  and  N_5 
REMARK    3  A    between atoms: N_5  and  C_6 
REMARK    4  A    between atoms: C_6  and  C_7 
REMARK    5  A    between atoms: C_6  and  C_10 
ROOT
HETATM    1  C   UNL     1     -42.519 -50.605  12.565  1.00  0.00     0.240 C 
HETATM    2  O   UNL     1     -41.739 -51.366  11.992  1.00  0.00    -0.271 OA
HETATM    3  N   UNL     1     -43.711 -51.022  13.117  1.00  0.00    -0.354 N 
HETATM    4  H   UNL     1     -44.378 -50.348  13.463  1.00  0.00     0.162 HD
ENDROOT
BRANCH   1   5
HETATM    5  C   UNL     1     -42.187 -49.124  12.721  1.00  0.00     0.178 C 
HETATM    6  C   UNL     1     -42.707 -48.566  14.044  1.00  0.00     0.043 C 
BRANCH   5   7
HETATM    7  N   UNL     1     -42.598 -48.372  11.544  1.00  0.00    -0.338 N 
HETATM    8  C   UNL     1     -41.926 -48.217  10.362  1.00  0.00     0.109 A 
HETATM    9  C   UNL     1     -42.753 -47.445   9.580  1.00  0.00     0.106 A 
HETATM   10  N   UNL     1     -43.900 -47.123  10.255  1.00  0.00    -0.361 N 
HETATM   11  C   UNL     1     -43.782 -47.692  11.432  1.00  0.00     0.183 A 
ATOM     12  HN  UNL     1     -44.680 -46.561   9.915  1.00  0.00     0.166 HD
ENDBRANCH   5   7
ENDBRANCH   1   5
BRANCH   3  13
HETATM   13  C   UNL     1     -44.147 -52.401  13.041  1.00  0.00     0.092 C 
BRANCH  13  14
HETATM   14  C   UNL     1     -43.459 -53.172  14.141  1.00  0.00     0.009 A 
HETATM   15  C   UNL     1     -42.493 -54.291  13.825  1.00  0.00     0.007 A 
HETATM   16  C   UNL     1     -43.847 -54.612  14.389  1.00  0.00     0.007 A 
ENDBRANCH  13  14
BRANCH  13  17
HETATM   17  C   UNL     1     -45.650 -52.525  13.144  1.00  0.00     0.009 A 
HETATM   18  C   UNL     1     -46.528 -51.554  12.391  1.00  0.00     0.007 A 
HETATM   19  C   UNL     1     -46.562 -51.573  13.893  1.00  0.00     0.007 A 
ENDBRANCH  13  17
ENDBRANCH   3  13
TORSDOF 5
ENDMDL
MODEL 8
REMARK VINA RESULT:      -4.5      2.211      6.200
REMARK  5 active torsions:
REMARK  status: ('A' for Active; 'I' for Inactive)
REMARK    1  A    between atoms: C_2  and  C_3 
REMARK    2  A    between atoms: C_2  and  N_13 
REMARK       I    between atoms: C_3  and  N_5 
REMARK    3  A    between atoms: N_5  and  C_6 
REMARK    4  A    between atoms: C_6  and  C_7 
REMARK    5  A    between atoms: C_6  and  C_10 
ROOT
HETATM    1  C   UNL     1     -40.767 -52.314  12.952  1.00  0.00     0.240 C 
HETATM    2  O   UNL     1     -40.464 -52.880  11.902  1.00  0.00    -0.271 OA
HETATM    3  N   UNL     1     -40.578 -50.966  13.165  1.00  0.00    -0.354 N 
HETATM    4  H   UNL     1     -40.719 -50.567  14.081  1.00  0.00     0.162 HD
ENDROOT
BRANCH   1   5
HETATM    5  C   UNL     1     -41.409 -53.092  14.097  1.00  0.00     0.178 C 
HETATM    6  C   UNL     1     -40.525 -54.250  14.557  1.00  0.00     0.043 C 
BRANCH   5   7
HETATM    7  N   UNL     1     -42.776 -53.469  13.767  1.00  0.00    -0.338 N 
HETATM    8  C   UNL     1     -43.646 -52.835  12.922  1.00  0.00     0.109 A 
HETATM    9  C   UNL     1     -44.786 -53.604  12.943  1.00  0.00     0.106 A 
HETATM   10  N   UNL     1     -44.635 -54.677  13.779  1.00  0.00    -0.361 N 
HETATM   11  C   UNL     1     -43.418 -54.573  14.261  1.00  0.00     0.183 A 
ATOM     12  HN  UNL     1     -45.320 -55.404  13.983  1.00  0.00     0.166 HD
ENDBRANCH   5   7
ENDBRANCH   1   5
BRANCH   3  13
HETATM   13  C   UNL     1     -39.979 -50.111  12.160  1.00  0.00     0.092 C 
BRANCH  13  14
HETATM   14  C   UNL     1     -40.781 -48.833  12.093  1.00  0.00     0.009 A 
HETATM   15  C   UNL     1     -41.373 -48.350  10.789  1.00  0.00     0.007 A 
HETATM   16  C   UNL     1     -40.198 -47.631  11.387  1.00  0.00     0.007 A 
ENDBRANCH  13  14
BRANCH  13  17
HETATM   17  C   UNL     1     -38.523 -49.827  12.453  1.00  0.00     0.009 A 
HETATM   18  C   UNL     1     -37.516 -49.883  11.329  1.00  0.00     0.007 A 
HETATM   19  C   UNL     1     -37.412 -50.859  12.467  1.00  0.00     0.007 A 
ENDBRANCH  13  17
ENDBRANCH   3  13
TORSDOF 5
ENDMDL
MODEL 9
REMARK VINA RESULT:      -4.5      2.436      3.504
REMARK  5 active torsions:
REMARK  status: ('A' for Active; 'I' for Inactive)
REMARK    1  A    between atoms: C_2  and  C_3 
REMARK    2  A    between atoms: C_2  and  N_13 
REMARK       I    between atoms: C_3  and  N_5 
REMARK    3  A    between atoms: N_5  and  C_6 
REMARK    4  A    between atoms: C_6  and  C_7 
REMARK    5  A    between atoms: C_6  and  C_10 
ROOT
HETATM    1  C   UNL     1     -43.012 -48.769  12.310  1.00  0.00     0.240 C 
HETATM    2  O   UNL     1     -43.103 -47.950  13.224  1.00  0.00    -0.271 OA
HETATM    3  N   UNL     1     -43.501 -50.055  12.399  1.00  0.00    -0.354 N 
HETATM    4  H   UNL     1     -43.294 -50.732  11.680  1.00  0.00     0.162 HD
ENDROOT
BRANCH   1   5
HETATM    5  C   UNL     1     -42.358 -48.388  10.986  1.00  0.00     0.178 C 
HETATM    6  C   UNL     1     -40.901 -47.971  11.176  1.00  0.00     0.043 C 
BRANCH   5   7
HETATM    7  N   UNL     1     -43.175 -47.423  10.262  1.00  0.00    -0.338 N 
HETATM    8  C   UNL     1     -42.782 -46.241   9.695  1.00  0.00     0.109 A 
HETATM    9  C   UNL     1     -43.919 -45.728   9.117  1.00  0.00     0.106 A 
HETATM   10  N   UNL     1     -44.988 -46.559   9.325  1.00  0.00    -0.361 N 
HETATM   11  C   UNL     1     -44.513 -47.570  10.015  1.00  0.00     0.183 A 
ATOM     12  HN  UNL     1     -45.948 -46.421   9.010  1.00  0.00     0.166 HD
ENDBRANCH   5   7
ENDBRANCH   1   5
BRANCH   3  13
HETATM   13  C   UNL     1     -44.145 -50.546  13.599  1.00  0.00     0.092 C 
BRANCH  13  14
HETATM   14  C   UNL     1     -45.372 -51.325  13.189  1.00  0.00     0.009 A 
HETATM   15  C   UNL     1     -46.595 -51.383  14.076  1.00  0.00     0.007 A 
HETATM   16  C   UNL     1     -45.723 -52.596  13.928  1.00  0.00     0.007 A 
ENDBRANCH  13  14
BRANCH  13  17
HETATM   17  C   UNL     1     -43.214 -51.395  14.435  1.00  0.00     0.009 A 
HETATM   18  C   UNL     1     -43.137 -51.164  15.926  1.00  0.00     0.007 A 
HETATM   19  C   UNL     1     -41.925 -50.917  15.073  1.00  0.00     0.007 A 
ENDBRANCH  13  17
ENDBRANCH   3  13
TORSDOF 5
ENDMDL
