MODEL 1
REMARK VINA RESULT:      -7.2      0.000      0.000
REMARK  6 active torsions:
REMARK  status: ('A' for Active; 'I' for Inactive)
REMARK       I    between atoms: N_1  and  C_2 
REMARK    1  A    between atoms: C_2  and  C_4 
REMARK    2  A    between atoms: C_4  and  C_5 
REMARK    3  A    between atoms: N_14  and  C_15 
REMARK    4  A    between atoms: C_15  and  C_16 
REMARK    5  A    between atoms: C_16  and  O_17 
REMARK    6  A    between atoms: C_16  and  C_18 
ROOT
HETATM    1  C   UNL     1     -39.253 -48.859  12.116  1.00  0.00     0.093 A 
HETATM    2  N   UNL     1     -39.456 -47.771  11.392  1.00  0.00    -0.344 N 
ATOM      3  HN  UNL     1     -38.746 -47.140  11.021  1.00  0.00     0.167 HD
HETATM    4  C   UNL     1     -40.812 -47.664  11.241  1.00  0.00     0.060 A 
HETATM    5  C   UNL     1     -41.550 -46.691  10.551  1.00  0.00     0.032 A 
HETATM    6  C   UNL     1     -42.945 -46.790  10.535  1.00  0.00     0.002 A 
HETATM    7  C   UNL     1     -43.589 -47.839  11.191  1.00  0.00     0.002 A 
HETATM    8  C   UNL     1     -42.867 -48.821  11.879  1.00  0.00     0.032 A 
HETATM    9  C   UNL     1     -41.470 -48.704  11.888  1.00  0.00     0.062 A 
HETATM   10  N   UNL     1     -40.454 -49.456  12.444  1.00  0.00    -0.332 N 
ENDROOT
BRANCH  10  11
HETATM   11  C   UNL     1     -40.627 -50.709  13.168  1.00  0.00     0.167 C 
BRANCH  11  12
HETATM   12  C   UNL     1     -41.160 -51.853  12.282  1.00  0.00     0.172 C 
BRANCH  12  13
HETATM   13  O   UNL     1     -40.075 -52.623  11.747  1.00  0.00    -0.389 OA
HETATM   14  H   UNL     1     -39.778 -53.254  12.422  1.00  0.00     0.210 HD
ENDBRANCH  12  13
BRANCH  12  15
HETATM   15  C   UNL     1     -42.125 -52.837  12.920  1.00  0.00     0.013 A 
HETATM   16  C   UNL     1     -43.477 -52.807  12.522  1.00  0.00     0.055 A 
HETATM   17  C   UNL     1     -44.410 -53.669  13.094  1.00  0.00     0.117 A 
HETATM   18  F   UNL     1     -45.687 -53.621  12.693  1.00  0.00    -0.206 F 
HETATM   19  C   UNL     1     -44.037 -54.576  14.076  1.00  0.00     0.045 A 
HETATM   20  C   UNL     1     -42.707 -54.623  14.486  1.00  0.00     0.046 A 
HETATM   21  C   UNL     1     -41.769 -53.763  13.909  1.00  0.00     0.125 A 
HETATM   22  F   UNL     1     -40.503 -53.861  14.333  1.00  0.00    -0.205 F 
ENDBRANCH  12  15
ENDBRANCH  11  12
ENDBRANCH  10  11
BRANCH   1  23
HETATM   23  C   UNL     1     -37.897 -49.353  12.516  1.00  0.00     0.179 C 
BRANCH  23  24
HETATM   24  C   UNL     1     -37.400 -50.427  11.565  1.00  0.00     0.222 C 
HETATM   25  N   UNL     1     -37.288 -50.091  10.249  1.00  0.00    -0.370 N 
HETATM   26  H   UNL     1     -36.895 -50.763   9.607  1.00  0.00     0.159 HD
HETATM   27  H   UNL     1     -37.311 -49.109   9.974  1.00  0.00     0.159 HD
HETATM   28  O   UNL     1     -37.175 -51.576  11.938  1.00  0.00    -0.273 OA
ENDBRANCH  23  24
ENDBRANCH   1  23
TORSDOF 6
ENDMDL
MODEL 2
REMARK VINA RESULT:      -7.0      2.734      5.707
REMARK  6 active torsions:
REMARK  status: ('A' for Active; 'I' for Inactive)
REMARK       I    between atoms: N_1  and  C_2 
REMARK    1  A    between atoms: C_2  and  C_4 
REMARK    2  A    between atoms: C_4  and  C_5 
REMARK    3  A    between atoms: N_14  and  C_15 
REMARK    4  A    between atoms: C_15  and  C_16 
REMARK    5  A    between atoms: C_16  and  O_17 
REMARK    6  A    between atoms: C_16  and  C_18 
ROOT
HETATM    1  C   UNL     1     -39.529 -51.147  13.034  1.00  0.00     0.093 A 
HETATM    2  N   UNL     1     -39.613 -52.448  13.255  1.00  0.00    -0.344 N 
ATOM      3  HN  UNL     1     -38.842 -53.091  13.434  1.00  0.00     0.167 HD
HETATM    4  C   UNL     1     -40.945 -52.757  13.195  1.00  0.00     0.060 A 
HETATM    5  C   UNL     1     -41.572 -54.001  13.367  1.00  0.00     0.032 A 
HETATM    6  C   UNL     1     -42.964 -54.073  13.258  1.00  0.00     0.002 A 
HETATM    7  C   UNL     1     -43.715 -52.929  12.986  1.00  0.00     0.002 A 
HETATM    8  C   UNL     1     -43.104 -51.681  12.817  1.00  0.00     0.032 A 
HETATM    9  C   UNL     1     -41.708 -51.627  12.927  1.00  0.00     0.062 A 
HETATM   10  N   UNL     1     -40.782 -50.608  12.825  1.00  0.00    -0.332 N 
ENDROOT
BRANCH  10  11
HETATM   11  C   UNL     1     -41.094 -49.198  12.625  1.00  0.00     0.167 C 
BRANCH  11  12
HETATM   12  C   UNL     1     -40.745 -48.693  11.211  1.00  0.00     0.172 C 
BRANCH  12  13
HETATM   13  O   UNL     1     -40.658 -49.789  10.290  1.00  0.00    -0.389 OA
HETATM   14  H   UNL     1     -39.867 -50.310  10.501  1.00  0.00     0.210 HD
ENDBRANCH  12  13
BRANCH  12  15
HETATM   15  C   UNL     1     -41.674 -47.667  10.587  1.00  0.00     0.013 A 
HETATM   16  C   UNL     1     -42.535 -48.082   9.551  1.00  0.00     0.055 A 
HETATM   17  C   UNL     1     -43.389 -47.176   8.926  1.00  0.00     0.117 A 
HETATM   18  F   UNL     1     -44.201 -47.600   7.947  1.00  0.00    -0.206 F 
HETATM   19  C   UNL     1     -43.413 -45.840   9.300  1.00  0.00     0.045 A 
HETATM   20  C   UNL     1     -42.570 -45.407  10.320  1.00  0.00     0.046 A 
HETATM   21  C   UNL     1     -41.717 -46.315  10.952  1.00  0.00     0.125 A 
HETATM   22  F   UNL     1     -40.938 -45.846  11.934  1.00  0.00    -0.205 F 
ENDBRANCH  12  15
ENDBRANCH  11  12
ENDBRANCH  10  11
BRANCH   1  23
HETATM   23  C   UNL     1     -38.239 -50.387  13.016  1.00  0.00     0.179 C 
BRANCH  23  24
HETATM   24  C   UNL     1     -37.374 -50.797  11.838  1.00  0.00     0.222 C 
HETATM   25  N   UNL     1     -37.460 -50.039  10.708  1.00  0.00    -0.370 N 
HETATM   26  H   UNL     1     -36.846 -50.248   9.935  1.00  0.00     0.159 HD
HETATM   27  H   UNL     1     -37.900 -49.120  10.748  1.00  0.00     0.159 HD
HETATM   28  O   UNL     1     -36.678 -51.810  11.860  1.00  0.00    -0.273 OA
ENDBRANCH  23  24
ENDBRANCH   1  23
TORSDOF 6
ENDMDL
MODEL 3
REMARK VINA RESULT:      -6.8      3.316      5.883
REMARK  6 active torsions:
REMARK  status: ('A' for Active; 'I' for Inactive)
REMARK       I    between atoms: N_1  and  C_2 
REMARK    1  A    between atoms: C_2  and  C_4 
REMARK    2  A    between atoms: C_4  and  C_5 
REMARK    3  A    between atoms: N_14  and  C_15 
REMARK    4  A    between atoms: C_15  and  C_16 
REMARK    5  A    between atoms: C_16  and  O_17 
REMARK    6  A    between atoms: C_16  and  C_18 
ROOT
HETATM    1  C   UNL     1     -41.444 -52.283  12.623  1.00  0.00     0.093 A 
HETATM    2  N   UNL     1     -42.595 -52.342  11.975  1.00  0.00    -0.344 N 
ATOM      3  HN  UNL     1     -42.841 -51.852  11.115  1.00  0.00     0.167 HD
HETATM    4  C   UNL     1     -43.390 -53.193  12.693  1.00  0.00     0.060 A 
HETATM    5  C   UNL     1     -44.706 -53.604  12.432  1.00  0.00     0.032 A 
HETATM    6  C   UNL     1     -45.323 -54.492  13.319  1.00  0.00     0.002 A 
HETATM    7  C   UNL     1     -44.640 -54.963  14.440  1.00  0.00     0.002 A 
HETATM    8  C   UNL     1     -43.325 -54.566  14.712  1.00  0.00     0.032 A 
HETATM    9  C   UNL     1     -42.723 -53.673  13.814  1.00  0.00     0.062 A 
HETATM   10  N   UNL     1     -41.481 -53.076  13.752  1.00  0.00    -0.332 N 
ENDROOT
BRANCH  10  11
HETATM   11  C   UNL     1     -40.377 -53.322  14.672  1.00  0.00     0.167 C 
BRANCH  11  12
HETATM   12  C   UNL     1     -39.715 -54.700  14.473  1.00  0.00     0.172 C 
BRANCH  12  13
HETATM   13  O   UNL     1     -38.600 -54.599  13.577  1.00  0.00    -0.389 OA
HETATM   14  H   UNL     1     -38.062 -55.403  13.659  1.00  0.00     0.210 HD
ENDBRANCH  12  13
BRANCH  12  15
HETATM   15  C   UNL     1     -39.218 -55.420  15.713  1.00  0.00     0.013 A 
HETATM   16  C   UNL     1     -37.845 -55.357  16.024  1.00  0.00     0.055 A 
HETATM   17  C   UNL     1     -37.331 -56.022  17.135  1.00  0.00     0.117 A 
HETATM   18  F   UNL     1     -36.022 -55.940  17.408  1.00  0.00    -0.206 F 
HETATM   19  C   UNL     1     -38.155 -56.771  17.964  1.00  0.00     0.045 A 
HETATM   20  C   UNL     1     -39.515 -56.850  17.676  1.00  0.00     0.046 A 
HETATM   21  C   UNL     1     -40.032 -56.178  16.565  1.00  0.00     0.125 A 
HETATM   22  F   UNL     1     -41.349 -56.279  16.344  1.00  0.00    -0.205 F 
ENDBRANCH  12  15
ENDBRANCH  11  12
ENDBRANCH  10  11
BRANCH   1  23
HETATM   23  C   UNL     1     -40.277 -51.459  12.174  1.00  0.00     0.179 C 
BRANCH  23  24
HETATM   24  C   UNL     1     -40.732 -50.151  11.553  1.00  0.00     0.222 C 
HETATM   25  N   UNL     1     -40.327 -49.893  10.277  1.00  0.00    -0.370 N 
HETATM   26  H   UNL     1     -40.671 -49.064   9.816  1.00  0.00     0.159 HD
HETATM   27  H   UNL     1     -39.945 -50.647   9.706  1.00  0.00     0.159 HD
HETATM   28  O   UNL     1     -41.375 -49.316  12.186  1.00  0.00    -0.273 OA
ENDBRANCH  23  24
ENDBRANCH   1  23
TORSDOF 6
ENDMDL
MODEL 4
REMARK VINA RESULT:      -6.7      5.225      8.580
REMARK  6 active torsions:
REMARK  status: ('A' for Active; 'I' for Inactive)
REMARK       I    between atoms: N_1  and  C_2 
REMARK    1  A    between atoms: C_2  and  C_4 
REMARK    2  A    between atoms: C_4  and  C_5 
REMARK    3  A    between atoms: N_14  and  C_15 
REMARK    4  A    between atoms: C_15  and  C_16 
REMARK    5  A    between atoms: C_16  and  O_17 
REMARK    6  A    between atoms: C_16  and  C_18 
ROOT
HETATM    1  C   UNL     1     -42.394 -47.915  10.642  1.00  0.00     0.093 A 
HETATM    2  N   UNL     1     -41.806 -49.093  10.520  1.00  0.00    -0.344 N 
ATOM      3  HN  UNL     1     -42.122 -49.881   9.955  1.00  0.00     0.167 HD
HETATM    4  C   UNL     1     -40.687 -49.040  11.305  1.00  0.00     0.060 A 
HETATM    5  C   UNL     1     -39.712 -50.026  11.522  1.00  0.00     0.032 A 
HETATM    6  C   UNL     1     -38.644 -49.741  12.378  1.00  0.00     0.002 A 
HETATM    7  C   UNL     1     -38.549 -48.497  13.003  1.00  0.00     0.002 A 
HETATM    8  C   UNL     1     -39.510 -47.501  12.793  1.00  0.00     0.032 A 
HETATM    9  C   UNL     1     -40.576 -47.805  11.934  1.00  0.00     0.062 A 
HETATM   10  N   UNL     1     -41.680 -47.101  11.498  1.00  0.00    -0.332 N 
ENDROOT
BRANCH  10  11
HETATM   11  C   UNL     1     -41.978 -45.711  11.819  1.00  0.00     0.167 C 
BRANCH  11  12
HETATM   12  C   UNL     1     -40.983 -44.715  11.189  1.00  0.00     0.172 C 
BRANCH  12  13
HETATM   13  O   UNL     1     -40.858 -44.950   9.780  1.00  0.00    -0.389 OA
HETATM   14  H   UNL     1     -40.519 -44.144   9.359  1.00  0.00     0.210 HD
ENDBRANCH  12  13
BRANCH  12  15
HETATM   15  C   UNL     1     -41.272 -43.236  11.365  1.00  0.00     0.013 A 
HETATM   16  C   UNL     1     -40.287 -42.424  11.963  1.00  0.00     0.055 A 
HETATM   17  C   UNL     1     -40.511 -41.065  12.173  1.00  0.00     0.117 A 
HETATM   18  F   UNL     1     -39.554 -40.317  12.739  1.00  0.00    -0.206 F 
HETATM   19  C   UNL     1     -41.711 -40.473  11.805  1.00  0.00     0.045 A 
HETATM   20  C   UNL     1     -42.700 -41.255  11.214  1.00  0.00     0.046 A 
HETATM   21  C   UNL     1     -42.474 -42.617  10.998  1.00  0.00     0.125 A 
HETATM   22  F   UNL     1     -43.455 -43.317  10.415  1.00  0.00    -0.205 F 
ENDBRANCH  12  15
ENDBRANCH  11  12
ENDBRANCH  10  11
BRANCH   1  23
HETATM   23  C   UNL     1     -43.662 -47.540   9.939  1.00  0.00     0.179 C 
BRANCH  23  24
HETATM   24  C   UNL     1     -43.381 -46.965   8.563  1.00  0.00     0.222 C 
HETATM   25  N   UNL     1     -43.209 -47.850   7.541  1.00  0.00    -0.370 N 
HETATM   26  H   UNL     1     -43.089 -47.494   6.604  1.00  0.00     0.159 HD
HETATM   27  H   UNL     1     -43.492 -48.822   7.661  1.00  0.00     0.159 HD
HETATM   28  O   UNL     1     -43.236 -45.758   8.377  1.00  0.00    -0.273 OA
ENDBRANCH  23  24
ENDBRANCH   1  23
TORSDOF 6
ENDMDL
MODEL 5
REMARK VINA RESULT:      -6.7      2.827      6.245
REMARK  6 active torsions:
REMARK  status: ('A' for Active; 'I' for Inactive)
REMARK       I    between atoms: N_1  and  C_2 
REMARK    1  A    between atoms: C_2  and  C_4 
REMARK    2  A    between atoms: C_4  and  C_5 
REMARK    3  A    between atoms: N_14  and  C_15 
REMARK    4  A    between atoms: C_15  and  C_16 
REMARK    5  A    between atoms: C_16  and  O_17 
REMARK    6  A    between atoms: C_16  and  C_18 
ROOT
HETATM    1  C   UNL     1     -39.480 -51.235  13.241  1.00  0.00     0.093 A 
HETATM    2  N   UNL     1     -39.288 -52.428  13.779  1.00  0.00    -0.344 N 
ATOM      3  HN  UNL     1     -38.399 -52.833  14.071  1.00  0.00     0.167 HD
HETATM    4  C   UNL     1     -40.524 -53.009  13.864  1.00  0.00     0.060 A 
HETATM    5  C   UNL     1     -40.875 -54.270  14.368  1.00  0.00     0.032 A 
HETATM    6  C   UNL     1     -42.220 -54.652  14.351  1.00  0.00     0.002 A 
HETATM    7  C   UNL     1     -43.195 -53.791  13.845  1.00  0.00     0.002 A 
HETATM    8  C   UNL     1     -42.862 -52.527  13.344  1.00  0.00     0.032 A 
HETATM    9  C   UNL     1     -41.508 -52.162  13.366  1.00  0.00     0.062 A 
HETATM   10  N   UNL     1     -40.818 -51.034  12.969  1.00  0.00    -0.332 N 
ENDROOT
BRANCH  10  11
HETATM   11  C   UNL     1     -41.420 -49.815  12.445  1.00  0.00     0.167 C 
BRANCH  11  12
HETATM   12  C   UNL     1     -40.558 -49.124  11.370  1.00  0.00     0.172 C 
BRANCH  12  13
HETATM   13  O   UNL     1     -40.585 -49.871  10.146  1.00  0.00    -0.389 OA
HETATM   14  H   UNL     1     -40.604 -49.249   9.402  1.00  0.00     0.210 HD
ENDBRANCH  12  13
BRANCH  12  15
HETATM   15  C   UNL     1     -40.902 -47.689  11.016  1.00  0.00     0.013 A 
HETATM   16  C   UNL     1     -39.950 -46.683  11.282  1.00  0.00     0.055 A 
HETATM   17  C   UNL     1     -40.224 -45.347  11.002  1.00  0.00     0.117 A 
HETATM   18  F   UNL     1     -39.298 -44.414  11.260  1.00  0.00    -0.206 F 
HETATM   19  C   UNL     1     -41.445 -44.965  10.461  1.00  0.00     0.045 A 
HETATM   20  C   UNL     1     -42.401 -45.940  10.192  1.00  0.00     0.046 A 
HETATM   21  C   UNL     1     -42.125 -47.282  10.466  1.00  0.00     0.125 A 
HETATM   22  F   UNL     1     -43.077 -48.178  10.176  1.00  0.00    -0.205 F 
ENDBRANCH  12  15
ENDBRANCH  11  12
ENDBRANCH  10  11
BRANCH   1  23
HETATM   23  C   UNL     1     -38.380 -50.256  12.971  1.00  0.00     0.179 C 
BRANCH  23  24
HETATM   24  C   UNL     1     -37.426 -50.777  11.911  1.00  0.00     0.222 C 
HETATM   25  N   UNL     1     -37.413 -50.130  10.711  1.00  0.00    -0.370 N 
HETATM   26  H   UNL     1     -36.740 -50.412  10.014  1.00  0.00     0.159 HD
HETATM   27  H   UNL     1     -37.845 -49.210  10.629  1.00  0.00     0.159 HD
HETATM   28  O   UNL     1     -36.744 -51.785  12.085  1.00  0.00    -0.273 OA
ENDBRANCH  23  24
ENDBRANCH   1  23
TORSDOF 6
ENDMDL
MODEL 6
REMARK VINA RESULT:      -6.7      3.556      5.706
REMARK  6 active torsions:
REMARK  status: ('A' for Active; 'I' for Inactive)
REMARK       I    between atoms: N_1  and  C_2 
REMARK    1  A    between atoms: C_2  and  C_4 
REMARK    2  A    between atoms: C_4  and  C_5 
REMARK    3  A    between atoms: N_14  and  C_15 
REMARK    4  A    between atoms: C_15  and  C_16 
REMARK    5  A    between atoms: C_16  and  O_17 
REMARK    6  A    between atoms: C_16  and  C_18 
ROOT
HETATM    1  C   UNL     1     -43.314 -46.664  10.293  1.00  0.00     0.093 A 
HETATM    2  N   UNL     1     -43.401 -45.361  10.506  1.00  0.00    -0.344 N 
ATOM      3  HN  UNL     1     -44.234 -44.779  10.413  1.00  0.00     0.167 HD
HETATM    4  C   UNL     1     -42.149 -44.953  10.877  1.00  0.00     0.060 A 
HETATM    5  C   UNL     1     -41.705 -43.668  11.222  1.00  0.00     0.032 A 
HETATM    6  C   UNL     1     -40.362 -43.490  11.570  1.00  0.00     0.002 A 
HETATM    7  C   UNL     1     -39.483 -44.573  11.578  1.00  0.00     0.002 A 
HETATM    8  C   UNL     1     -39.912 -45.863  11.242  1.00  0.00     0.032 A 
HETATM    9  C   UNL     1     -41.260 -46.022  10.892  1.00  0.00     0.062 A 
HETATM   10  N   UNL     1     -42.025 -47.106  10.513  1.00  0.00    -0.332 N 
ENDROOT
BRANCH  10  11
HETATM   11  C   UNL     1     -41.563 -48.488  10.450  1.00  0.00     0.167 C 
BRANCH  11  12
HETATM   12  C   UNL     1     -41.511 -49.174  11.830  1.00  0.00     0.172 C 
BRANCH  12  13
HETATM   13  O   UNL     1     -42.350 -50.337  11.846  1.00  0.00    -0.389 OA
HETATM   14  H   UNL     1     -41.940 -51.008  12.414  1.00  0.00     0.210 HD
ENDBRANCH  12  13
BRANCH  12  15
HETATM   15  C   UNL     1     -40.149 -49.607  12.342  1.00  0.00     0.013 A 
HETATM   16  C   UNL     1     -39.053 -49.568  11.456  1.00  0.00     0.055 A 
HETATM   17  C   UNL     1     -37.787 -49.980  11.866  1.00  0.00     0.117 A 
HETATM   18  F   UNL     1     -36.763 -49.926  11.004  1.00  0.00    -0.206 F 
HETATM   19  C   UNL     1     -37.570 -50.447  13.155  1.00  0.00     0.045 A 
HETATM   20  C   UNL     1     -38.638 -50.497  14.047  1.00  0.00     0.046 A 
HETATM   21  C   UNL     1     -39.907 -50.079  13.639  1.00  0.00     0.125 A 
HETATM   22  F   UNL     1     -40.893 -50.137  14.542  1.00  0.00    -0.205 F 
ENDBRANCH  12  15
ENDBRANCH  11  12
ENDBRANCH  10  11
BRANCH   1  23
HETATM   23  C   UNL     1     -44.468 -47.518   9.870  1.00  0.00     0.179 C 
BRANCH  23  24
HETATM   24  C   UNL     1     -44.483 -47.718   8.365  1.00  0.00     0.222 C 
HETATM   25  N   UNL     1     -45.617 -48.240   7.816  1.00  0.00    -0.370 N 
HETATM   26  H   UNL     1     -45.679 -48.319   6.812  1.00  0.00     0.159 HD
HETATM   27  H   UNL     1     -46.477 -48.264   8.363  1.00  0.00     0.159 HD
HETATM   28  O   UNL     1     -43.496 -47.495   7.667  1.00  0.00    -0.273 OA
ENDBRANCH  23  24
ENDBRANCH   1  23
TORSDOF 6
ENDMDL
MODEL 7
REMARK VINA RESULT:      -6.6      2.541      4.660
REMARK  6 active torsions:
REMARK  status: ('A' for Active; 'I' for Inactive)
REMARK       I    between atoms: N_1  and  C_2 
REMARK    1  A    between atoms: C_2  and  C_4 
REMARK    2  A    between atoms: C_4  and  C_5 
REMARK    3  A    between atoms: N_14  and  C_15 
REMARK    4  A    between atoms: C_15  and  C_16 
REMARK    5  A    between atoms: C_16  and  O_17 
REMARK    6  A    between atoms: C_16  and  C_18 
ROOT
HETATM    1  C   UNL     1     -39.334 -51.437  13.388  1.00  0.00     0.093 A 
HETATM    2  N   UNL     1     -38.711 -52.123  14.331  1.00  0.00    -0.344 N 
ATOM      3  HN  UNL     1     -37.768 -51.963  14.684  1.00  0.00     0.167 HD
HETATM    4  C   UNL     1     -39.589 -53.091  14.737  1.00  0.00     0.060 A 
HETATM    5  C   UNL     1     -39.422 -54.078  15.720  1.00  0.00     0.032 A 
HETATM    6  C   UNL     1     -40.472 -54.970  15.964  1.00  0.00     0.002 A 
HETATM    7  C   UNL     1     -41.663 -54.877  15.244  1.00  0.00     0.002 A 
HETATM    8  C   UNL     1     -41.846 -53.894  14.263  1.00  0.00     0.032 A 
HETATM    9  C   UNL     1     -40.783 -53.011  14.030  1.00  0.00     0.062 A 
HETATM   10  N   UNL     1     -40.598 -51.947  13.170  1.00  0.00    -0.332 N 
ENDROOT
BRANCH  10  11
HETATM   11  C   UNL     1     -41.604 -51.408  12.262  1.00  0.00     0.167 C 
BRANCH  11  12
HETATM   12  C   UNL     1     -42.439 -50.273  12.885  1.00  0.00     0.172 C 
BRANCH  12  13
HETATM   13  O   UNL     1     -42.948 -49.403  11.865  1.00  0.00    -0.389 OA
HETATM   14  H   UNL     1     -43.581 -49.899  11.321  1.00  0.00     0.210 HD
ENDBRANCH  12  13
BRANCH  12  15
HETATM   15  C   UNL     1     -43.618 -50.670  13.754  1.00  0.00     0.013 A 
HETATM   16  C   UNL     1     -44.855 -50.935  13.130  1.00  0.00     0.055 A 
HETATM   17  C   UNL     1     -45.976 -51.278  13.882  1.00  0.00     0.117 A 
HETATM   18  F   UNL     1     -47.136 -51.530  13.261  1.00  0.00    -0.206 F 
HETATM   19  C   UNL     1     -45.911 -51.361  15.266  1.00  0.00     0.045 A 
HETATM   20  C   UNL     1     -44.701 -51.103  15.904  1.00  0.00     0.046 A 
HETATM   21  C   UNL     1     -43.574 -50.764  15.151  1.00  0.00     0.125 A 
HETATM   22  F   UNL     1     -42.435 -50.538  15.817  1.00  0.00    -0.205 F 
ENDBRANCH  12  15
ENDBRANCH  11  12
ENDBRANCH  10  11
BRANCH   1  23
HETATM   23  C   UNL     1     -38.730 -50.272  12.668  1.00  0.00     0.179 C 
BRANCH  23  24
HETATM   24  C   UNL     1     -37.574 -50.709  11.785  1.00  0.00     0.222 C 
HETATM   25  N   UNL     1     -37.464 -50.115  10.563  1.00  0.00    -0.370 N 
HETATM   26  H   UNL     1     -36.667 -50.336   9.985  1.00  0.00     0.159 HD
HETATM   27  H   UNL     1     -37.989 -49.263  10.366  1.00  0.00     0.159 HD
HETATM   28  O   UNL     1     -36.807 -51.611  12.113  1.00  0.00    -0.273 OA
ENDBRANCH  23  24
ENDBRANCH   1  23
TORSDOF 6
ENDMDL
MODEL 8
REMARK VINA RESULT:      -6.6      2.617      5.495
REMARK  6 active torsions:
REMARK  status: ('A' for Active; 'I' for Inactive)
REMARK       I    between atoms: N_1  and  C_2 
REMARK    1  A    between atoms: C_2  and  C_4 
REMARK    2  A    between atoms: C_4  and  C_5 
REMARK    3  A    between atoms: N_14  and  C_15 
REMARK    4  A    between atoms: C_15  and  C_16 
REMARK    5  A    between atoms: C_16  and  O_17 
REMARK    6  A    between atoms: C_16  and  C_18 
ROOT
HETATM    1  C   UNL     1     -42.772 -50.456  12.589  1.00  0.00     0.093 A 
HETATM    2  N   UNL     1     -44.005 -50.188  12.983  1.00  0.00    -0.344 N 
ATOM      3  HN  UNL     1     -44.426 -49.265  13.094  1.00  0.00     0.167 HD
HETATM    4  C   UNL     1     -44.602 -51.397  13.211  1.00  0.00     0.060 A 
HETATM    5  C   UNL     1     -45.911 -51.671  13.636  1.00  0.00     0.032 A 
HETATM    6  C   UNL     1     -46.301 -53.003  13.802  1.00  0.00     0.002 A 
HETATM    7  C   UNL     1     -45.405 -54.041  13.546  1.00  0.00     0.002 A 
HETATM    8  C   UNL     1     -44.097 -53.785  13.117  1.00  0.00     0.032 A 
HETATM    9  C   UNL     1     -43.722 -52.443  12.958  1.00  0.00     0.062 A 
HETATM   10  N   UNL     1     -42.556 -51.819  12.565  1.00  0.00    -0.332 N 
ENDROOT
BRANCH  10  11
HETATM   11  C   UNL     1     -41.345 -52.495  12.114  1.00  0.00     0.167 C 
BRANCH  11  12
HETATM   12  C   UNL     1     -40.413 -52.908  13.270  1.00  0.00     0.172 C 
BRANCH  12  13
HETATM   13  O   UNL     1     -39.702 -54.109  12.940  1.00  0.00    -0.389 OA
HETATM   14  H   UNL     1     -38.786 -54.023  13.250  1.00  0.00     0.210 HD
ENDBRANCH  12  13
BRANCH  12  15
HETATM   15  C   UNL     1     -39.379 -51.896  13.727  1.00  0.00     0.013 A 
HETATM   16  C   UNL     1     -38.772 -51.069  12.759  1.00  0.00     0.055 A 
HETATM   17  C   UNL     1     -37.798 -50.142  13.121  1.00  0.00     0.117 A 
HETATM   18  F   UNL     1     -37.243 -49.366  12.180  1.00  0.00    -0.206 F 
HETATM   19  C   UNL     1     -37.390 -50.010  14.441  1.00  0.00     0.045 A 
HETATM   20  C   UNL     1     -37.973 -50.817  15.414  1.00  0.00     0.046 A 
HETATM   21  C   UNL     1     -38.956 -51.744  15.054  1.00  0.00     0.125 A 
HETATM   22  F   UNL     1     -39.490 -52.484  16.033  1.00  0.00    -0.205 F 
ENDBRANCH  12  15
ENDBRANCH  11  12
ENDBRANCH  10  11
BRANCH   1  23
HETATM   23  C   UNL     1     -41.765 -49.408  12.229  1.00  0.00     0.179 C 
BRANCH  23  24
HETATM   24  C   UNL     1     -42.281 -48.506  11.122  1.00  0.00     0.222 C 
HETATM   25  N   UNL     1     -41.567 -48.472   9.961  1.00  0.00    -0.370 N 
HETATM   26  H   UNL     1     -41.924 -47.935   9.185  1.00  0.00     0.159 HD
HETATM   27  H   UNL     1     -40.870 -49.193   9.776  1.00  0.00     0.159 HD
HETATM   28  O   UNL     1     -43.257 -47.775  11.277  1.00  0.00    -0.273 OA
ENDBRANCH  23  24
ENDBRANCH   1  23
TORSDOF 6
ENDMDL
MODEL 9
REMARK VINA RESULT:      -6.6      3.896      6.621
REMARK  6 active torsions:
REMARK  status: ('A' for Active; 'I' for Inactive)
REMARK       I    between atoms: N_1  and  C_2 
REMARK    1  A    between atoms: C_2  and  C_4 
REMARK    2  A    between atoms: C_4  and  C_5 
REMARK    3  A    between atoms: N_14  and  C_15 
REMARK    4  A    between atoms: C_15  and  C_16 
REMARK    5  A    between atoms: C_16  and  O_17 
REMARK    6  A    between atoms: C_16  and  C_18 
ROOT
HETATM    1  C   UNL     1     -42.836 -54.008  13.998  1.00  0.00     0.093 A 
HETATM    2  N   UNL     1     -42.126 -54.701  14.872  1.00  0.00    -0.344 N 
ATOM      3  HN  UNL     1     -42.357 -55.614  15.263  1.00  0.00     0.167 HD
HETATM    4  C   UNL     1     -41.018 -53.946  15.144  1.00  0.00     0.060 A 
HETATM    5  C   UNL     1     -39.944 -54.229  16.001  1.00  0.00     0.032 A 
HETATM    6  C   UNL     1     -38.912 -53.293  16.121  1.00  0.00     0.002 A 
HETATM    7  C   UNL     1     -38.949 -52.101  15.397  1.00  0.00     0.002 A 
HETATM    8  C   UNL     1     -40.011 -51.805  14.534  1.00  0.00     0.032 A 
HETATM    9  C   UNL     1     -41.039 -52.754  14.429  1.00  0.00     0.062 A 
HETATM   10  N   UNL     1     -42.212 -52.812  13.704  1.00  0.00    -0.332 N 
ENDROOT
BRANCH  10  11
HETATM   11  C   UNL     1     -42.655 -51.822  12.731  1.00  0.00     0.167 C 
BRANCH  11  12
HETATM   12  C   UNL     1     -43.306 -50.582  13.378  1.00  0.00     0.172 C 
BRANCH  12  13
HETATM   13  O   UNL     1     -43.655 -49.616  12.377  1.00  0.00    -0.389 OA
HETATM   14  H   UNL     1     -44.429 -49.941  11.889  1.00  0.00     0.210 HD
ENDBRANCH  12  13
BRANCH  12  15
HETATM   15  C   UNL     1     -44.545 -50.807  14.224  1.00  0.00     0.013 A 
HETATM   16  C   UNL     1     -44.459 -50.591  15.615  1.00  0.00     0.055 A 
HETATM   17  C   UNL     1     -45.559 -50.808  16.442  1.00  0.00     0.117 A 
HETATM   18  F   UNL     1     -45.449 -50.589  17.759  1.00  0.00    -0.206 F 
HETATM   19  C   UNL     1     -46.768 -51.250  15.922  1.00  0.00     0.045 A 
HETATM   20  C   UNL     1     -46.876 -51.472  14.552  1.00  0.00     0.046 A 
HETATM   21  C   UNL     1     -45.776 -51.249  13.721  1.00  0.00     0.125 A 
HETATM   22  F   UNL     1     -45.941 -51.468  12.410  1.00  0.00    -0.205 F 
ENDBRANCH  12  15
ENDBRANCH  11  12
ENDBRANCH  10  11
BRANCH   1  23
HETATM   23  C   UNL     1     -44.137 -54.475  13.423  1.00  0.00     0.179 C 
BRANCH  23  24
HETATM   24  C   UNL     1     -45.173 -54.696  14.511  1.00  0.00     0.222 C 
HETATM   25  N   UNL     1     -46.415 -55.094  14.117  1.00  0.00    -0.370 N 
HETATM   26  H   UNL     1     -47.102 -55.314  14.823  1.00  0.00     0.159 HD
HETATM   27  H   UNL     1     -46.556 -55.450  13.171  1.00  0.00     0.159 HD
HETATM   28  O   UNL     1     -44.938 -54.456  15.694  1.00  0.00    -0.273 OA
ENDBRANCH  23  24
ENDBRANCH   1  23
TORSDOF 6
ENDMDL
