MODEL 1
REMARK VINA RESULT:      -5.2      0.000      0.000
REMARK  3 active torsions:
REMARK  status: ('A' for Active; 'I' for Inactive)
REMARK    1  A    between atoms: C_2  and  N_4 
REMARK       I    between atoms: N_4  and  C_5 
REMARK    2  A    between atoms: C_5  and  C_7 
REMARK    3  A    between atoms: C_7  and  N_8 
ROOT
HETATM    1  N   UNL     1     -44.501 -54.171  13.704  1.00  0.00    -0.301 N 
HETATM    2  C   UNL     1     -43.289 -54.477  14.291  1.00  0.00     0.102 A 
HETATM    3  C   UNL     1     -42.133 -54.053  13.776  1.00  0.00     0.092 A 
HETATM    4  C   UNL     1     -42.156 -53.239  12.550  1.00  0.00     0.250 A 
HETATM    5  O   UNL     1     -41.125 -52.780  12.076  1.00  0.00    -0.268 OA
HETATM    6  N   UNL     1     -43.387 -53.024  12.003  1.00  0.00    -0.275 N 
HETATM    7  C   UNL     1     -44.582 -53.388  12.561  1.00  0.00     0.329 A 
HETATM    8  O   UNL     1     -45.647 -52.997  12.082  1.00  0.00    -0.246 OA
HETATM    9  H   UNL     1     -43.425 -52.436  11.185  1.00  0.00     0.173 HD
ENDROOT
BRANCH   1  10
HETATM   10  C   UNL     1     -45.743 -54.617  14.340  1.00  0.00     0.235 C 
BRANCH  10  11
HETATM   11  C   UNL     1     -45.952 -53.934  15.692  1.00  0.00     0.236 C 
HETATM   12  N   UNL     1     -46.229 -52.584  15.617  1.00  0.00    -0.356 N 
HETATM   13  H   UNL     1     -46.422 -52.191  14.696  1.00  0.00     0.162 HD
HETATM   14  O   UNL     1     -45.912 -54.560  16.748  1.00  0.00    -0.272 OA
BRANCH  12  15
HETATM   15  C   UNL     1     -46.492 -51.771  16.792  1.00  0.00     0.076 C 
HETATM   16  C   UNL     1     -45.497 -50.616  16.855  1.00  0.00     0.032 C 
HETATM   17  C   UNL     1     -47.928 -51.255  16.787  1.00  0.00     0.032 C 
ENDBRANCH  12  15
ENDBRANCH  10  11
ENDBRANCH   1  10
TORSDOF 3
ENDMDL
MODEL 2
REMARK VINA RESULT:      -4.9      8.457      9.994
REMARK  3 active torsions:
REMARK  status: ('A' for Active; 'I' for Inactive)
REMARK    1  A    between atoms: C_2  and  N_4 
REMARK       I    between atoms: N_4  and  C_5 
REMARK    2  A    between atoms: C_5  and  C_7 
REMARK    3  A    between atoms: C_7  and  N_8 
ROOT
HETATM    1  N   UNL     1     -42.293 -46.348  10.444  1.00  0.00    -0.301 N 
HETATM    2  C   UNL     1     -43.256 -45.680   9.713  1.00  0.00     0.102 A 
HETATM    3  C   UNL     1     -43.880 -46.256   8.683  1.00  0.00     0.092 A 
HETATM    4  C   UNL     1     -43.529 -47.638   8.322  1.00  0.00     0.250 A 
HETATM    5  O   UNL     1     -44.116 -48.226   7.423  1.00  0.00    -0.268 OA
HETATM    6  N   UNL     1     -42.533 -48.211   9.058  1.00  0.00    -0.275 N 
HETATM    7  C   UNL     1     -41.940 -47.659  10.161  1.00  0.00     0.329 A 
HETATM    8  O   UNL     1     -41.177 -48.322  10.865  1.00  0.00    -0.246 OA
HETATM    9  H   UNL     1     -42.307 -49.171   8.849  1.00  0.00     0.173 HD
ENDROOT
BRANCH   1  10
HETATM   10  C   UNL     1     -41.677 -45.688  11.598  1.00  0.00     0.235 C 
BRANCH  10  11
HETATM   11  C   UNL     1     -40.950 -44.408  11.184  1.00  0.00     0.236 C 
HETATM   12  N   UNL     1     -41.218 -43.312  11.978  1.00  0.00    -0.356 N 
HETATM   13  H   UNL     1     -41.737 -43.469  12.842  1.00  0.00     0.162 HD
HETATM   14  O   UNL     1     -40.163 -44.386  10.240  1.00  0.00    -0.272 OA
BRANCH  12  15
HETATM   15  C   UNL     1     -40.595 -42.017  11.763  1.00  0.00     0.076 C 
HETATM   16  C   UNL     1     -41.662 -40.976  11.442  1.00  0.00     0.032 C 
HETATM   17  C   UNL     1     -39.775 -41.599  12.980  1.00  0.00     0.032 C 
ENDBRANCH  12  15
ENDBRANCH  10  11
ENDBRANCH   1  10
TORSDOF 3
ENDMDL
MODEL 3
REMARK VINA RESULT:      -4.9      6.895      8.844
REMARK  3 active torsions:
REMARK  status: ('A' for Active; 'I' for Inactive)
REMARK    1  A    between atoms: C_2  and  N_4 
REMARK       I    between atoms: N_4  and  C_5 
REMARK    2  A    between atoms: C_5  and  C_7 
REMARK    3  A    between atoms: C_7  and  N_8 
ROOT
HETATM    1  N   UNL     1     -43.491 -46.440   9.806  1.00  0.00    -0.301 N 
HETATM    2  C   UNL     1     -43.998 -47.717   9.944  1.00  0.00     0.102 A 
HETATM    3  C   UNL     1     -45.254 -48.014   9.604  1.00  0.00     0.092 A 
HETATM    4  C   UNL     1     -46.116 -46.949   9.068  1.00  0.00     0.250 A 
HETATM    5  O   UNL     1     -47.256 -47.187   8.689  1.00  0.00    -0.268 OA
HETATM    6  N   UNL     1     -45.559 -45.705   9.011  1.00  0.00    -0.275 N 
HETATM    7  C   UNL     1     -44.252 -45.404   9.285  1.00  0.00     0.329 A 
HETATM    8  O   UNL     1     -43.797 -44.287   9.036  1.00  0.00    -0.246 OA
HETATM    9  H   UNL     1     -46.123 -44.971   8.611  1.00  0.00     0.173 HD
ENDROOT
BRANCH   1  10
HETATM   10  C   UNL     1     -42.089 -46.181  10.144  1.00  0.00     0.235 C 
BRANCH  10  11
HETATM   11  C   UNL     1     -41.620 -47.073  11.295  1.00  0.00     0.236 C 
HETATM   12  N   UNL     1     -40.751 -48.078  10.925  1.00  0.00    -0.356 N 
HETATM   13  H   UNL     1     -40.376 -48.055   9.977  1.00  0.00     0.162 HD
HETATM   14  O   UNL     1     -41.970 -46.870  12.455  1.00  0.00    -0.272 OA
BRANCH  12  15
HETATM   15  C   UNL     1     -40.171 -49.004  11.883  1.00  0.00     0.076 C 
HETATM   16  C   UNL     1     -40.723 -50.406  11.647  1.00  0.00     0.032 C 
HETATM   17  C   UNL     1     -38.647 -48.996  11.793  1.00  0.00     0.032 C 
ENDBRANCH  12  15
ENDBRANCH  10  11
ENDBRANCH   1  10
TORSDOF 3
ENDMDL
MODEL 4
REMARK VINA RESULT:      -4.9      3.841      6.026
REMARK  3 active torsions:
REMARK  status: ('A' for Active; 'I' for Inactive)
REMARK    1  A    between atoms: C_2  and  N_4 
REMARK       I    between atoms: N_4  and  C_5 
REMARK    2  A    between atoms: C_5  and  C_7 
REMARK    3  A    between atoms: C_7  and  N_8 
ROOT
HETATM    1  N   UNL     1     -42.821 -51.100  12.768  1.00  0.00    -0.301 N 
HETATM    2  C   UNL     1     -44.107 -51.098  13.269  1.00  0.00     0.102 A 
HETATM    3  C   UNL     1     -44.880 -52.186  13.225  1.00  0.00     0.092 A 
HETATM    4  C   UNL     1     -44.340 -53.417  12.626  1.00  0.00     0.250 A 
HETATM    5  O   UNL     1     -44.991 -54.454  12.617  1.00  0.00    -0.268 OA
HETATM    6  N   UNL     1     -43.082 -53.323  12.107  1.00  0.00    -0.275 N 
HETATM    7  C   UNL     1     -42.255 -52.239  12.213  1.00  0.00     0.329 A 
HETATM    8  O   UNL     1     -41.075 -52.309  11.869  1.00  0.00    -0.246 OA
HETATM    9  H   UNL     1     -42.683 -54.168  11.728  1.00  0.00     0.173 HD
ENDROOT
BRANCH   1  10
HETATM   10  C   UNL     1     -41.998 -49.894  12.889  1.00  0.00     0.235 C 
BRANCH  10  11
HETATM   11  C   UNL     1     -41.978 -49.100  11.582  1.00  0.00     0.236 C 
HETATM   12  N   UNL     1     -43.127 -48.379  11.331  1.00  0.00    -0.356 N 
HETATM   13  H   UNL     1     -43.814 -48.306  12.081  1.00  0.00     0.162 HD
HETATM   14  O   UNL     1     -40.994 -49.086  10.847  1.00  0.00    -0.272 OA
BRANCH  12  15
HETATM   15  C   UNL     1     -43.282 -47.536  10.157  1.00  0.00     0.076 C 
HETATM   16  C   UNL     1     -44.747 -47.505   9.733  1.00  0.00     0.032 C 
HETATM   17  C   UNL     1     -42.763 -46.127  10.426  1.00  0.00     0.032 C 
ENDBRANCH  12  15
ENDBRANCH  10  11
ENDBRANCH   1  10
TORSDOF 3
ENDMDL
MODEL 5
REMARK VINA RESULT:      -4.8      6.458      8.412
REMARK  3 active torsions:
REMARK  status: ('A' for Active; 'I' for Inactive)
REMARK    1  A    between atoms: C_2  and  N_4 
REMARK       I    between atoms: N_4  and  C_5 
REMARK    2  A    between atoms: C_5  and  C_7 
REMARK    3  A    between atoms: C_7  and  N_8 
ROOT
HETATM    1  N   UNL     1     -41.874 -47.618  11.603  1.00  0.00    -0.301 N 
HETATM    2  C   UNL     1     -43.183 -47.859  11.240  1.00  0.00     0.102 A 
HETATM    3  C   UNL     1     -43.741 -47.262  10.184  1.00  0.00     0.092 A 
HETATM    4  C   UNL     1     -42.932 -46.322   9.391  1.00  0.00     0.250 A 
HETATM    5  O   UNL     1     -43.383 -45.795   8.382  1.00  0.00    -0.268 OA
HETATM    6  N   UNL     1     -41.665 -46.098   9.845  1.00  0.00    -0.275 N 
HETATM    7  C   UNL     1     -41.060 -46.760  10.878  1.00  0.00     0.329 A 
HETATM    8  O   UNL     1     -39.858 -46.616  11.102  1.00  0.00    -0.246 OA
HETATM    9  H   UNL     1     -41.085 -45.487   9.291  1.00  0.00     0.173 HD
ENDROOT
BRANCH   1  10
HETATM   10  C   UNL     1     -41.296 -48.342  12.739  1.00  0.00     0.235 C 
BRANCH  10  11
HETATM   11  C   UNL     1     -40.497 -49.561  12.274  1.00  0.00     0.236 C 
HETATM   12  N   UNL     1     -39.128 -49.409  12.338  1.00  0.00    -0.356 N 
HETATM   13  H   UNL     1     -38.764 -48.587  12.821  1.00  0.00     0.162 HD
HETATM   14  O   UNL     1     -41.049 -50.597  11.913  1.00  0.00    -0.272 OA
BRANCH  12  15
HETATM   15  C   UNL     1     -38.204 -50.468  11.972  1.00  0.00     0.076 C 
HETATM   16  C   UNL     1     -37.229 -49.962  10.913  1.00  0.00     0.032 C 
HETATM   17  C   UNL     1     -37.456 -50.986  13.198  1.00  0.00     0.032 C 
ENDBRANCH  12  15
ENDBRANCH  10  11
ENDBRANCH   1  10
TORSDOF 3
ENDMDL
MODEL 6
REMARK VINA RESULT:      -4.8      8.208      9.842
REMARK  3 active torsions:
REMARK  status: ('A' for Active; 'I' for Inactive)
REMARK    1  A    between atoms: C_2  and  N_4 
REMARK       I    between atoms: N_4  and  C_5 
REMARK    2  A    between atoms: C_5  and  C_7 
REMARK    3  A    between atoms: C_7  and  N_8 
ROOT
HETATM    1  N   UNL     1     -40.105 -45.730  11.820  1.00  0.00    -0.301 N 
HETATM    2  C   UNL     1     -39.962 -45.731  13.193  1.00  0.00     0.102 A 
HETATM    3  C   UNL     1     -39.798 -44.600  13.883  1.00  0.00     0.092 A 
HETATM    4  C   UNL     1     -39.770 -43.321  13.154  1.00  0.00     0.250 A 
HETATM    5  O   UNL     1     -39.681 -42.256  13.750  1.00  0.00    -0.268 OA
HETATM    6  N   UNL     1     -39.866 -43.409  11.796  1.00  0.00    -0.275 N 
HETATM    7  C   UNL     1     -40.109 -44.552  11.086  1.00  0.00     0.329 A 
HETATM    8  O   UNL     1     -40.354 -44.506   9.880  1.00  0.00    -0.246 OA
HETATM    9  H   UNL     1     -39.887 -42.539  11.285  1.00  0.00     0.173 HD
ENDROOT
BRANCH   1  10
HETATM   10  C   UNL     1     -40.335 -46.996  11.118  1.00  0.00     0.235 C 
BRANCH  10  11
HETATM   11  C   UNL     1     -41.821 -47.203  10.818  1.00  0.00     0.236 C 
HETATM   12  N   UNL     1     -42.167 -47.040   9.493  1.00  0.00    -0.356 N 
HETATM   13  H   UNL     1     -41.412 -46.953   8.813  1.00  0.00     0.162 HD
HETATM   14  O   UNL     1     -42.619 -47.527  11.693  1.00  0.00    -0.272 OA
BRANCH  12  15
HETATM   15  C   UNL     1     -43.524 -47.230   9.008  1.00  0.00     0.076 C 
HETATM   16  C   UNL     1     -44.237 -45.884   8.926  1.00  0.00     0.032 C 
HETATM   17  C   UNL     1     -43.525 -47.931   7.653  1.00  0.00     0.032 C 
ENDBRANCH  12  15
ENDBRANCH  10  11
ENDBRANCH   1  10
TORSDOF 3
ENDMDL
MODEL 7
REMARK VINA RESULT:      -4.7      2.298      3.153
REMARK  3 active torsions:
REMARK  status: ('A' for Active; 'I' for Inactive)
REMARK    1  A    between atoms: C_2  and  N_4 
REMARK       I    between atoms: N_4  and  C_5 
REMARK    2  A    between atoms: C_5  and  C_7 
REMARK    3  A    between atoms: C_7  and  N_8 
ROOT
HETATM    1  N   UNL     1     -42.375 -54.195  14.423  1.00  0.00    -0.301 N 
HETATM    2  C   UNL     1     -41.983 -54.186  13.100  1.00  0.00     0.102 A 
HETATM    3  C   UNL     1     -40.867 -53.570  12.702  1.00  0.00     0.092 A 
HETATM    4  C   UNL     1     -40.037 -52.885  13.706  1.00  0.00     0.250 A 
HETATM    5  O   UNL     1     -38.976 -52.358  13.397  1.00  0.00    -0.268 OA
HETATM    6  N   UNL     1     -40.519 -52.895  14.983  1.00  0.00    -0.275 N 
HETATM    7  C   UNL     1     -41.619 -53.585  15.414  1.00  0.00     0.329 A 
HETATM    8  O   UNL     1     -41.875 -53.677  16.615  1.00  0.00    -0.246 OA
HETATM    9  H   UNL     1     -39.943 -52.464  15.690  1.00  0.00     0.173 HD
ENDROOT
BRANCH   1  10
HETATM   10  C   UNL     1     -43.581 -54.931  14.813  1.00  0.00     0.235 C 
BRANCH  10  11
HETATM   11  C   UNL     1     -44.828 -54.345  14.149  1.00  0.00     0.236 C 
HETATM   12  N   UNL     1     -45.215 -53.115  14.638  1.00  0.00    -0.356 N 
HETATM   13  H   UNL     1     -44.575 -52.634  15.271  1.00  0.00     0.162 HD
HETATM   14  O   UNL     1     -45.403 -54.921  13.229  1.00  0.00    -0.272 OA
BRANCH  12  15
HETATM   15  C   UNL     1     -46.354 -52.384  14.110  1.00  0.00     0.076 C 
HETATM   16  C   UNL     1     -46.986 -51.542  15.214  1.00  0.00     0.032 C 
HETATM   17  C   UNL     1     -45.942 -51.512  12.928  1.00  0.00     0.032 C 
ENDBRANCH  12  15
ENDBRANCH  10  11
ENDBRANCH   1  10
TORSDOF 3
ENDMDL
MODEL 8
REMARK VINA RESULT:      -4.7      1.949      5.323
REMARK  3 active torsions:
REMARK  status: ('A' for Active; 'I' for Inactive)
REMARK    1  A    between atoms: C_2  and  N_4 
REMARK       I    between atoms: N_4  and  C_5 
REMARK    2  A    between atoms: C_5  and  C_7 
REMARK    3  A    between atoms: C_7  and  N_8 
ROOT
HETATM    1  N   UNL     1     -45.149 -53.187  13.439  1.00  0.00    -0.301 N 
HETATM    2  C   UNL     1     -45.781 -51.971  13.274  1.00  0.00     0.102 A 
HETATM    3  C   UNL     1     -46.681 -51.522  14.152  1.00  0.00     0.092 A 
HETATM    4  C   UNL     1     -47.003 -52.350  15.325  1.00  0.00     0.250 A 
HETATM    5  O   UNL     1     -47.777 -51.954  16.187  1.00  0.00    -0.268 OA
HETATM    6  N   UNL     1     -46.375 -53.560  15.389  1.00  0.00    -0.275 N 
HETATM    7  C   UNL     1     -45.398 -53.997  14.537  1.00  0.00     0.329 A 
HETATM    8  O   UNL     1     -44.766 -55.026  14.777  1.00  0.00    -0.246 OA
HETATM    9  H   UNL     1     -46.555 -54.123  16.206  1.00  0.00     0.173 HD
ENDROOT
BRANCH   1  10
HETATM   10  C   UNL     1     -44.131 -53.607  12.472  1.00  0.00     0.235 C 
BRANCH  10  11
HETATM   11  C   UNL     1     -42.772 -52.980  12.787  1.00  0.00     0.236 C 
HETATM   12  N   UNL     1     -41.970 -53.734  13.618  1.00  0.00    -0.356 N 
HETATM   13  H   UNL     1     -42.266 -54.688  13.824  1.00  0.00     0.162 HD
HETATM   14  O   UNL     1     -42.425 -51.907  12.299  1.00  0.00    -0.272 OA
BRANCH  12  15
HETATM   15  C   UNL     1     -40.631 -53.321  14.002  1.00  0.00     0.076 C 
HETATM   16  C   UNL     1     -40.646 -52.777  15.427  1.00  0.00     0.032 C 
HETATM   17  C   UNL     1     -39.645 -54.478  13.870  1.00  0.00     0.032 C 
ENDBRANCH  12  15
ENDBRANCH  10  11
ENDBRANCH   1  10
TORSDOF 3
ENDMDL
MODEL 9
REMARK VINA RESULT:      -4.7      2.931      4.547
REMARK  3 active torsions:
REMARK  status: ('A' for Active; 'I' for Inactive)
REMARK    1  A    between atoms: C_2  and  N_4 
REMARK       I    between atoms: N_4  and  C_5 
REMARK    2  A    between atoms: C_5  and  C_7 
REMARK    3  A    between atoms: C_7  and  N_8 
ROOT
HETATM    1  N   UNL     1     -40.841 -53.288  14.686  1.00  0.00    -0.301 N 
HETATM    2  C   UNL     1     -41.013 -54.077  15.806  1.00  0.00     0.102 A 
HETATM    3  C   UNL     1     -40.129 -55.019  16.144  1.00  0.00     0.092 A 
HETATM    4  C   UNL     1     -38.942 -55.216  15.297  1.00  0.00     0.250 A 
HETATM    5  O   UNL     1     -38.076 -56.027  15.600  1.00  0.00    -0.268 OA
HETATM    6  N   UNL     1     -38.871 -54.433  14.182  1.00  0.00    -0.275 N 
HETATM    7  C   UNL     1     -39.729 -53.416  13.866  1.00  0.00     0.329 A 
HETATM    8  O   UNL     1     -39.485 -52.651  12.933  1.00  0.00    -0.246 OA
HETATM    9  H   UNL     1     -38.045 -54.528  13.611  1.00  0.00     0.173 HD
ENDROOT
BRANCH   1  10
HETATM   10  C   UNL     1     -41.814 -52.234  14.391  1.00  0.00     0.235 C 
BRANCH  10  11
HETATM   11  C   UNL     1     -42.954 -52.758  13.516  1.00  0.00     0.236 C 
HETATM   12  N   UNL     1     -44.102 -53.089  14.206  1.00  0.00    -0.356 N 
HETATM   13  H   UNL     1     -44.158 -52.822  15.188  1.00  0.00     0.162 HD
HETATM   14  O   UNL     1     -42.850 -52.834  12.294  1.00  0.00    -0.272 OA
BRANCH  12  15
HETATM   15  C   UNL     1     -45.302 -53.571  13.544  1.00  0.00     0.076 C 
HETATM   16  C   UNL     1     -45.470 -55.066  13.801  1.00  0.00     0.032 C 
HETATM   17  C   UNL     1     -46.531 -52.797  14.012  1.00  0.00     0.032 C 
ENDBRANCH  12  15
ENDBRANCH  10  11
ENDBRANCH   1  10
TORSDOF 3
ENDMDL
