MODEL 1
REMARK VINA RESULT:      -5.9      0.000      0.000
REMARK  7 active torsions:
REMARK  status: ('A' for Active; 'I' for Inactive)
REMARK    1  A    between atoms: O_1  and  C_2 
REMARK    2  A    between atoms: C_2  and  C_3 
REMARK    3  A    between atoms: C_3  and  N_4 
REMARK    4  A    between atoms: N_4  and  C_5 
REMARK    5  A    between atoms: C_5  and  C_6 
REMARK    6  A    between atoms: C_5  and  C_14 
REMARK    7  A    between atoms: C_6  and  C_7 
ROOT
HETATM    1  C   UNL     1     -39.141 -50.206  12.058  1.00  0.00     0.331 C 
ENDROOT
BRANCH   1   2
HETATM    2  N   UNL     1     -39.543 -51.461  12.785  1.00  0.00     0.100 N 
HETATM    3  H   UNL     1     -39.284 -52.252  12.189  1.00  0.00     0.316 HD
BRANCH   2   4
HETATM    4  C   UNL     1     -40.991 -51.541  13.063  1.00  0.00     0.308 C 
BRANCH   4   5
HETATM    5  C   UNL     1     -41.644 -52.785  12.401  1.00  0.00     0.093 C 
HETATM    6  C   UNL     1     -41.204 -54.131  12.997  1.00  0.00     0.050 C 
HETATM    7  C   UNL     1     -41.979 -54.400  14.277  1.00  0.00     0.077 C 
HETATM    8  S   UNL     1     -43.572 -53.556  14.104  1.00  0.00    -0.166 SA
HETATM    9  C   UNL     1     -43.172 -52.754  12.528  1.00  0.00     0.113 C 
BRANCH   5  10
HETATM   10  O   UNL     1     -41.304 -52.764  11.003  1.00  0.00    -0.387 OA
HETATM   11  H   UNL     1     -40.696 -52.016  10.871  1.00  0.00     0.210 HD
ENDBRANCH   5  10
ENDBRANCH   4   5
ENDBRANCH   2   4
ENDBRANCH   1   2
BRANCH   1  12
HETATM   12  C   UNL     1     -39.861 -48.925  12.552  1.00  0.00     0.083 C 
BRANCH  12  13
HETATM   13  C   UNL     1     -40.570 -48.045  11.543  1.00  0.00    -0.053 A 
HETATM   14  C   UNL     1     -41.686 -48.447  10.807  1.00  0.00     0.024 A 
HETATM   15  C   UNL     1     -42.304 -47.528   9.969  1.00  0.00     0.088 A 
HETATM   16  N   UNL     1     -41.876 -46.261   9.795  1.00  0.00    -0.375 N 
HETATM   17  C   UNL     1     -40.779 -45.895  10.494  1.00  0.00     0.088 A 
ATOM     18  HN  UNL     1     -42.355 -45.613   9.169  1.00  0.00     0.164 HD
HETATM   19  C   UNL     1     -40.101 -46.740  11.362  1.00  0.00     0.024 A 
ENDBRANCH  12  13
ENDBRANCH   1  12
BRANCH   1  20
HETATM   20  C   UNL     1     -37.596 -49.963  11.956  1.00  0.00     0.418 C 
HETATM   21  F   UNL     1     -37.200 -48.964  12.784  1.00  0.00    -0.169 F 
HETATM   22  F   UNL     1     -36.922 -51.076  12.344  1.00  0.00    -0.169 F 
HETATM   23  F   UNL     1     -37.169 -49.657  10.718  1.00  0.00    -0.169 F 
ENDBRANCH   1  20
TORSDOF 7
ENDMDL
MODEL 2
REMARK VINA RESULT:      -5.8      3.667      6.446
REMARK  7 active torsions:
REMARK  status: ('A' for Active; 'I' for Inactive)
REMARK    1  A    between atoms: O_1  and  C_2 
REMARK    2  A    between atoms: C_2  and  C_3 
REMARK    3  A    between atoms: C_3  and  N_4 
REMARK    4  A    between atoms: N_4  and  C_5 
REMARK    5  A    between atoms: C_5  and  C_6 
REMARK    6  A    between atoms: C_5  and  C_14 
REMARK    7  A    between atoms: C_6  and  C_7 
ROOT
HETATM    1  C   UNL     1     -42.386 -52.712  12.662  1.00  0.00     0.331 C 
ENDROOT
BRANCH   1   2
HETATM    2  N   UNL     1     -41.822 -51.733  11.668  1.00  0.00     0.100 N 
HETATM    3  H   UNL     1     -40.956 -52.140  11.302  1.00  0.00     0.316 HD
BRANCH   2   4
HETATM    4  C   UNL     1     -41.506 -50.415  12.256  1.00  0.00     0.308 C 
BRANCH   4   5
HETATM    5  C   UNL     1     -40.270 -49.758  11.582  1.00  0.00     0.093 C 
HETATM    6  C   UNL     1     -40.120 -48.253  11.851  1.00  0.00     0.050 C 
HETATM    7  C   UNL     1     -39.494 -48.038  13.220  1.00  0.00     0.077 C 
HETATM    8  S   UNL     1     -38.460 -49.488  13.548  1.00  0.00    -0.166 SA
HETATM    9  C   UNL     1     -38.961 -50.398  12.062  1.00  0.00     0.113 C 
BRANCH   5  10
HETATM   10  O   UNL     1     -40.384 -49.967  10.163  1.00  0.00    -0.387 OA
HETATM   11  H   UNL     1     -39.858 -49.273   9.732  1.00  0.00     0.210 HD
ENDBRANCH   5  10
ENDBRANCH   4   5
ENDBRANCH   2   4
ENDBRANCH   1   2
BRANCH   1  12
HETATM   12  C   UNL     1     -43.604 -53.517  12.141  1.00  0.00     0.083 C 
BRANCH  12  13
HETATM   13  C   UNL     1     -44.855 -53.590  12.993  1.00  0.00    -0.053 A 
HETATM   14  C   UNL     1     -45.262 -54.733  13.685  1.00  0.00     0.024 A 
HETATM   15  C   UNL     1     -46.383 -54.660  14.500  1.00  0.00     0.088 A 
HETATM   16  N   UNL     1     -47.133 -53.550  14.652  1.00  0.00    -0.375 N 
HETATM   17  C   UNL     1     -46.742 -52.460  13.956  1.00  0.00     0.088 A 
ATOM     18  HN  UNL     1     -47.952 -53.533  15.261  1.00  0.00     0.164 HD
HETATM   19  C   UNL     1     -45.632 -52.434  13.124  1.00  0.00     0.024 A 
ENDBRANCH  12  13
ENDBRANCH   1  12
BRANCH   1  20
HETATM   20  C   UNL     1     -41.335 -53.671  13.321  1.00  0.00     0.418 C 
HETATM   21  F   UNL     1     -40.313 -52.973  13.875  1.00  0.00    -0.169 F 
HETATM   22  F   UNL     1     -41.914 -54.374  14.328  1.00  0.00    -0.169 F 
HETATM   23  F   UNL     1     -40.802 -54.566  12.472  1.00  0.00    -0.169 F 
ENDBRANCH   1  20
TORSDOF 7
ENDMDL
MODEL 3
REMARK VINA RESULT:      -5.8      1.497      2.109
REMARK  7 active torsions:
REMARK  status: ('A' for Active; 'I' for Inactive)
REMARK    1  A    between atoms: O_1  and  C_2 
REMARK    2  A    between atoms: C_2  and  C_3 
REMARK    3  A    between atoms: C_3  and  N_4 
REMARK    4  A    between atoms: N_4  and  C_5 
REMARK    5  A    between atoms: C_5  and  C_6 
REMARK    6  A    between atoms: C_5  and  C_14 
REMARK    7  A    between atoms: C_6  and  C_7 
ROOT
HETATM    1  C   UNL     1     -39.416 -49.504  11.429  1.00  0.00     0.331 C 
ENDROOT
BRANCH   1   2
HETATM    2  N   UNL     1     -40.312 -50.670  11.111  1.00  0.00     0.100 N 
HETATM    3  H   UNL     1     -40.929 -50.377  10.349  1.00  0.00     0.316 HD
BRANCH   2   4
HETATM    4  C   UNL     1     -41.148 -51.098  12.251  1.00  0.00     0.308 C 
BRANCH   4   5
HETATM    5  C   UNL     1     -41.019 -52.620  12.529  1.00  0.00     0.093 C 
HETATM    6  C   UNL     1     -40.056 -52.981  13.672  1.00  0.00     0.050 C 
HETATM    7  C   UNL     1     -40.756 -52.791  15.008  1.00  0.00     0.077 C 
HETATM    8  S   UNL     1     -42.521 -53.064  14.711  1.00  0.00    -0.166 SA
HETATM    9  C   UNL     1     -42.368 -53.239  12.913  1.00  0.00     0.113 C 
BRANCH   5  10
HETATM   10  O   UNL     1     -40.559 -53.248  11.319  1.00  0.00    -0.387 OA
HETATM   11  H   UNL     1     -41.037 -52.828  10.584  1.00  0.00     0.210 HD
ENDBRANCH   5  10
ENDBRANCH   4   5
ENDBRANCH   2   4
ENDBRANCH   1   2
BRANCH   1  12
HETATM   12  C   UNL     1     -39.983 -48.539  12.502  1.00  0.00     0.083 C 
BRANCH  12  13
HETATM   13  C   UNL     1     -39.876 -47.045  12.277  1.00  0.00    -0.053 A 
HETATM   14  C   UNL     1     -39.459 -46.137  13.253  1.00  0.00     0.024 A 
HETATM   15  C   UNL     1     -39.320 -44.799  12.909  1.00  0.00     0.088 A 
HETATM   16  N   UNL     1     -39.590 -44.304  11.684  1.00  0.00    -0.375 N 
HETATM   17  C   UNL     1     -40.017 -45.190  10.759  1.00  0.00     0.088 A 
ATOM     18  HN  UNL     1     -39.477 -43.313  11.469  1.00  0.00     0.164 HD
HETATM   19  C   UNL     1     -40.177 -46.546  11.005  1.00  0.00     0.024 A 
ENDBRANCH  12  13
ENDBRANCH   1  12
BRANCH   1  20
HETATM   20  C   UNL     1     -37.929 -49.878  11.758  1.00  0.00     0.418 C 
HETATM   21  F   UNL     1     -37.116 -49.638  10.699  1.00  0.00    -0.169 F 
HETATM   22  F   UNL     1     -37.471 -49.110  12.779  1.00  0.00    -0.169 F 
HETATM   23  F   UNL     1     -37.754 -51.161  12.122  1.00  0.00    -0.169 F 
ENDBRANCH   1  20
TORSDOF 7
ENDMDL
MODEL 4
REMARK VINA RESULT:      -5.7      4.259      5.625
REMARK  7 active torsions:
REMARK  status: ('A' for Active; 'I' for Inactive)
REMARK    1  A    between atoms: O_1  and  C_2 
REMARK    2  A    between atoms: C_2  and  C_3 
REMARK    3  A    between atoms: C_3  and  N_4 
REMARK    4  A    between atoms: N_4  and  C_5 
REMARK    5  A    between atoms: C_5  and  C_6 
REMARK    6  A    between atoms: C_5  and  C_14 
REMARK    7  A    between atoms: C_6  and  C_7 
ROOT
HETATM    1  C   UNL     1     -43.400 -47.212  10.126  1.00  0.00     0.331 C 
ENDROOT
BRANCH   1   2
HETATM    2  N   UNL     1     -42.415 -48.350  10.087  1.00  0.00     0.100 N 
HETATM    3  H   UNL     1     -42.844 -49.100   9.538  1.00  0.00     0.316 HD
BRANCH   2   4
HETATM    4  C   UNL     1     -42.079 -48.882  11.423  1.00  0.00     0.308 C 
BRANCH   4   5
HETATM    5  C   UNL     1     -40.610 -49.379  11.499  1.00  0.00     0.093 C 
HETATM    6  C   UNL     1     -39.575 -48.275  11.764  1.00  0.00     0.050 C 
HETATM    7  C   UNL     1     -39.546 -47.947  13.248  1.00  0.00     0.077 C 
HETATM    8  S   UNL     1     -40.031 -49.458  14.120  1.00  0.00    -0.166 SA
HETATM    9  C   UNL     1     -40.420 -50.404  12.624  1.00  0.00     0.113 C 
BRANCH   5  10
HETATM   10  O   UNL     1     -40.299 -50.016  10.247  1.00  0.00    -0.387 OA
HETATM   11  H   UNL     1     -41.115 -50.448   9.939  1.00  0.00     0.210 HD
ENDBRANCH   5  10
ENDBRANCH   4   5
ENDBRANCH   2   4
ENDBRANCH   1   2
BRANCH   1  12
HETATM   12  C   UNL     1     -42.761 -45.811   9.942  1.00  0.00     0.083 C 
BRANCH  12  13
HETATM   13  C   UNL     1     -41.790 -45.304  10.989  1.00  0.00    -0.053 A 
HETATM   14  C   UNL     1     -40.486 -44.890  10.707  1.00  0.00     0.024 A 
HETATM   15  C   UNL     1     -39.712 -44.367  11.734  1.00  0.00     0.088 A 
HETATM   16  N   UNL     1     -40.131 -44.252  13.011  1.00  0.00    -0.375 N 
HETATM   17  C   UNL     1     -41.385 -44.681  13.272  1.00  0.00     0.088 A 
ATOM     18  HN  UNL     1     -39.533 -43.863  13.740  1.00  0.00     0.164 HD
HETATM   19  C   UNL     1     -42.236 -45.209  12.311  1.00  0.00     0.024 A 
ENDBRANCH  12  13
ENDBRANCH   1  12
BRANCH   1  20
HETATM   20  C   UNL     1     -44.643 -47.376   9.185  1.00  0.00     0.418 C 
HETATM   21  F   UNL     1     -45.677 -47.965   9.835  1.00  0.00    -0.169 F 
HETATM   22  F   UNL     1     -45.085 -46.157   8.781  1.00  0.00    -0.169 F 
HETATM   23  F   UNL     1     -44.399 -48.094   8.074  1.00  0.00    -0.169 F 
ENDBRANCH   1  20
TORSDOF 7
ENDMDL
MODEL 5
REMARK VINA RESULT:      -5.7      3.515      6.373
REMARK  7 active torsions:
REMARK  status: ('A' for Active; 'I' for Inactive)
REMARK    1  A    between atoms: O_1  and  C_2 
REMARK    2  A    between atoms: C_2  and  C_3 
REMARK    3  A    between atoms: C_3  and  N_4 
REMARK    4  A    between atoms: N_4  and  C_5 
REMARK    5  A    between atoms: C_5  and  C_6 
REMARK    6  A    between atoms: C_5  and  C_14 
REMARK    7  A    between atoms: C_6  and  C_7 
ROOT
HETATM    1  C   UNL     1     -41.625 -52.383  13.124  1.00  0.00     0.331 C 
ENDROOT
BRANCH   1   2
HETATM    2  N   UNL     1     -40.792 -51.242  12.605  1.00  0.00     0.100 N 
HETATM    3  H   UNL     1     -40.102 -51.019  13.327  1.00  0.00     0.316 HD
BRANCH   2   4
HETATM    4  C   UNL     1     -41.577 -50.024  12.318  1.00  0.00     0.308 C 
BRANCH   4   5
HETATM    5  C   UNL     1     -40.916 -49.151  11.216  1.00  0.00     0.093 C 
HETATM    6  C   UNL     1     -41.880 -48.198  10.492  1.00  0.00     0.050 C 
HETATM    7  C   UNL     1     -42.108 -46.959  11.344  1.00  0.00     0.077 C 
HETATM    8  S   UNL     1     -40.608 -46.728  12.333  1.00  0.00    -0.166 SA
HETATM    9  C   UNL     1     -39.807 -48.262  11.793  1.00  0.00     0.113 C 
BRANCH   5  10
HETATM   10  O   UNL     1     -40.329 -50.040  10.249  1.00  0.00    -0.387 OA
HETATM   11  H   UNL     1     -40.063 -50.843  10.728  1.00  0.00     0.210 HD
ENDBRANCH   5  10
ENDBRANCH   4   5
ENDBRANCH   2   4
ENDBRANCH   1   2
BRANCH   1  12
HETATM   12  C   UNL     1     -42.847 -52.734  12.238  1.00  0.00     0.083 C 
BRANCH  12  13
HETATM   13  C   UNL     1     -44.166 -53.072  12.905  1.00  0.00    -0.053 A 
HETATM   14  C   UNL     1     -45.190 -52.148  13.118  1.00  0.00     0.024 A 
HETATM   15  C   UNL     1     -46.388 -52.589  13.666  1.00  0.00     0.088 A 
HETATM   16  N   UNL     1     -46.622 -53.865  14.035  1.00  0.00    -0.375 N 
HETATM   17  C   UNL     1     -45.612 -54.741  13.846  1.00  0.00     0.088 A 
ATOM     18  HN  UNL     1     -47.516 -54.152  14.436  1.00  0.00     0.164 HD
HETATM   19  C   UNL     1     -44.385 -54.396  13.298  1.00  0.00     0.024 A 
ENDBRANCH  12  13
ENDBRANCH   1  12
BRANCH   1  20
HETATM   20  C   UNL     1     -40.822 -53.679  13.490  1.00  0.00     0.418 C 
HETATM   21  F   UNL     1     -41.278 -54.229  14.643  1.00  0.00    -0.169 F 
HETATM   22  F   UNL     1     -40.985 -54.617  12.523  1.00  0.00    -0.169 F 
HETATM   23  F   UNL     1     -39.499 -53.483  13.630  1.00  0.00    -0.169 F 
ENDBRANCH   1  20
TORSDOF 7
ENDMDL
MODEL 6
REMARK VINA RESULT:      -5.7      4.418      6.547
REMARK  7 active torsions:
REMARK  status: ('A' for Active; 'I' for Inactive)
REMARK    1  A    between atoms: O_1  and  C_2 
REMARK    2  A    between atoms: C_2  and  C_3 
REMARK    3  A    between atoms: C_3  and  N_4 
REMARK    4  A    between atoms: N_4  and  C_5 
REMARK    5  A    between atoms: C_5  and  C_6 
REMARK    6  A    between atoms: C_5  and  C_14 
REMARK    7  A    between atoms: C_6  and  C_7 
ROOT
HETATM    1  C   UNL     1     -43.146 -52.030  13.071  1.00  0.00     0.331 C 
ENDROOT
BRANCH   1   2
HETATM    2  N   UNL     1     -42.247 -51.513  11.980  1.00  0.00     0.100 N 
HETATM    3  H   UNL     1     -41.405 -52.096  11.982  1.00  0.00     0.316 HD
BRANCH   2   4
HETATM    4  C   UNL     1     -41.841 -50.106  12.170  1.00  0.00     0.308 C 
BRANCH   4   5
HETATM    5  C   UNL     1     -40.394 -49.845  11.669  1.00  0.00     0.093 C 
HETATM    6  C   UNL     1     -39.845 -48.449  12.001  1.00  0.00     0.050 C 
HETATM    7  C   UNL     1     -39.357 -48.421  13.440  1.00  0.00     0.077 C 
HETATM    8  S   UNL     1     -38.841 -50.109  13.844  1.00  0.00    -0.166 SA
HETATM    9  C   UNL     1     -39.399 -50.839  12.281  1.00  0.00     0.113 C 
BRANCH   5  10
HETATM   10  O   UNL     1     -40.389 -50.019  10.241  1.00  0.00    -0.387 OA
HETATM   11  H   UNL     1     -40.027 -50.904  10.065  1.00  0.00     0.210 HD
ENDBRANCH   5  10
ENDBRANCH   4   5
ENDBRANCH   2   4
ENDBRANCH   1   2
BRANCH   1  12
HETATM   12  C   UNL     1     -44.534 -51.340  13.132  1.00  0.00     0.083 C 
BRANCH  12  13
HETATM   13  C   UNL     1     -45.234 -51.216  14.470  1.00  0.00    -0.053 A 
HETATM   14  C   UNL     1     -44.629 -50.706  15.621  1.00  0.00     0.024 A 
HETATM   15  C   UNL     1     -45.392 -50.563  16.773  1.00  0.00     0.088 A 
HETATM   16  N   UNL     1     -46.692 -50.912  16.863  1.00  0.00    -0.375 N 
HETATM   17  C   UNL     1     -47.254 -51.428  15.749  1.00  0.00     0.088 A 
ATOM     18  HN  UNL     1     -47.221 -50.793  17.727  1.00  0.00     0.164 HD
HETATM   19  C   UNL     1     -46.576 -51.600  14.551  1.00  0.00     0.024 A 
ENDBRANCH  12  13
ENDBRANCH   1  12
BRANCH   1  20
HETATM   20  C   UNL     1     -43.305 -53.588  13.119  1.00  0.00     0.418 C 
HETATM   21  F   UNL     1     -44.221 -54.017  12.215  1.00  0.00    -0.169 F 
HETATM   22  F   UNL     1     -42.131 -54.187  12.794  1.00  0.00    -0.169 F 
HETATM   23  F   UNL     1     -43.670 -54.065  14.323  1.00  0.00    -0.169 F 
ENDBRANCH   1  20
TORSDOF 7
ENDMDL
MODEL 7
REMARK VINA RESULT:      -5.5      3.574      4.868
REMARK  7 active torsions:
REMARK  status: ('A' for Active; 'I' for Inactive)
REMARK    1  A    between atoms: O_1  and  C_2 
REMARK    2  A    between atoms: C_2  and  C_3 
REMARK    3  A    between atoms: C_3  and  N_4 
REMARK    4  A    between atoms: N_4  and  C_5 
REMARK    5  A    between atoms: C_5  and  C_6 
REMARK    6  A    between atoms: C_5  and  C_14 
REMARK    7  A    between atoms: C_6  and  C_7 
ROOT
HETATM    1  C   UNL     1     -41.902 -52.848  12.568  1.00  0.00     0.331 C 
ENDROOT
BRANCH   1   2
HETATM    2  N   UNL     1     -43.336 -52.851  12.110  1.00  0.00     0.100 N 
HETATM    3  H   UNL     1     -43.355 -52.434  11.176  1.00  0.00     0.316 HD
BRANCH   2   4
HETATM    4  C   UNL     1     -44.235 -52.074  12.987  1.00  0.00     0.308 C 
BRANCH   4   5
HETATM    5  C   UNL     1     -45.647 -52.713  13.086  1.00  0.00     0.093 C 
HETATM    6  C   UNL     1     -45.664 -54.143  13.647  1.00  0.00     0.050 C 
HETATM    7  C   UNL     1     -45.572 -54.098  15.164  1.00  0.00     0.077 C 
HETATM    8  S   UNL     1     -46.318 -52.531  15.680  1.00  0.00    -0.166 SA
HETATM    9  C   UNL     1     -46.571 -51.898  14.000  1.00  0.00     0.113 C 
BRANCH   5  10
HETATM   10  O   UNL     1     -46.214 -52.726  11.764  1.00  0.00    -0.387 OA
HETATM   11  H   UNL     1     -45.913 -51.915  11.319  1.00  0.00     0.210 HD
ENDBRANCH   5  10
ENDBRANCH   4   5
ENDBRANCH   2   4
ENDBRANCH   1   2
BRANCH   1  12
HETATM   12  C   UNL     1     -41.403 -51.475  13.088  1.00  0.00     0.083 C 
BRANCH  12  13
HETATM   13  C   UNL     1     -40.023 -50.995  12.686  1.00  0.00    -0.053 A 
HETATM   14  C   UNL     1     -39.786 -50.069  11.668  1.00  0.00     0.024 A 
HETATM   15  C   UNL     1     -38.485 -49.640  11.440  1.00  0.00     0.088 A 
HETATM   16  N   UNL     1     -37.415 -50.084  12.129  1.00  0.00    -0.375 N 
HETATM   17  C   UNL     1     -37.657 -50.999  13.092  1.00  0.00     0.088 A 
ATOM     18  HN  UNL     1     -36.472 -49.747  11.933  1.00  0.00     0.164 HD
HETATM   19  C   UNL     1     -38.922 -51.480  13.399  1.00  0.00     0.024 A 
ENDBRANCH  12  13
ENDBRANCH   1  12
BRANCH   1  20
HETATM   20  C   UNL     1     -41.524 -53.987  13.576  1.00  0.00     0.418 C 
HETATM   21  F   UNL     1     -40.413 -54.652  13.172  1.00  0.00    -0.169 F 
HETATM   22  F   UNL     1     -41.235 -53.456  14.792  1.00  0.00    -0.169 F 
HETATM   23  F   UNL     1     -42.495 -54.898  13.766  1.00  0.00    -0.169 F 
ENDBRANCH   1  20
TORSDOF 7
ENDMDL
MODEL 8
REMARK VINA RESULT:      -5.2      5.663      7.297
REMARK  7 active torsions:
REMARK  status: ('A' for Active; 'I' for Inactive)
REMARK    1  A    between atoms: O_1  and  C_2 
REMARK    2  A    between atoms: C_2  and  C_3 
REMARK    3  A    between atoms: C_3  and  N_4 
REMARK    4  A    between atoms: N_4  and  C_5 
REMARK    5  A    between atoms: C_5  and  C_6 
REMARK    6  A    between atoms: C_5  and  C_14 
REMARK    7  A    between atoms: C_6  and  C_7 
ROOT
HETATM    1  C   UNL     1     -45.727 -52.843  14.136  1.00  0.00     0.331 C 
ENDROOT
BRANCH   1   2
HETATM    2  N   UNL     1     -44.899 -53.947  13.536  1.00  0.00     0.100 N 
HETATM    3  H   UNL     1     -45.355 -54.832  13.778  1.00  0.00     0.316 HD
BRANCH   2   4
HETATM    4  C   UNL     1     -43.512 -53.983  14.041  1.00  0.00     0.308 C 
BRANCH   4   5
HETATM    5  C   UNL     1     -42.518 -53.296  13.065  1.00  0.00     0.093 C 
HETATM    6  C   UNL     1     -42.009 -51.923  13.533  1.00  0.00     0.050 C 
HETATM    7  C   UNL     1     -40.892 -52.111  14.547  1.00  0.00     0.077 C 
HETATM    8  S   UNL     1     -40.091 -53.685  14.147  1.00  0.00    -0.166 SA
HETATM    9  C   UNL     1     -41.264 -54.150  12.845  1.00  0.00     0.113 C 
BRANCH   5  10
HETATM   10  O   UNL     1     -43.187 -53.136  11.802  1.00  0.00    -0.387 OA
HETATM   11  H   UNL     1     -42.619 -53.546  11.127  1.00  0.00     0.210 HD
ENDBRANCH   5  10
ENDBRANCH   4   5
ENDBRANCH   2   4
ENDBRANCH   1   2
BRANCH   1  12
HETATM   12  C   UNL     1     -45.147 -52.254  15.448  1.00  0.00     0.083 C 
BRANCH  12  13
HETATM   13  C   UNL     1     -46.054 -51.444  16.352  1.00  0.00    -0.053 A 
HETATM   14  C   UNL     1     -47.401 -51.738  16.571  1.00  0.00     0.024 A 
HETATM   15  C   UNL     1     -48.115 -50.973  17.485  1.00  0.00     0.088 A 
HETATM   16  N   UNL     1     -47.594 -49.934  18.167  1.00  0.00    -0.375 N 
HETATM   17  C   UNL     1     -46.297 -49.645  17.925  1.00  0.00     0.088 A 
ATOM     18  HN  UNL     1     -48.150 -49.394  18.831  1.00  0.00     0.164 HD
HETATM   19  C   UNL     1     -45.501 -50.357  17.038  1.00  0.00     0.024 A 
ENDBRANCH  12  13
ENDBRANCH   1  12
BRANCH   1  20
HETATM   20  C   UNL     1     -46.122 -51.694  13.146  1.00  0.00     0.418 C 
HETATM   21  F   UNL     1     -45.139 -50.764  13.056  1.00  0.00    -0.169 F 
HETATM   22  F   UNL     1     -46.295 -52.195  11.895  1.00  0.00    -0.169 F 
HETATM   23  F   UNL     1     -47.258 -51.054  13.473  1.00  0.00    -0.169 F 
ENDBRANCH   1  20
TORSDOF 7
ENDMDL
MODEL 9
REMARK VINA RESULT:      -5.2      4.946      5.922
REMARK  7 active torsions:
REMARK  status: ('A' for Active; 'I' for Inactive)
REMARK    1  A    between atoms: O_1  and  C_2 
REMARK    2  A    between atoms: C_2  and  C_3 
REMARK    3  A    between atoms: C_3  and  N_4 
REMARK    4  A    between atoms: N_4  and  C_5 
REMARK    5  A    between atoms: C_5  and  C_6 
REMARK    6  A    between atoms: C_5  and  C_14 
REMARK    7  A    between atoms: C_6  and  C_7 
ROOT
HETATM    1  C   UNL     1     -44.335 -52.060  13.157  1.00  0.00     0.331 C 
ENDROOT
BRANCH   1   2
HETATM    2  N   UNL     1     -43.411 -52.816  12.240  1.00  0.00     0.100 N 
HETATM    3  H   UNL     1     -43.998 -53.377  11.617  1.00  0.00     0.316 HD
BRANCH   2   4
HETATM    4  C   UNL     1     -42.487 -53.720  12.952  1.00  0.00     0.308 C 
BRANCH   4   5
HETATM    5  C   UNL     1     -41.003 -53.297  12.772  1.00  0.00     0.093 C 
HETATM    6  C   UNL     1     -40.692 -51.857  13.209  1.00  0.00     0.050 C 
HETATM    7  C   UNL     1     -40.527 -51.806  14.719  1.00  0.00     0.077 C 
HETATM    8  S   UNL     1     -39.930 -53.438  15.229  1.00  0.00    -0.166 SA
HETATM    9  C   UNL     1     -40.059 -54.191  13.586  1.00  0.00     0.113 C 
BRANCH   5  10
HETATM   10  O   UNL     1     -40.675 -53.440  11.379  1.00  0.00    -0.387 OA
HETATM   11  H   UNL     1     -40.251 -52.611  11.101  1.00  0.00     0.210 HD
ENDBRANCH   5  10
ENDBRANCH   4   5
ENDBRANCH   2   4
ENDBRANCH   1   2
BRANCH   1  12
HETATM   12  C   UNL     1     -44.102 -50.527  13.174  1.00  0.00     0.083 C 
BRANCH  12  13
HETATM   13  C   UNL     1     -43.664 -49.865  14.465  1.00  0.00    -0.053 A 
HETATM   14  C   UNL     1     -44.048 -50.303  15.735  1.00  0.00     0.024 A 
HETATM   15  C   UNL     1     -43.520 -49.668  16.851  1.00  0.00     0.088 A 
HETATM   16  N   UNL     1     -42.667 -48.625  16.792  1.00  0.00    -0.375 N 
HETATM   17  C   UNL     1     -42.325 -48.198  15.557  1.00  0.00     0.088 A 
ATOM     18  HN  UNL     1     -42.299 -48.183  17.635  1.00  0.00     0.164 HD
HETATM   19  C   UNL     1     -42.794 -48.774  14.384  1.00  0.00     0.024 A 
ENDBRANCH  12  13
ENDBRANCH   1  12
BRANCH   1  20
HETATM   20  C   UNL     1     -45.859 -52.381  12.978  1.00  0.00     0.418 C 
HETATM   21  F   UNL     1     -46.633 -51.372  13.448  1.00  0.00    -0.169 F 
HETATM   22  F   UNL     1     -46.155 -52.514  11.660  1.00  0.00    -0.169 F 
HETATM   23  F   UNL     1     -46.256 -53.514  13.586  1.00  0.00    -0.169 F 
ENDBRANCH   1  20
TORSDOF 7
ENDMDL
