MODEL 1
REMARK VINA RESULT:      -6.0      0.000      0.000
REMARK  3 active torsions:
REMARK  status: ('A' for Active; 'I' for Inactive)
REMARK    1  A    between atoms: O_1  and  C_2 
REMARK    2  A    between atoms: C_5  and  N_8 
REMARK       I    between atoms: N_8  and  C_9 
REMARK       I    between atoms: C_9  and  N_11 
REMARK    3  A    between atoms: N_11  and  C_12 
ROOT
HETATM    1  N   UNL     1     -41.453 -48.859  10.197  1.00  0.00    -0.338 N 
HETATM    2  C   UNL     1     -41.369 -49.637  11.330  1.00  0.00     0.321 C 
HETATM    3  O   UNL     1     -42.051 -49.433  12.329  1.00  0.00    -0.247 OA
HETATM    4  N   UNL     1     -40.378 -50.589  11.229  1.00  0.00    -0.306 N 
HETATM    5  H   UNL     1     -41.334 -49.358   9.326  1.00  0.00     0.164 HD
HETATM    6  H   UNL     1     -39.586 -50.261  10.688  1.00  0.00     0.171 HD
ENDROOT
BRANCH   1   7
HETATM    7  C   UNL     1     -42.329 -47.699  10.215  1.00  0.00     0.086 C 
HETATM    8  C   UNL     1     -41.545 -46.408  10.464  1.00  0.00     0.028 C 
HETATM    9  C   UNL     1     -42.497 -45.218  10.564  1.00  0.00     0.034 C 
HETATM   10  C   UNL     1     -43.394 -45.100   9.331  1.00  0.00     0.118 C 
HETATM   11  C   UNL     1     -44.127 -46.406   9.030  1.00  0.00     0.034 C 
HETATM   12  C   UNL     1     -43.165 -47.585   8.933  1.00  0.00     0.028 C 
BRANCH  10  13
HETATM   13  O   UNL     1     -44.362 -44.079   9.540  1.00  0.00    -0.396 OA
HETATM   14  H   UNL     1     -44.589 -44.073  10.484  1.00  0.00     0.210 HD
ENDBRANCH  10  13
ENDBRANCH   1   7
BRANCH   4  15
HETATM   15  C   UNL     1     -40.043 -51.366  12.369  1.00  0.00     0.077 A 
HETATM   16  C   UNL     1     -38.990 -51.003  13.209  1.00  0.00     0.050 A 
HETATM   17  C   UNL     1     -38.650 -51.868  14.237  1.00  0.00     0.090 A 
HETATM   18  N   UNL     1     -39.279 -53.043  14.472  1.00  0.00    -0.372 N 
HETATM   19  C   UNL     1     -40.304 -53.359  13.643  1.00  0.00     0.132 A 
ATOM     20  HN  UNL     1     -38.997 -53.658  15.234  1.00  0.00     0.164 HD
HETATM   21  C   UNL     1     -40.734 -52.544  12.612  1.00  0.00     0.158 A 
HETATM   22  F   UNL     1     -41.737 -52.929  11.809  1.00  0.00    -0.202 F 
ENDBRANCH   4  15
TORSDOF 3
ENDMDL
MODEL 2
REMARK VINA RESULT:      -6.0      2.501      7.447
REMARK  3 active torsions:
REMARK  status: ('A' for Active; 'I' for Inactive)
REMARK    1  A    between atoms: O_1  and  C_2 
REMARK    2  A    between atoms: C_5  and  N_8 
REMARK       I    between atoms: N_8  and  C_9 
REMARK       I    between atoms: C_9  and  N_11 
REMARK    3  A    between atoms: N_11  and  C_12 
ROOT
HETATM    1  N   UNL     1     -40.658 -50.310  11.159  1.00  0.00    -0.338 N 
HETATM    2  C   UNL     1     -41.491 -49.215  11.219  1.00  0.00     0.321 C 
HETATM    3  O   UNL     1     -42.203 -48.973  12.188  1.00  0.00    -0.247 OA
HETATM    4  N   UNL     1     -41.488 -48.499  10.041  1.00  0.00    -0.306 N 
HETATM    5  H   UNL     1     -39.783 -50.156  10.677  1.00  0.00     0.164 HD
HETATM    6  H   UNL     1     -41.369 -49.097   9.230  1.00  0.00     0.171 HD
ENDROOT
BRANCH   1   7
HETATM    7  C   UNL     1     -40.683 -51.262  12.256  1.00  0.00     0.086 C 
HETATM    8  C   UNL     1     -41.245 -52.615  11.811  1.00  0.00     0.028 C 
HETATM    9  C   UNL     1     -41.342 -53.569  13.000  1.00  0.00     0.034 C 
HETATM   10  C   UNL     1     -39.999 -53.727  13.715  1.00  0.00     0.118 C 
HETATM   11  C   UNL     1     -39.394 -52.379  14.100  1.00  0.00     0.034 C 
HETATM   12  C   UNL     1     -39.303 -51.438  12.903  1.00  0.00     0.028 C 
BRANCH  10  13
HETATM   13  O   UNL     1     -40.175 -54.495  14.899  1.00  0.00    -0.396 OA
HETATM   14  H   UNL     1     -40.822 -55.194  14.707  1.00  0.00     0.210 HD
ENDBRANCH  10  13
ENDBRANCH   1   7
BRANCH   4  15
HETATM   15  C   UNL     1     -42.415 -47.438   9.872  1.00  0.00     0.077 A 
HETATM   16  C   UNL     1     -43.607 -47.623   9.171  1.00  0.00     0.050 A 
HETATM   17  C   UNL     1     -44.410 -46.515   8.949  1.00  0.00     0.090 A 
HETATM   18  N   UNL     1     -44.104 -45.266   9.372  1.00  0.00    -0.372 N 
HETATM   19  C   UNL     1     -42.943 -45.125  10.058  1.00  0.00     0.132 A 
ATOM     20  HN  UNL     1     -44.715 -44.472   9.184  1.00  0.00     0.164 HD
HETATM   21  C   UNL     1     -42.096 -46.177  10.353  1.00  0.00     0.158 A 
HETATM   22  F   UNL     1     -40.947 -45.965  11.012  1.00  0.00    -0.202 F 
ENDBRANCH   4  15
TORSDOF 3
ENDMDL
MODEL 3
REMARK VINA RESULT:      -5.9      2.752      7.404
REMARK  3 active torsions:
REMARK  status: ('A' for Active; 'I' for Inactive)
REMARK    1  A    between atoms: O_1  and  C_2 
REMARK    2  A    between atoms: C_5  and  N_8 
REMARK       I    between atoms: N_8  and  C_9 
REMARK       I    between atoms: C_9  and  N_11 
REMARK    3  A    between atoms: N_11  and  C_12 
ROOT
HETATM    1  N   UNL     1     -40.733 -49.502  10.647  1.00  0.00    -0.338 N 
HETATM    2  C   UNL     1     -41.705 -48.530  10.703  1.00  0.00     0.321 C 
HETATM    3  O   UNL     1     -42.148 -48.091  11.759  1.00  0.00    -0.247 OA
HETATM    4  N   UNL     1     -42.169 -48.192   9.450  1.00  0.00    -0.306 N 
HETATM    5  H   UNL     1     -40.074 -49.406   9.886  1.00  0.00     0.164 HD
HETATM    6  H   UNL     1     -42.173 -48.984   8.817  1.00  0.00     0.171 HD
ENDROOT
BRANCH   1   7
HETATM    7  C   UNL     1     -40.268 -50.091  11.893  1.00  0.00     0.086 C 
HETATM    8  C   UNL     1     -40.871 -51.481  12.115  1.00  0.00     0.028 C 
HETATM    9  C   UNL     1     -40.436 -52.040  13.468  1.00  0.00     0.034 C 
HETATM   10  C   UNL     1     -38.914 -52.059  13.614  1.00  0.00     0.118 C 
HETATM   11  C   UNL     1     -38.294 -50.693  13.324  1.00  0.00     0.034 C 
HETATM   12  C   UNL     1     -38.737 -50.148  11.970  1.00  0.00     0.028 C 
BRANCH  10  13
HETATM   13  O   UNL     1     -38.566 -52.437  14.940  1.00  0.00    -0.396 OA
HETATM   14  H   UNL     1     -39.140 -51.946  15.551  1.00  0.00     0.210 HD
ENDBRANCH  10  13
ENDBRANCH   1   7
BRANCH   4  15
HETATM   15  C   UNL     1     -43.289 -47.328   9.333  1.00  0.00     0.077 A 
HETATM   16  C   UNL     1     -44.560 -47.824   9.041  1.00  0.00     0.050 A 
HETATM   17  C   UNL     1     -45.582 -46.913   8.832  1.00  0.00     0.090 A 
HETATM   18  N   UNL     1     -45.419 -45.571   8.895  1.00  0.00    -0.372 N 
HETATM   19  C   UNL     1     -44.174 -45.123   9.190  1.00  0.00     0.132 A 
ATOM     20  HN  UNL     1     -46.194 -44.929   8.728  1.00  0.00     0.164 HD
HETATM   21  C   UNL     1     -43.102 -45.958   9.445  1.00  0.00     0.158 A 
HETATM   22  F   UNL     1     -41.887 -45.451   9.704  1.00  0.00    -0.202 F 
ENDBRANCH   4  15
TORSDOF 3
ENDMDL
MODEL 4
REMARK VINA RESULT:      -5.8      3.511      6.942
REMARK  3 active torsions:
REMARK  status: ('A' for Active; 'I' for Inactive)
REMARK    1  A    between atoms: O_1  and  C_2 
REMARK    2  A    between atoms: C_5  and  N_8 
REMARK       I    between atoms: N_8  and  C_9 
REMARK       I    between atoms: C_9  and  N_11 
REMARK    3  A    between atoms: N_11  and  C_12 
ROOT
HETATM    1  N   UNL     1     -42.567 -52.168  12.203  1.00  0.00    -0.338 N 
HETATM    2  C   UNL     1     -42.285 -50.830  12.357  1.00  0.00     0.321 C 
HETATM    3  O   UNL     1     -42.767 -50.147  13.255  1.00  0.00    -0.247 OA
HETATM    4  N   UNL     1     -41.487 -50.350  11.341  1.00  0.00    -0.306 N 
HETATM    5  H   UNL     1     -41.797 -52.733  11.872  1.00  0.00     0.164 HD
HETATM    6  H   UNL     1     -41.678 -50.807  10.456  1.00  0.00     0.171 HD
ENDROOT
BRANCH   1   7
HETATM    7  C   UNL     1     -43.539 -52.780  13.094  1.00  0.00     0.086 C 
HETATM    8  C   UNL     1     -44.940 -52.787  12.476  1.00  0.00     0.028 C 
HETATM    9  C   UNL     1     -45.956 -53.355  13.465  1.00  0.00     0.034 C 
HETATM   10  C   UNL     1     -45.554 -54.745  13.960  1.00  0.00     0.118 C 
HETATM   11  C   UNL     1     -44.130 -54.766  14.514  1.00  0.00     0.034 C 
HETATM   12  C   UNL     1     -43.128 -54.197  13.515  1.00  0.00     0.028 C 
BRANCH  10  13
HETATM   13  O   UNL     1     -46.442 -55.161  14.990  1.00  0.00    -0.396 OA
HETATM   14  H   UNL     1     -45.936 -55.215  15.817  1.00  0.00     0.210 HD
ENDBRANCH  10  13
ENDBRANCH   1   7
BRANCH   4  15
HETATM   15  C   UNL     1     -41.237 -48.956  11.253  1.00  0.00     0.077 A 
HETATM   16  C   UNL     1     -42.089 -48.111  10.542  1.00  0.00     0.050 A 
HETATM   17  C   UNL     1     -41.723 -46.782  10.405  1.00  0.00     0.090 A 
HETATM   18  N   UNL     1     -40.587 -46.257  10.921  1.00  0.00    -0.372 N 
HETATM   19  C   UNL     1     -39.787 -47.103  11.614  1.00  0.00     0.132 A 
ATOM     20  HN  UNL     1     -40.345 -45.275  10.794  1.00  0.00     0.164 HD
HETATM   21  C   UNL     1     -40.087 -48.437  11.828  1.00  0.00     0.158 A 
HETATM   22  F   UNL     1     -39.238 -49.229  12.500  1.00  0.00    -0.202 F 
ENDBRANCH   4  15
TORSDOF 3
ENDMDL
MODEL 5
REMARK VINA RESULT:      -5.7      4.137      6.849
REMARK  3 active torsions:
REMARK  status: ('A' for Active; 'I' for Inactive)
REMARK    1  A    between atoms: O_1  and  C_2 
REMARK    2  A    between atoms: C_5  and  N_8 
REMARK       I    between atoms: N_8  and  C_9 
REMARK       I    between atoms: C_9  and  N_11 
REMARK    3  A    between atoms: N_11  and  C_12 
ROOT
HETATM    1  N   UNL     1     -43.583 -50.675  12.858  1.00  0.00    -0.338 N 
HETATM    2  C   UNL     1     -43.018 -49.443  12.621  1.00  0.00     0.321 C 
HETATM    3  O   UNL     1     -43.193 -48.477  13.356  1.00  0.00    -0.247 OA
HETATM    4  N   UNL     1     -42.324 -49.414  11.430  1.00  0.00    -0.306 N 
HETATM    5  H   UNL     1     -43.008 -51.466  12.602  1.00  0.00     0.164 HD
HETATM    6  H   UNL     1     -42.751 -50.004  10.724  1.00  0.00     0.171 HD
ENDROOT
BRANCH   1   7
HETATM    7  C   UNL     1     -44.492 -50.816  13.984  1.00  0.00     0.086 C 
HETATM    8  C   UNL     1     -45.838 -51.401  13.549  1.00  0.00     0.028 C 
HETATM    9  C   UNL     1     -46.802 -51.459  14.732  1.00  0.00     0.034 C 
HETATM   10  C   UNL     1     -46.210 -52.231  15.912  1.00  0.00     0.118 C 
HETATM   11  C   UNL     1     -44.833 -51.702  16.310  1.00  0.00     0.034 C 
HETATM   12  C   UNL     1     -43.882 -51.651  15.118  1.00  0.00     0.028 C 
BRANCH  10  13
HETATM   13  O   UNL     1     -47.074 -52.123  17.036  1.00  0.00    -0.396 OA
HETATM   14  H   UNL     1     -46.671 -51.502  17.664  1.00  0.00     0.210 HD
ENDBRANCH  10  13
ENDBRANCH   1   7
BRANCH   4  15
HETATM   15  C   UNL     1     -41.820 -48.177  10.950  1.00  0.00     0.077 A 
HETATM   16  C   UNL     1     -40.561 -47.711  11.330  1.00  0.00     0.050 A 
HETATM   17  C   UNL     1     -40.182 -46.446  10.912  1.00  0.00     0.090 A 
HETATM   18  N   UNL     1     -40.961 -45.637  10.157  1.00  0.00    -0.372 N 
HETATM   19  C   UNL     1     -42.173 -46.125   9.797  1.00  0.00     0.132 A 
ATOM     20  HN  UNL     1     -40.652 -44.708   9.873  1.00  0.00     0.164 HD
HETATM   21  C   UNL     1     -42.624 -47.386  10.141  1.00  0.00     0.158 A 
HETATM   22  F   UNL     1     -43.847 -47.799   9.777  1.00  0.00    -0.202 F 
ENDBRANCH   4  15
TORSDOF 3
ENDMDL
MODEL 6
REMARK VINA RESULT:      -5.6      2.787      7.032
REMARK  3 active torsions:
REMARK  status: ('A' for Active; 'I' for Inactive)
REMARK    1  A    between atoms: O_1  and  C_2 
REMARK    2  A    between atoms: C_5  and  N_8 
REMARK       I    between atoms: N_8  and  C_9 
REMARK       I    between atoms: C_9  and  N_11 
REMARK    3  A    between atoms: N_11  and  C_12 
ROOT
HETATM    1  N   UNL     1     -41.599 -51.419  11.655  1.00  0.00    -0.338 N 
HETATM    2  C   UNL     1     -41.527 -50.059  11.859  1.00  0.00     0.321 C 
HETATM    3  O   UNL     1     -41.825 -49.530  12.925  1.00  0.00    -0.247 OA
HETATM    4  N   UNL     1     -41.175 -49.383  10.711  1.00  0.00    -0.306 N 
HETATM    5  H   UNL     1     -40.879 -51.801  11.058  1.00  0.00     0.164 HD
HETATM    6  H   UNL     1     -41.543 -49.828   9.877  1.00  0.00     0.171 HD
ENDROOT
BRANCH   1   7
HETATM    7  C   UNL     1     -42.128 -52.254  12.721  1.00  0.00     0.086 C 
HETATM    8  C   UNL     1     -43.529 -52.770  12.387  1.00  0.00     0.028 C 
HETATM    9  C   UNL     1     -44.096 -53.572  13.557  1.00  0.00     0.034 C 
HETATM   10  C   UNL     1     -43.163 -54.710  13.972  1.00  0.00     0.118 C 
HETATM   11  C   UNL     1     -41.742 -54.217  14.240  1.00  0.00     0.034 C 
HETATM   12  C   UNL     1     -41.190 -53.419  13.063  1.00  0.00     0.028 C 
BRANCH  10  13
HETATM   13  O   UNL     1     -43.655 -55.323  15.157  1.00  0.00    -0.396 OA
HETATM   14  H   UNL     1     -44.552 -55.649  14.974  1.00  0.00     0.210 HD
ENDBRANCH  10  13
ENDBRANCH   1   7
BRANCH   4  15
HETATM   15  C   UNL     1     -41.217 -47.965  10.700  1.00  0.00     0.077 A 
HETATM   16  C   UNL     1     -40.187 -47.205  11.258  1.00  0.00     0.050 A 
HETATM   17  C   UNL     1     -40.348 -45.830  11.311  1.00  0.00     0.090 A 
HETATM   18  N   UNL     1     -41.445 -45.182  10.855  1.00  0.00    -0.372 N 
HETATM   19  C   UNL     1     -42.421 -45.949  10.311  1.00  0.00     0.132 A 
ATOM     20  HN  UNL     1     -41.532 -44.168  10.917  1.00  0.00     0.164 HD
HETATM   21  C   UNL     1     -42.334 -47.324  10.187  1.00  0.00     0.158 A 
HETATM   22  F   UNL     1     -43.349 -48.028   9.663  1.00  0.00    -0.202 F 
ENDBRANCH   4  15
TORSDOF 3
ENDMDL
MODEL 7
REMARK VINA RESULT:      -5.6      4.146      5.928
REMARK  3 active torsions:
REMARK  status: ('A' for Active; 'I' for Inactive)
REMARK    1  A    between atoms: O_1  and  C_2 
REMARK    2  A    between atoms: C_5  and  N_8 
REMARK       I    between atoms: N_8  and  C_9 
REMARK       I    between atoms: C_9  and  N_11 
REMARK    3  A    between atoms: N_11  and  C_12 
ROOT
HETATM    1  N   UNL     1     -42.351 -50.950  12.046  1.00  0.00    -0.338 N 
HETATM    2  C   UNL     1     -43.154 -51.582  12.969  1.00  0.00     0.321 C 
HETATM    3  O   UNL     1     -42.902 -51.598  14.169  1.00  0.00    -0.247 OA
HETATM    4  N   UNL     1     -44.197 -52.255  12.370  1.00  0.00    -0.306 N 
HETATM    5  H   UNL     1     -42.843 -50.515  11.278  1.00  0.00     0.164 HD
HETATM    6  H   UNL     1     -43.938 -52.635  11.466  1.00  0.00     0.171 HD
ENDROOT
BRANCH   1   7
HETATM    7  C   UNL     1     -41.111 -50.344  12.504  1.00  0.00     0.086 C 
HETATM    8  C   UNL     1     -39.970 -51.364  12.544  1.00  0.00     0.028 C 
HETATM    9  C   UNL     1     -38.703 -50.725  13.109  1.00  0.00     0.034 C 
HETATM   10  C   UNL     1     -38.305 -49.468  12.335  1.00  0.00     0.118 C 
HETATM   11  C   UNL     1     -39.459 -48.473  12.226  1.00  0.00     0.034 C 
HETATM   12  C   UNL     1     -40.716 -49.125  11.660  1.00  0.00     0.028 C 
BRANCH  10  13
HETATM   13  O   UNL     1     -37.219 -48.826  12.991  1.00  0.00    -0.396 OA
HETATM   14  H   UNL     1     -37.450 -48.734  13.930  1.00  0.00     0.210 HD
ENDBRANCH  10  13
ENDBRANCH   1   7
BRANCH   4  15
HETATM   15  C   UNL     1     -45.023 -53.097  13.158  1.00  0.00     0.077 A 
HETATM   16  C   UNL     1     -44.786 -54.469  13.245  1.00  0.00     0.050 A 
HETATM   17  C   UNL     1     -45.699 -55.245  13.942  1.00  0.00     0.090 A 
HETATM   18  N   UNL     1     -46.806 -54.748  14.542  1.00  0.00    -0.372 N 
HETATM   19  C   UNL     1     -47.000 -53.410  14.447  1.00  0.00     0.132 A 
ATOM     20  HN  UNL     1     -47.461 -55.350  15.041  1.00  0.00     0.164 HD
HETATM   21  C   UNL     1     -46.127 -52.555  13.800  1.00  0.00     0.158 A 
HETATM   22  F   UNL     1     -46.391 -51.242  13.717  1.00  0.00    -0.202 F 
ENDBRANCH   4  15
TORSDOF 3
ENDMDL
MODEL 8
REMARK VINA RESULT:      -5.4      1.597      2.139
REMARK  3 active torsions:
REMARK  status: ('A' for Active; 'I' for Inactive)
REMARK    1  A    between atoms: O_1  and  C_2 
REMARK    2  A    between atoms: C_5  and  N_8 
REMARK       I    between atoms: N_8  and  C_9 
REMARK       I    between atoms: C_9  and  N_11 
REMARK    3  A    between atoms: N_11  and  C_12 
ROOT
HETATM    1  N   UNL     1     -41.080 -49.374  10.777  1.00  0.00    -0.338 N 
HETATM    2  C   UNL     1     -41.321 -50.268  11.796  1.00  0.00     0.321 C 
HETATM    3  O   UNL     1     -41.862 -49.947  12.849  1.00  0.00    -0.247 OA
HETATM    4  N   UNL     1     -40.804 -51.516  11.522  1.00  0.00    -0.306 N 
HETATM    5  H   UNL     1     -41.173 -49.753   9.845  1.00  0.00     0.164 HD
HETATM    6  H   UNL     1     -39.945 -51.464  10.983  1.00  0.00     0.171 HD
ENDROOT
BRANCH   1   7
HETATM    7  C   UNL     1     -41.407 -47.974  10.990  1.00  0.00     0.086 C 
HETATM    8  C   UNL     1     -40.146 -47.117  11.120  1.00  0.00     0.028 C 
HETATM    9  C   UNL     1     -40.516 -45.667  11.428  1.00  0.00     0.034 C 
HETATM   10  C   UNL     1     -41.481 -45.093  10.390  1.00  0.00     0.118 C 
HETATM   11  C   UNL     1     -42.711 -45.978  10.200  1.00  0.00     0.034 C 
HETATM   12  C   UNL     1     -42.326 -47.421   9.892  1.00  0.00     0.028 C 
BRANCH  10  13
HETATM   13  O   UNL     1     -41.916 -43.803  10.804  1.00  0.00    -0.396 OA
HETATM   14  H   UNL     1     -41.182 -43.379  11.279  1.00  0.00     0.210 HD
ENDBRANCH  10  13
ENDBRANCH   1   7
BRANCH   4  15
HETATM   15  C   UNL     1     -40.816 -52.511  12.534  1.00  0.00     0.077 A 
HETATM   16  C   UNL     1     -41.896 -53.381  12.681  1.00  0.00     0.050 A 
HETATM   17  C   UNL     1     -41.889 -54.251  13.759  1.00  0.00     0.090 A 
HETATM   18  N   UNL     1     -40.895 -54.306  14.676  1.00  0.00    -0.372 N 
HETATM   19  C   UNL     1     -39.856 -53.454  14.497  1.00  0.00     0.132 A 
ATOM     20  HN  UNL     1     -40.926 -54.955  15.462  1.00  0.00     0.164 HD
HETATM   21  C   UNL     1     -39.763 -52.573  13.435  1.00  0.00     0.158 A 
HETATM   22  F   UNL     1     -38.720 -51.736  13.330  1.00  0.00    -0.202 F 
ENDBRANCH   4  15
TORSDOF 3
ENDMDL
MODEL 9
REMARK VINA RESULT:      -5.3      4.167      5.761
REMARK  3 active torsions:
REMARK  status: ('A' for Active; 'I' for Inactive)
REMARK    1  A    between atoms: O_1  and  C_2 
REMARK    2  A    between atoms: C_5  and  N_8 
REMARK       I    between atoms: N_8  and  C_9 
REMARK       I    between atoms: C_9  and  N_11 
REMARK    3  A    between atoms: N_11  and  C_12 
ROOT
HETATM    1  N   UNL     1     -42.438 -50.588  12.350  1.00  0.00    -0.338 N 
HETATM    2  C   UNL     1     -43.246 -51.333  13.178  1.00  0.00     0.321 C 
HETATM    3  O   UNL     1     -42.939 -51.609  14.334  1.00  0.00    -0.247 OA
HETATM    4  N   UNL     1     -44.369 -51.794  12.527  1.00  0.00    -0.306 N 
HETATM    5  H   UNL     1     -42.928 -49.972  11.715  1.00  0.00     0.164 HD
HETATM    6  H   UNL     1     -44.187 -52.001  11.551  1.00  0.00     0.171 HD
ENDROOT
BRANCH   1   7
HETATM    7  C   UNL     1     -41.131 -50.178  12.838  1.00  0.00     0.086 C 
HETATM    8  C   UNL     1     -40.091 -50.167  11.715  1.00  0.00     0.028 C 
HETATM    9  C   UNL     1     -38.712 -49.819  12.269  1.00  0.00     0.034 C 
HETATM   10  C   UNL     1     -38.723 -48.496  13.036  1.00  0.00     0.118 C 
HETATM   11  C   UNL     1     -39.806 -48.468  14.113  1.00  0.00     0.034 C 
HETATM   12  C   UNL     1     -41.177 -48.817  13.544  1.00  0.00     0.028 C 
BRANCH  10  13
HETATM   13  O   UNL     1     -37.462 -48.295  13.662  1.00  0.00    -0.396 OA
HETATM   14  H   UNL     1     -37.282 -49.066  14.224  1.00  0.00     0.210 HD
ENDBRANCH  10  13
ENDBRANCH   1   7
BRANCH   4  15
HETATM   15  C   UNL     1     -45.225 -52.715  13.184  1.00  0.00     0.077 A 
HETATM   16  C   UNL     1     -46.311 -52.280  13.944  1.00  0.00     0.050 A 
HETATM   17  C   UNL     1     -47.034 -53.230  14.648  1.00  0.00     0.090 A 
HETATM   18  N   UNL     1     -46.749 -54.553  14.641  1.00  0.00    -0.372 N 
HETATM   19  C   UNL     1     -45.694 -54.942  13.884  1.00  0.00     0.132 A 
ATOM     20  HN  UNL     1     -47.299 -55.223  15.177  1.00  0.00     0.164 HD
HETATM   21  C   UNL     1     -44.934 -54.070  13.125  1.00  0.00     0.158 A 
HETATM   22  F   UNL     1     -43.884 -54.516  12.418  1.00  0.00    -0.202 F 
ENDBRANCH   4  15
TORSDOF 3
ENDMDL
