MODEL 1
REMARK VINA RESULT:      -4.1      0.000      0.000
REMARK  3 active torsions:
REMARK  status: ('A' for Active; 'I' for Inactive)
REMARK    1  A    between atoms: C_9  and  C_10 
REMARK    2  A    between atoms: C_10  and  C_11 
REMARK    3  A    between atoms: C_11  and  N_12 
ROOT
HETATM    1  C   UNL     2     -43.279 -48.218   7.304  1.00  0.00     0.070 C 
HETATM    2  C   UNL     2     -44.403 -47.785   8.188  1.00  0.00     0.029 A 
HETATM    3  N   UNL     2     -45.654 -48.270   8.117  1.00  0.00    -0.354 N 
HETATM    4  C   UNL     2     -46.349 -47.623   9.072  1.00  0.00     0.180 A 
HETATM    5  N   UNL     2     -45.589 -46.737   9.749  1.00  0.00    -0.354 N 
ATOM      6  HN  UNL     2     -45.877 -46.125  10.512  1.00  0.00     0.166 HD
HETATM    7  C   UNL     2     -44.362 -46.840   9.195  1.00  0.00     0.034 A 
HETATM    8  H   UNL     2     -46.018 -48.997   7.460  1.00  0.00     0.166 HD
ENDROOT
BRANCH   7   9
HETATM    9  C   UNL     2     -43.183 -46.010   9.621  1.00  0.00     0.089 C 
BRANCH   9  10
HETATM   10  C   UNL     2     -42.246 -46.797  10.538  1.00  0.00     0.272 C 
BRANCH  10  11
HETATM   11  N   UNL     2     -40.857 -46.464  10.242  1.00  0.00     0.078 N 
HETATM   12  H   UNL     2     -40.264 -47.321  10.334  1.00  0.00     0.312 HD
HETATM   13  H   UNL     2     -40.519 -45.760  10.935  1.00  0.00     0.312 HD
ENDBRANCH  10  11
ENDBRANCH   9  10
ENDBRANCH   7   9
TORSDOF 3
ENDMDL
MODEL 2
REMARK VINA RESULT:      -3.9      7.083      7.491
REMARK  3 active torsions:
REMARK  status: ('A' for Active; 'I' for Inactive)
REMARK    1  A    between atoms: C_9  and  C_10 
REMARK    2  A    between atoms: C_10  and  C_11 
REMARK    3  A    between atoms: C_11  and  N_12 
ROOT
HETATM    1  C   UNL     2     -46.386 -51.615  12.925  1.00  0.00     0.070 C 
HETATM    2  C   UNL     2     -45.694 -52.916  13.176  1.00  0.00     0.029 A 
HETATM    3  N   UNL     2     -46.300 -54.021  13.639  1.00  0.00    -0.354 N 
HETATM    4  C   UNL     2     -45.336 -54.956  13.725  1.00  0.00     0.180 A 
HETATM    5  N   UNL     2     -44.131 -54.488  13.337  1.00  0.00    -0.354 N 
ATOM      6  HN  UNL     2     -43.245 -54.993  13.313  1.00  0.00     0.166 HD
HETATM    7  C   UNL     2     -44.356 -53.203  12.989  1.00  0.00     0.034 A 
HETATM    8  H   UNL     2     -47.310 -54.137  13.885  1.00  0.00     0.166 HD
ENDROOT
BRANCH   7   9
HETATM    9  C   UNL     2     -43.279 -52.269  12.512  1.00  0.00     0.089 C 
BRANCH   9  10
HETATM   10  C   UNL     2     -41.908 -52.946  12.514  1.00  0.00     0.272 C 
BRANCH  10  11
HETATM   11  N   UNL     2     -41.204 -52.658  11.269  1.00  0.00     0.078 N 
HETATM   12  H   UNL     2     -40.202 -52.948  11.359  1.00  0.00     0.312 HD
HETATM   13  H   UNL     2     -41.229 -51.630  11.091  1.00  0.00     0.312 HD
ENDBRANCH  10  11
ENDBRANCH   9  10
ENDBRANCH   7   9
TORSDOF 3
ENDMDL
MODEL 3
REMARK VINA RESULT:      -3.8      2.106      3.378
REMARK  3 active torsions:
REMARK  status: ('A' for Active; 'I' for Inactive)
REMARK    1  A    between atoms: C_9  and  C_10 
REMARK    2  A    between atoms: C_10  and  C_11 
REMARK    3  A    between atoms: C_11  and  N_12 
ROOT
HETATM    1  C   UNL     2     -42.351 -44.825  11.241  1.00  0.00     0.070 C 
HETATM    2  C   UNL     2     -42.718 -45.902  10.273  1.00  0.00     0.029 A 
HETATM    3  N   UNL     2     -43.718 -45.813   9.382  1.00  0.00    -0.354 N 
HETATM    4  C   UNL     2     -43.716 -46.982   8.714  1.00  0.00     0.180 A 
HETATM    5  N   UNL     2     -42.751 -47.819   9.149  1.00  0.00    -0.354 N 
ATOM      6  HN  UNL     2     -42.545 -48.759   8.812  1.00  0.00     0.166 HD
HETATM    7  C   UNL     2     -42.120 -47.139  10.130  1.00  0.00     0.034 A 
HETATM    8  H   UNL     2     -44.368 -45.007   9.234  1.00  0.00     0.166 HD
ENDROOT
BRANCH   7   9
HETATM    9  C   UNL     2     -40.977 -47.700  10.929  1.00  0.00     0.089 C 
BRANCH   9  10
HETATM   10  C   UNL     2     -41.207 -49.170  11.281  1.00  0.00     0.272 C 
BRANCH  10  11
HETATM   11  N   UNL     2     -40.358 -50.023  10.456  1.00  0.00     0.078 N 
HETATM   12  H   UNL     2     -39.514 -50.312  11.003  1.00  0.00     0.312 HD
HETATM   13  H   UNL     2     -40.034 -49.481   9.624  1.00  0.00     0.312 HD
ENDBRANCH  10  11
ENDBRANCH   9  10
ENDBRANCH   7   9
TORSDOF 3
ENDMDL
MODEL 4
REMARK VINA RESULT:      -3.7      8.048      8.541
REMARK  3 active torsions:
REMARK  status: ('A' for Active; 'I' for Inactive)
REMARK    1  A    between atoms: C_9  and  C_10 
REMARK    2  A    between atoms: C_10  and  C_11 
REMARK    3  A    between atoms: C_11  and  N_12 
ROOT
HETATM    1  C   UNL     2     -42.298 -55.139  15.756  1.00  0.00     0.070 C 
HETATM    2  C   UNL     2     -43.116 -54.742  14.571  1.00  0.00     0.029 A 
HETATM    3  N   UNL     2     -44.457 -54.807  14.519  1.00  0.00    -0.354 N 
HETATM    4  C   UNL     2     -44.794 -54.366  13.293  1.00  0.00     0.180 A 
HETATM    5  N   UNL     2     -43.717 -54.025  12.555  1.00  0.00    -0.354 N 
ATOM      6  HN  UNL     2     -43.704 -53.669  11.599  1.00  0.00     0.166 HD
HETATM    7  C   UNL     2     -42.659 -54.259  13.361  1.00  0.00     0.034 A 
HETATM    8  H   UNL     2     -45.107 -55.131  15.270  1.00  0.00     0.166 HD
ENDROOT
BRANCH   7   9
HETATM    9  C   UNL     2     -41.231 -54.043  12.944  1.00  0.00     0.089 C 
BRANCH   9  10
HETATM   10  C   UNL     2     -40.973 -52.585  12.560  1.00  0.00     0.272 C 
BRANCH  10  11
HETATM   11  N   UNL     2     -41.135 -52.409  11.120  1.00  0.00     0.078 N 
HETATM   12  H   UNL     2     -42.146 -52.262  10.897  1.00  0.00     0.312 HD
HETATM   13  H   UNL     2     -40.818 -53.275  10.632  1.00  0.00     0.312 HD
ENDBRANCH  10  11
ENDBRANCH   9  10
ENDBRANCH   7   9
TORSDOF 3
ENDMDL
MODEL 5
REMARK VINA RESULT:      -3.7      1.796      2.962
REMARK  3 active torsions:
REMARK  status: ('A' for Active; 'I' for Inactive)
REMARK    1  A    between atoms: C_9  and  C_10 
REMARK    2  A    between atoms: C_10  and  C_11 
REMARK    3  A    between atoms: C_11  and  N_12 
ROOT
HETATM    1  C   UNL     2     -43.040 -48.537  12.149  1.00  0.00     0.070 C 
HETATM    2  C   UNL     2     -43.105 -47.814  10.843  1.00  0.00     0.029 A 
HETATM    3  N   UNL     2     -44.152 -47.858  10.003  1.00  0.00    -0.354 N 
HETATM    4  C   UNL     2     -43.811 -47.083   8.957  1.00  0.00     0.180 A 
HETATM    5  N   UNL     2     -42.580 -46.547   9.094  1.00  0.00    -0.354 N 
ATOM      6  HN  UNL     2     -42.093 -45.932   8.443  1.00  0.00     0.166 HD
HETATM    7  C   UNL     2     -42.135 -47.005  10.283  1.00  0.00     0.034 A 
HETATM    8  H   UNL     2     -45.047 -48.383  10.129  1.00  0.00     0.166 HD
ENDROOT
BRANCH   7   9
HETATM    9  C   UNL     2     -40.779 -46.683  10.846  1.00  0.00     0.089 C 
BRANCH   9  10
HETATM   10  C   UNL     2     -40.354 -45.255  10.501  1.00  0.00     0.272 C 
BRANCH  10  11
HETATM   11  N   UNL     2     -39.255 -45.275   9.542  1.00  0.00     0.078 N 
HETATM   12  H   UNL     2     -38.486 -45.887   9.903  1.00  0.00     0.312 HD
HETATM   13  H   UNL     2     -38.876 -44.309   9.435  1.00  0.00     0.312 HD
ENDBRANCH  10  11
ENDBRANCH   9  10
ENDBRANCH   7   9
TORSDOF 3
ENDMDL
MODEL 6
REMARK VINA RESULT:      -3.7      1.410      4.113
REMARK  3 active torsions:
REMARK  status: ('A' for Active; 'I' for Inactive)
REMARK    1  A    between atoms: C_9  and  C_10 
REMARK    2  A    between atoms: C_10  and  C_11 
REMARK    3  A    between atoms: C_11  and  N_12 
ROOT
HETATM    1  C   UNL     2     -42.371 -44.757  10.853  1.00  0.00     0.070 C 
HETATM    2  C   UNL     2     -42.254 -46.219  10.569  1.00  0.00     0.029 A 
HETATM    3  N   UNL     2     -41.280 -47.010  11.047  1.00  0.00    -0.354 N 
HETATM    4  C   UNL     2     -41.536 -48.238  10.559  1.00  0.00     0.180 A 
HETATM    5  N   UNL     2     -42.638 -48.262   9.781  1.00  0.00    -0.354 N 
ATOM      6  HN  UNL     2     -43.039 -49.063   9.295  1.00  0.00     0.166 HD
HETATM    7  C   UNL     2     -43.093 -46.991   9.789  1.00  0.00     0.034 A 
HETATM    8  H   UNL     2     -40.485 -46.735  11.668  1.00  0.00     0.166 HD
ENDROOT
BRANCH   7   9
HETATM    9  C   UNL     2     -44.305 -46.536   9.024  1.00  0.00     0.089 C 
BRANCH   9  10
HETATM   10  C   UNL     2     -45.487 -47.483   9.232  1.00  0.00     0.272 C 
BRANCH  10  11
HETATM   11  N   UNL     2     -45.672 -48.323   8.053  1.00  0.00     0.078 N 
HETATM   12  H   UNL     2     -46.458 -48.993   8.221  1.00  0.00     0.312 HD
HETATM   13  H   UNL     2     -44.803 -48.877   7.889  1.00  0.00     0.312 HD
ENDBRANCH  10  11
ENDBRANCH   9  10
ENDBRANCH   7   9
TORSDOF 3
ENDMDL
MODEL 7
REMARK VINA RESULT:      -3.6      6.987      8.069
REMARK  3 active torsions:
REMARK  status: ('A' for Active; 'I' for Inactive)
REMARK    1  A    between atoms: C_9  and  C_10 
REMARK    2  A    between atoms: C_10  and  C_11 
REMARK    3  A    between atoms: C_11  and  N_12 
ROOT
HETATM    1  C   UNL     2     -42.499 -54.693  14.726  1.00  0.00     0.070 C 
HETATM    2  C   UNL     2     -42.292 -53.808  13.540  1.00  0.00     0.029 A 
HETATM    3  N   UNL     2     -41.109 -53.281  13.184  1.00  0.00    -0.354 N 
HETATM    4  C   UNL     2     -41.353 -52.553  12.078  1.00  0.00     0.180 A 
HETATM    5  N   UNL     2     -42.652 -52.591  11.716  1.00  0.00    -0.354 N 
ATOM      6  HN  UNL     2     -43.091 -52.123  10.922  1.00  0.00     0.166 HD
HETATM    7  C   UNL     2     -43.244 -53.383  12.634  1.00  0.00     0.034 A 
HETATM    8  H   UNL     2     -40.188 -53.406  13.662  1.00  0.00     0.166 HD
ENDROOT
BRANCH   7   9
HETATM    9  C   UNL     2     -44.715 -53.692  12.643  1.00  0.00     0.089 C 
BRANCH   9  10
HETATM   10  C   UNL     2     -45.553 -52.430  12.853  1.00  0.00     0.272 C 
BRANCH  10  11
HETATM   11  N   UNL     2     -46.513 -52.277  11.764  1.00  0.00     0.078 N 
HETATM   12  H   UNL     2     -46.002 -52.082  10.872  1.00  0.00     0.312 HD
HETATM   13  H   UNL     2     -47.133 -51.463  11.967  1.00  0.00     0.312 HD
ENDBRANCH  10  11
ENDBRANCH   9  10
ENDBRANCH   7   9
TORSDOF 3
ENDMDL
MODEL 8
REMARK VINA RESULT:      -3.6      3.832      5.036
REMARK  3 active torsions:
REMARK  status: ('A' for Active; 'I' for Inactive)
REMARK    1  A    between atoms: C_9  and  C_10 
REMARK    2  A    between atoms: C_10  and  C_11 
REMARK    3  A    between atoms: C_11  and  N_12 
ROOT
HETATM    1  C   UNL     2     -42.694 -46.218  12.889  1.00  0.00     0.070 C 
HETATM    2  C   UNL     2     -41.639 -45.896  11.882  1.00  0.00     0.029 A 
HETATM    3  N   UNL     2     -40.945 -44.747  11.850  1.00  0.00    -0.354 N 
HETATM    4  C   UNL     2     -40.108 -44.856  10.802  1.00  0.00     0.180 A 
HETATM    5  N   UNL     2     -40.244 -46.033  10.156  1.00  0.00    -0.354 N 
ATOM      6  HN  UNL     2     -39.733 -46.355   9.335  1.00  0.00     0.166 HD
HETATM    7  C   UNL     2     -41.207 -46.690  10.837  1.00  0.00     0.034 A 
HETATM    8  H   UNL     2     -41.032 -43.934  12.501  1.00  0.00     0.166 HD
ENDROOT
BRANCH   7   9
HETATM    9  C   UNL     2     -41.714 -48.053  10.455  1.00  0.00     0.089 C 
BRANCH   9  10
HETATM   10  C   UNL     2     -41.028 -49.153  11.266  1.00  0.00     0.272 C 
BRANCH  10  11
HETATM   11  N   UNL     2     -40.316 -50.064  10.375  1.00  0.00     0.078 N 
HETATM   12  H   UNL     2     -39.740 -49.512   9.697  1.00  0.00     0.312 HD
HETATM   13  H   UNL     2     -41.010 -50.622   9.830  1.00  0.00     0.312 HD
ENDBRANCH  10  11
ENDBRANCH   9  10
ENDBRANCH   7   9
TORSDOF 3
ENDMDL
MODEL 9
REMARK VINA RESULT:      -3.5      3.342      4.662
REMARK  3 active torsions:
REMARK  status: ('A' for Active; 'I' for Inactive)
REMARK    1  A    between atoms: C_9  and  C_10 
REMARK    2  A    between atoms: C_10  and  C_11 
REMARK    3  A    between atoms: C_11  and  N_12 
ROOT
HETATM    1  C   UNL     2     -43.006 -49.434  13.252  1.00  0.00     0.070 C 
HETATM    2  C   UNL     2     -42.570 -48.927  11.917  1.00  0.00     0.029 A 
HETATM    3  N   UNL     2     -43.297 -48.104  11.144  1.00  0.00    -0.354 N 
HETATM    4  C   UNL     2     -42.556 -47.893  10.039  1.00  0.00     0.180 A 
HETATM    5  N   UNL     2     -41.381 -48.556  10.076  1.00  0.00    -0.354 N 
ATOM      6  HN  UNL     2     -40.649 -48.565   9.365  1.00  0.00     0.166 HD
HETATM    7  C   UNL     2     -41.388 -49.206  11.259  1.00  0.00     0.034 A 
HETATM    8  H   UNL     2     -44.241 -47.707  11.350  1.00  0.00     0.166 HD
ENDROOT
BRANCH   7   9
HETATM    9  C   UNL     2     -40.275 -50.104  11.722  1.00  0.00     0.089 C 
BRANCH   9  10
HETATM   10  C   UNL     2     -38.931 -49.374  11.730  1.00  0.00     0.272 C 
BRANCH  10  11
HETATM   11  N   UNL     2     -37.988 -50.048  10.844  1.00  0.00     0.078 N 
HETATM   12  H   UNL     2     -37.584 -49.356  10.171  1.00  0.00     0.312 HD
HETATM   13  H   UNL     2     -38.495 -50.776  10.294  1.00  0.00     0.312 HD
ENDBRANCH  10  11
ENDBRANCH   9  10
ENDBRANCH   7   9
TORSDOF 3
ENDMDL
