MODEL 1
REMARK VINA RESULT:      -6.5      0.000      0.000
REMARK  4 active torsions:
REMARK  status: ('A' for Active; 'I' for Inactive)
REMARK       I    between atoms: N_2  and  C_3 
REMARK    1  A    between atoms: C_3  and  C_5 
REMARK    2  A    between atoms: C_5  and  N_6 
REMARK    3  A    between atoms: C_9  and  N_12 
REMARK       I    between atoms: N_12  and  C_13 
REMARK       I    between atoms: C_13  and  N_15 
REMARK    4  A    between atoms: N_15  and  C_16 
ROOT
HETATM    1  N   UNL     1     -43.351 -49.741  12.306  1.00  0.00    -0.338 N 
HETATM    2  C   UNL     1     -43.957 -50.604  13.194  1.00  0.00     0.322 C 
HETATM    3  O   UNL     1     -43.944 -50.413  14.406  1.00  0.00    -0.247 OA
HETATM    4  N   UNL     1     -44.504 -51.694  12.562  1.00  0.00    -0.295 N 
HETATM    5  H   UNL     1     -43.794 -49.682  11.398  1.00  0.00     0.164 HD
HETATM    6  H   UNL     1     -43.979 -52.039  11.772  1.00  0.00     0.172 HD
ENDROOT
BRANCH   1   7
HETATM    7  C   UNL     1     -42.661 -48.563  12.828  1.00  0.00     0.089 C 
HETATM    8  C   UNL     1     -43.192 -47.267  12.209  1.00  0.00     0.055 C 
HETATM    9  C   UNL     1     -42.646 -47.034  10.796  1.00  0.00     0.275 C 
HETATM   10  N   UNL     1     -41.169 -47.098  10.694  1.00  0.00     0.097 N 
HETATM   11  C   UNL     1     -40.698 -48.383  11.238  1.00  0.00     0.275 C 
HETATM   12  C   UNL     1     -41.148 -48.681  12.665  1.00  0.00     0.055 C 
BRANCH  10  13
HETATM   13  C   UNL     1     -40.572 -45.903  11.349  1.00  0.00     0.374 C 
BRANCH  13  14
HETATM   14  C   UNL     1     -39.994 -44.877  10.372  1.00  0.00     0.245 C 
HETATM   15  N   UNL     1     -39.076 -45.368   9.475  1.00  0.00    -0.364 N 
HETATM   16  C   UNL     1     -38.412 -44.504   8.536  1.00  0.00     0.149 C 
HETATM   17  H   UNL     1     -38.795 -46.338   9.586  1.00  0.00     0.161 HD
HETATM   18  O   UNL     1     -40.375 -43.708  10.369  1.00  0.00    -0.272 OA
ENDBRANCH  13  14
ENDBRANCH  10  13
ENDBRANCH   1   7
BRANCH   4  19
HETATM   19  C   UNL     1     -45.084 -52.731  13.302  1.00  0.00     0.108 A 
HETATM   20  C   UNL     1     -44.657 -54.049  13.166  1.00  0.00     0.049 A 
HETATM   21  C   UNL     1     -45.364 -55.052  13.819  1.00  0.00     0.005 A 
HETATM   22  C   UNL     1     -46.468 -54.707  14.586  1.00  0.00     0.017 A 
HETATM   23  C   UNL     1     -46.785 -53.363  14.708  1.00  0.00     0.089 A 
HETATM   24  N   UNL     1     -46.096 -52.363  14.113  1.00  0.00    -0.352 N 
ATOM     25  HN  UNL     1     -46.330 -51.383  14.268  1.00  0.00     0.166 HD
ENDBRANCH   4  19
TORSDOF 4
ENDMDL
MODEL 2
REMARK VINA RESULT:      -6.4      0.822      1.335
REMARK  4 active torsions:
REMARK  status: ('A' for Active; 'I' for Inactive)
REMARK       I    between atoms: N_2  and  C_3 
REMARK    1  A    between atoms: C_3  and  C_5 
REMARK    2  A    between atoms: C_5  and  N_6 
REMARK    3  A    between atoms: C_9  and  N_12 
REMARK       I    between atoms: N_12  and  C_13 
REMARK       I    between atoms: C_13  and  N_15 
REMARK    4  A    between atoms: N_15  and  C_16 
ROOT
HETATM    1  N   UNL     1     -43.424 -49.520  12.333  1.00  0.00    -0.338 N 
HETATM    2  C   UNL     1     -43.759 -50.648  13.051  1.00  0.00     0.322 C 
HETATM    3  O   UNL     1     -42.978 -51.184  13.830  1.00  0.00    -0.247 OA
HETATM    4  N   UNL     1     -45.018 -51.101  12.742  1.00  0.00    -0.295 N 
HETATM    5  H   UNL     1     -44.196 -48.897  12.131  1.00  0.00     0.164 HD
HETATM    6  H   UNL     1     -45.283 -51.000  11.774  1.00  0.00     0.172 HD
ENDROOT
BRANCH   1   7
HETATM    7  C   UNL     1     -42.089 -48.949  12.498  1.00  0.00     0.089 C 
HETATM    8  C   UNL     1     -42.128 -47.598  13.215  1.00  0.00     0.055 C 
HETATM    9  C   UNL     1     -42.562 -46.460  12.285  1.00  0.00     0.275 C 
HETATM   10  N   UNL     1     -41.780 -46.367  11.029  1.00  0.00     0.097 N 
HETATM   11  C   UNL     1     -41.818 -47.664  10.333  1.00  0.00     0.275 C 
HETATM   12  C   UNL     1     -41.352 -48.854  11.165  1.00  0.00     0.055 C 
BRANCH  10  13
HETATM   13  C   UNL     1     -40.409 -45.877  11.331  1.00  0.00     0.374 C 
BRANCH  13  14
HETATM   14  C   UNL     1     -39.882 -44.837  10.340  1.00  0.00     0.245 C 
HETATM   15  N   UNL     1     -39.001 -45.313   9.398  1.00  0.00    -0.364 N 
HETATM   16  C   UNL     1     -38.387 -44.435   8.439  1.00  0.00     0.149 C 
HETATM   17  H   UNL     1     -38.709 -46.281   9.488  1.00  0.00     0.161 HD
HETATM   18  O   UNL     1     -40.271 -43.671  10.365  1.00  0.00    -0.272 OA
ENDBRANCH  13  14
ENDBRANCH  10  13
ENDBRANCH   1   7
BRANCH   4  19
HETATM   19  C   UNL     1     -45.505 -52.290  13.299  1.00  0.00     0.108 A 
HETATM   20  C   UNL     1     -46.538 -52.287  14.232  1.00  0.00     0.049 A 
HETATM   21  C   UNL     1     -46.880 -53.482  14.854  1.00  0.00     0.005 A 
HETATM   22  C   UNL     1     -46.185 -54.636  14.524  1.00  0.00     0.017 A 
HETATM   23  C   UNL     1     -45.208 -54.554  13.544  1.00  0.00     0.089 A 
HETATM   24  N   UNL     1     -44.877 -53.413  12.897  1.00  0.00    -0.352 N 
ATOM     25  HN  UNL     1     -44.188 -53.403  12.145  1.00  0.00     0.166 HD
ENDBRANCH   4  19
TORSDOF 4
ENDMDL
MODEL 3
REMARK VINA RESULT:      -5.7      4.364      8.723
REMARK  4 active torsions:
REMARK  status: ('A' for Active; 'I' for Inactive)
REMARK       I    between atoms: N_2  and  C_3 
REMARK    1  A    between atoms: C_3  and  C_5 
REMARK    2  A    between atoms: C_5  and  N_6 
REMARK    3  A    between atoms: C_9  and  N_12 
REMARK       I    between atoms: N_12  and  C_13 
REMARK       I    between atoms: C_13  and  N_15 
REMARK    4  A    between atoms: N_15  and  C_16 
ROOT
HETATM    1  N   UNL     1     -41.132 -51.203  12.362  1.00  0.00    -0.338 N 
HETATM    2  C   UNL     1     -41.666 -49.952  12.138  1.00  0.00     0.322 C 
HETATM    3  O   UNL     1     -42.484 -49.443  12.899  1.00  0.00    -0.247 OA
HETATM    4  N   UNL     1     -41.217 -49.401  10.963  1.00  0.00    -0.295 N 
HETATM    5  H   UNL     1     -40.186 -51.330  12.024  1.00  0.00     0.164 HD
HETATM    6  H   UNL     1     -41.085 -50.057  10.207  1.00  0.00     0.172 HD
ENDROOT
BRANCH   1   7
HETATM    7  C   UNL     1     -41.561 -51.953  13.540  1.00  0.00     0.089 C 
HETATM    8  C   UNL     1     -40.564 -51.828  14.694  1.00  0.00     0.055 C 
HETATM    9  C   UNL     1     -39.336 -52.725  14.499  1.00  0.00     0.275 C 
HETATM   10  N   UNL     1     -39.656 -54.147  14.231  1.00  0.00     0.097 N 
HETATM   11  C   UNL     1     -40.565 -54.235  13.076  1.00  0.00     0.275 C 
HETATM   12  C   UNL     1     -41.845 -53.414  13.201  1.00  0.00     0.055 C 
BRANCH  10  13
HETATM   13  C   UNL     1     -40.182 -54.781  15.470  1.00  0.00     0.374 C 
BRANCH  13  14
HETATM   14  C   UNL     1     -39.246 -55.822  16.088  1.00  0.00     0.245 C 
HETATM   15  N   UNL     1     -39.797 -56.593  17.084  1.00  0.00    -0.364 N 
HETATM   16  C   UNL     1     -39.015 -57.574  17.788  1.00  0.00     0.149 C 
HETATM   17  H   UNL     1     -40.738 -56.356  17.383  1.00  0.00     0.161 HD
HETATM   18  O   UNL     1     -38.099 -55.981  15.674  1.00  0.00    -0.272 OA
ENDBRANCH  13  14
ENDBRANCH  10  13
ENDBRANCH   1   7
BRANCH   4  19
HETATM   19  C   UNL     1     -41.717 -48.173  10.514  1.00  0.00     0.108 A 
HETATM   20  C   UNL     1     -41.031 -46.983  10.736  1.00  0.00     0.049 A 
HETATM   21  C   UNL     1     -41.644 -45.783  10.394  1.00  0.00     0.005 A 
HETATM   22  C   UNL     1     -42.916 -45.812   9.841  1.00  0.00     0.017 A 
HETATM   23  C   UNL     1     -43.499 -47.047   9.605  1.00  0.00     0.089 A 
HETATM   24  N   UNL     1     -42.914 -48.230   9.896  1.00  0.00    -0.352 N 
ATOM     25  HN  UNL     1     -43.353 -49.120   9.660  1.00  0.00     0.166 HD
ENDBRANCH   4  19
TORSDOF 4
ENDMDL
MODEL 4
REMARK VINA RESULT:      -5.5      2.497      8.858
REMARK  4 active torsions:
REMARK  status: ('A' for Active; 'I' for Inactive)
REMARK       I    between atoms: N_2  and  C_3 
REMARK    1  A    between atoms: C_3  and  C_5 
REMARK    2  A    between atoms: C_5  and  N_6 
REMARK    3  A    between atoms: C_9  and  N_12 
REMARK       I    between atoms: N_12  and  C_13 
REMARK       I    between atoms: C_13  and  N_15 
REMARK    4  A    between atoms: N_15  and  C_16 
ROOT
HETATM    1  N   UNL     1     -40.859 -49.981  12.611  1.00  0.00    -0.338 N 
HETATM    2  C   UNL     1     -40.972 -48.733  12.037  1.00  0.00     0.322 C 
HETATM    3  O   UNL     1     -41.799 -48.485  11.166  1.00  0.00    -0.247 OA
HETATM    4  N   UNL     1     -40.028 -47.858  12.516  1.00  0.00    -0.295 N 
HETATM    5  H   UNL     1     -40.552 -49.982  13.576  1.00  0.00     0.164 HD
HETATM    6  H   UNL     1     -39.125 -48.267  12.709  1.00  0.00     0.172 HD
ENDROOT
BRANCH   1   7
HETATM    7  C   UNL     1     -41.751 -51.048  12.160  1.00  0.00     0.089 C 
HETATM    8  C   UNL     1     -42.936 -51.245  13.108  1.00  0.00     0.055 C 
HETATM    9  C   UNL     1     -42.547 -52.024  14.369  1.00  0.00     0.275 C 
HETATM   10  N   UNL     1     -41.867 -53.314  14.103  1.00  0.00     0.097 N 
HETATM   11  C   UNL     1     -40.695 -53.080  13.242  1.00  0.00     0.275 C 
HETATM   12  C   UNL     1     -40.993 -52.354  11.934  1.00  0.00     0.055 C 
BRANCH  10  13
HETATM   13  C   UNL     1     -42.845 -54.288  13.549  1.00  0.00     0.374 C 
BRANCH  13  14
HETATM   14  C   UNL     1     -44.014 -54.604  14.484  1.00  0.00     0.245 C 
HETATM   15  N   UNL     1     -45.264 -54.341  13.976  1.00  0.00    -0.364 N 
HETATM   16  C   UNL     1     -46.449 -54.540  14.766  1.00  0.00     0.149 C 
HETATM   17  H   UNL     1     -45.307 -53.885  13.070  1.00  0.00     0.161 HD
HETATM   18  O   UNL     1     -43.833 -55.108  15.591  1.00  0.00    -0.272 OA
ENDBRANCH  13  14
ENDBRANCH  10  13
ENDBRANCH   1   7
BRANCH   4  19
HETATM   19  C   UNL     1     -39.919 -46.567  11.988  1.00  0.00     0.108 A 
HETATM   20  C   UNL     1     -39.899 -45.443  12.809  1.00  0.00     0.049 A 
HETATM   21  C   UNL     1     -39.934 -44.184  12.222  1.00  0.00     0.005 A 
HETATM   22  C   UNL     1     -39.984 -44.088  10.839  1.00  0.00     0.017 A 
HETATM   23  C   UNL     1     -39.945 -45.261  10.100  1.00  0.00     0.089 A 
HETATM   24  N   UNL     1     -39.877 -46.497  10.642  1.00  0.00    -0.352 N 
ATOM     25  HN  UNL     1     -39.798 -47.334  10.064  1.00  0.00     0.166 HD
ENDBRANCH   4  19
TORSDOF 4
ENDMDL
MODEL 5
REMARK VINA RESULT:      -5.2      4.548      7.056
REMARK  4 active torsions:
REMARK  status: ('A' for Active; 'I' for Inactive)
REMARK       I    between atoms: N_2  and  C_3 
REMARK    1  A    between atoms: C_3  and  C_5 
REMARK    2  A    between atoms: C_5  and  N_6 
REMARK    3  A    between atoms: C_9  and  N_12 
REMARK       I    between atoms: N_12  and  C_13 
REMARK       I    between atoms: C_13  and  N_15 
REMARK    4  A    between atoms: N_15  and  C_16 
ROOT
HETATM    1  N   UNL     1     -39.804 -47.879  12.817  1.00  0.00    -0.338 N 
HETATM    2  C   UNL     1     -39.289 -48.284  14.029  1.00  0.00     0.322 C 
HETATM    3  O   UNL     1     -39.990 -48.420  15.027  1.00  0.00    -0.247 OA
HETATM    4  N   UNL     1     -37.927 -48.453  13.981  1.00  0.00    -0.295 N 
HETATM    5  H   UNL     1     -39.327 -48.249  12.005  1.00  0.00     0.164 HD
HETATM    6  H   UNL     1     -37.435 -47.792  13.398  1.00  0.00     0.172 HD
ENDROOT
BRANCH   1   7
HETATM    7  C   UNL     1     -41.234 -47.590  12.719  1.00  0.00     0.089 C 
HETATM    8  C   UNL     1     -41.970 -48.625  11.864  1.00  0.00     0.055 C 
HETATM    9  C   UNL     1     -41.760 -48.392  10.363  1.00  0.00     0.275 C 
HETATM   10  N   UNL     1     -42.075 -47.017   9.911  1.00  0.00     0.097 N 
HETATM   11  C   UNL     1     -41.301 -46.051  10.709  1.00  0.00     0.275 C 
HETATM   12  C   UNL     1     -41.486 -46.171  12.219  1.00  0.00     0.055 C 
BRANCH  10  13
HETATM   13  C   UNL     1     -43.546 -46.802   9.951  1.00  0.00     0.374 C 
BRANCH  13  14
HETATM   14  C   UNL     1     -44.319 -47.546   8.860  1.00  0.00     0.245 C 
HETATM   15  N   UNL     1     -45.589 -47.943   9.204  1.00  0.00    -0.364 N 
HETATM   16  C   UNL     1     -46.408 -48.699   8.293  1.00  0.00     0.149 C 
HETATM   17  H   UNL     1     -45.875 -47.791  10.166  1.00  0.00     0.161 HD
HETATM   18  O   UNL     1     -43.842 -47.720   7.741  1.00  0.00    -0.272 OA
ENDBRANCH  13  14
ENDBRANCH  10  13
ENDBRANCH   1   7
BRANCH   4  19
HETATM   19  C   UNL     1     -37.206 -48.773  15.137  1.00  0.00     0.108 A 
HETATM   20  C   UNL     1     -36.354 -47.854  15.742  1.00  0.00     0.049 A 
HETATM   21  C   UNL     1     -35.559 -48.274  16.801  1.00  0.00     0.005 A 
HETATM   22  C   UNL     1     -35.643 -49.593  17.223  1.00  0.00     0.017 A 
HETATM   23  C   UNL     1     -36.560 -50.423  16.597  1.00  0.00     0.089 A 
HETATM   24  N   UNL     1     -37.370 -50.033  15.587  1.00  0.00    -0.352 N 
ATOM     25  HN  UNL     1     -38.069 -50.659  15.187  1.00  0.00     0.166 HD
ENDBRANCH   4  19
TORSDOF 4
ENDMDL
MODEL 6
REMARK VINA RESULT:      -5.2      2.788      3.766
REMARK  4 active torsions:
REMARK  status: ('A' for Active; 'I' for Inactive)
REMARK       I    between atoms: N_2  and  C_3 
REMARK    1  A    between atoms: C_3  and  C_5 
REMARK    2  A    between atoms: C_5  and  N_6 
REMARK    3  A    between atoms: C_9  and  N_12 
REMARK       I    between atoms: N_12  and  C_13 
REMARK       I    between atoms: C_13  and  N_15 
REMARK    4  A    between atoms: N_15  and  C_16 
ROOT
HETATM    1  N   UNL     1     -41.390 -48.293  11.195  1.00  0.00    -0.338 N 
HETATM    2  C   UNL     1     -41.922 -49.379  11.856  1.00  0.00     0.322 C 
HETATM    3  O   UNL     1     -42.861 -49.273  12.640  1.00  0.00    -0.247 OA
HETATM    4  N   UNL     1     -41.246 -50.539  11.571  1.00  0.00    -0.295 N 
HETATM    5  H   UNL     1     -41.012 -48.494  10.278  1.00  0.00     0.164 HD
HETATM    6  H   UNL     1     -40.249 -50.435  11.454  1.00  0.00     0.172 HD
ENDROOT
BRANCH   1   7
HETATM    7  C   UNL     1     -41.957 -46.968  11.443  1.00  0.00     0.089 C 
HETATM    8  C   UNL     1     -41.716 -46.013  10.272  1.00  0.00     0.055 C 
HETATM    9  C   UNL     1     -40.286 -45.463  10.257  1.00  0.00     0.275 C 
HETATM   10  N   UNL     1     -39.857 -44.847  11.535  1.00  0.00     0.097 N 
HETATM   11  C   UNL     1     -40.040 -45.814  12.630  1.00  0.00     0.275 C 
HETATM   12  C   UNL     1     -41.451 -46.380  12.758  1.00  0.00     0.055 C 
BRANCH  10  13
HETATM   13  C   UNL     1     -40.574 -43.559  11.733  1.00  0.00     0.374 C 
BRANCH  13  14
HETATM   14  C   UNL     1     -40.200 -42.824  13.022  1.00  0.00     0.245 C 
HETATM   15  N   UNL     1     -41.217 -42.684  13.937  1.00  0.00    -0.364 N 
HETATM   16  C   UNL     1     -41.021 -41.968  15.169  1.00  0.00     0.149 C 
HETATM   17  H   UNL     1     -42.140 -42.997  13.652  1.00  0.00     0.161 HD
HETATM   18  O   UNL     1     -39.052 -42.439  13.233  1.00  0.00    -0.272 OA
ENDBRANCH  13  14
ENDBRANCH  10  13
ENDBRANCH   1   7
BRANCH   4  19
HETATM   19  C   UNL     1     -41.578 -51.736  12.217  1.00  0.00     0.108 A 
HETATM   20  C   UNL     1     -40.602 -52.557  12.774  1.00  0.00     0.049 A 
HETATM   21  C   UNL     1     -40.978 -53.798  13.275  1.00  0.00     0.005 A 
HETATM   22  C   UNL     1     -42.311 -54.175  13.207  1.00  0.00     0.017 A 
HETATM   23  C   UNL     1     -43.221 -53.268  12.686  1.00  0.00     0.089 A 
HETATM   24  N   UNL     1     -42.890 -52.042  12.223  1.00  0.00    -0.352 N 
ATOM     25  HN  UNL     1     -43.596 -51.384  11.894  1.00  0.00     0.166 HD
ENDBRANCH   4  19
TORSDOF 4
ENDMDL
MODEL 7
REMARK VINA RESULT:      -5.1      6.507      7.691
REMARK  4 active torsions:
REMARK  status: ('A' for Active; 'I' for Inactive)
REMARK       I    between atoms: N_2  and  C_3 
REMARK    1  A    between atoms: C_3  and  C_5 
REMARK    2  A    between atoms: C_5  and  N_6 
REMARK    3  A    between atoms: C_9  and  N_12 
REMARK       I    between atoms: N_12  and  C_13 
REMARK       I    between atoms: C_13  and  N_15 
REMARK    4  A    between atoms: N_15  and  C_16 
ROOT
HETATM    1  N   UNL     1     -39.575 -54.476  15.802  1.00  0.00    -0.338 N 
HETATM    2  C   UNL     1     -38.859 -55.595  16.171  1.00  0.00     0.322 C 
HETATM    3  O   UNL     1     -37.950 -56.047  15.483  1.00  0.00    -0.247 OA
HETATM    4  N   UNL     1     -39.326 -56.144  17.340  1.00  0.00    -0.295 N 
HETATM    5  H   UNL     1     -39.916 -53.914  16.572  1.00  0.00     0.164 HD
HETATM    6  H   UNL     1     -40.326 -56.098  17.464  1.00  0.00     0.172 HD
ENDROOT
BRANCH   1   7
HETATM    7  C   UNL     1     -39.245 -53.810  14.543  1.00  0.00     0.089 C 
HETATM    8  C   UNL     1     -39.219 -52.287  14.690  1.00  0.00     0.055 C 
HETATM    9  C   UNL     1     -40.627 -51.682  14.708  1.00  0.00     0.275 C 
HETATM   10  N   UNL     1     -41.479 -52.086  13.565  1.00  0.00     0.097 N 
HETATM   11  C   UNL     1     -41.535 -53.556  13.493  1.00  0.00     0.275 C 
HETATM   12  C   UNL     1     -40.178 -54.248  13.417  1.00  0.00     0.055 C 
BRANCH  10  13
HETATM   13  C   UNL     1     -40.988 -51.433  12.322  1.00  0.00     0.374 C 
BRANCH  13  14
HETATM   14  C   UNL     1     -41.708 -50.129  11.972  1.00  0.00     0.245 C 
HETATM   15  N   UNL     1     -41.178 -49.428  10.914  1.00  0.00    -0.364 N 
HETATM   16  C   UNL     1     -41.722 -48.159  10.511  1.00  0.00     0.149 C 
HETATM   17  H   UNL     1     -40.315 -49.782  10.513  1.00  0.00     0.161 HD
HETATM   18  O   UNL     1     -42.721 -49.774  12.571  1.00  0.00    -0.272 OA
ENDBRANCH  13  14
ENDBRANCH  10  13
ENDBRANCH   1   7
BRANCH   4  19
HETATM   19  C   UNL     1     -38.789 -57.340  17.830  1.00  0.00     0.108 A 
HETATM   20  C   UNL     1     -39.496 -58.537  17.763  1.00  0.00     0.049 A 
HETATM   21  C   UNL     1     -38.972 -59.660  18.393  1.00  0.00     0.005 A 
HETATM   22  C   UNL     1     -37.763 -59.552  19.064  1.00  0.00     0.017 A 
HETATM   23  C   UNL     1     -37.103 -58.333  19.031  1.00  0.00     0.089 A 
HETATM   24  N   UNL     1     -37.571 -57.234  18.398  1.00  0.00    -0.352 N 
ATOM     25  HN  UNL     1     -37.032 -56.370  18.353  1.00  0.00     0.166 HD
ENDBRANCH   4  19
TORSDOF 4
ENDMDL
MODEL 8
REMARK VINA RESULT:      -5.1     15.086     16.786
REMARK  4 active torsions:
REMARK  status: ('A' for Active; 'I' for Inactive)
REMARK       I    between atoms: N_2  and  C_3 
REMARK    1  A    between atoms: C_3  and  C_5 
REMARK    2  A    between atoms: C_5  and  N_6 
REMARK    3  A    between atoms: C_9  and  N_12 
REMARK       I    between atoms: N_12  and  C_13 
REMARK       I    between atoms: C_13  and  N_15 
REMARK    4  A    between atoms: N_15  and  C_16 
ROOT
HETATM    1  N   UNL     1     -50.381 -50.923  -0.599  1.00  0.00    -0.338 N 
HETATM    2  C   UNL     1     -50.269 -49.979   0.399  1.00  0.00     0.322 C 
HETATM    3  O   UNL     1     -49.898 -50.265   1.533  1.00  0.00    -0.247 OA
HETATM    4  N   UNL     1     -50.669 -48.734  -0.020  1.00  0.00    -0.295 N 
HETATM    5  H   UNL     1     -50.206 -50.578  -1.534  1.00  0.00     0.164 HD
HETATM    6  H   UNL     1     -51.449 -48.729  -0.660  1.00  0.00     0.172 HD
ENDROOT
BRANCH   1   7
HETATM    7  C   UNL     1     -50.056 -52.315  -0.293  1.00  0.00     0.089 C 
HETATM    8  C   UNL     1     -48.647 -52.690  -0.758  1.00  0.00     0.055 C 
HETATM    9  C   UNL     1     -48.584 -52.946  -2.268  1.00  0.00     0.275 C 
HETATM   10  N   UNL     1     -49.579 -53.926  -2.763  1.00  0.00     0.097 N 
HETATM   11  C   UNL     1     -50.928 -53.500  -2.354  1.00  0.00     0.275 C 
HETATM   12  C   UNL     1     -51.104 -53.271  -0.857  1.00  0.00     0.055 C 
BRANCH  10  13
HETATM   13  C   UNL     1     -49.205 -55.290  -2.304  1.00  0.00     0.374 C 
BRANCH  13  14
HETATM   14  C   UNL     1     -49.279 -56.361  -3.395  1.00  0.00     0.245 C 
HETATM   15  N   UNL     1     -48.072 -56.899  -3.776  1.00  0.00    -0.364 N 
HETATM   16  C   UNL     1     -47.988 -57.876  -4.829  1.00  0.00     0.149 C 
HETATM   17  H   UNL     1     -47.236 -56.488  -3.371  1.00  0.00     0.161 HD
HETATM   18  O   UNL     1     -50.355 -56.740  -3.852  1.00  0.00    -0.272 OA
ENDBRANCH  13  14
ENDBRANCH  10  13
ENDBRANCH   1   7
BRANCH   4  19
HETATM   19  C   UNL     1     -50.716 -47.660   0.877  1.00  0.00     0.108 A 
HETATM   20  C   UNL     1     -51.927 -47.122   1.305  1.00  0.00     0.049 A 
HETATM   21  C   UNL     1     -51.909 -45.969   2.081  1.00  0.00     0.005 A 
HETATM   22  C   UNL     1     -50.689 -45.395   2.405  1.00  0.00     0.017 A 
HETATM   23  C   UNL     1     -49.533 -46.032   1.981  1.00  0.00     0.089 A 
HETATM   24  N   UNL     1     -49.518 -47.172   1.254  1.00  0.00    -0.352 N 
ATOM     25  HN  UNL     1     -48.646 -47.638   1.004  1.00  0.00     0.166 HD
ENDBRANCH   4  19
TORSDOF 4
ENDMDL
MODEL 9
REMARK VINA RESULT:      -5.0      6.834      9.078
REMARK  4 active torsions:
REMARK  status: ('A' for Active; 'I' for Inactive)
REMARK       I    between atoms: N_2  and  C_3 
REMARK    1  A    between atoms: C_3  and  C_5 
REMARK    2  A    between atoms: C_5  and  N_6 
REMARK    3  A    between atoms: C_9  and  N_12 
REMARK       I    between atoms: N_12  and  C_13 
REMARK       I    between atoms: C_13  and  N_15 
REMARK    4  A    between atoms: N_15  and  C_16 
ROOT
HETATM    1  N   UNL     1     -39.766 -54.181  15.887  1.00  0.00    -0.338 N 
HETATM    2  C   UNL     1     -38.687 -54.952  16.263  1.00  0.00     0.322 C 
HETATM    3  O   UNL     1     -38.327 -55.933  15.620  1.00  0.00    -0.247 OA
HETATM    4  N   UNL     1     -38.129 -54.520  17.441  1.00  0.00    -0.295 N 
HETATM    5  H   UNL     1     -39.697 -53.201  16.133  1.00  0.00     0.164 HD
HETATM    6  H   UNL     1     -38.787 -54.172  18.123  1.00  0.00     0.172 HD
ENDROOT
BRANCH   1   7
HETATM    7  C   UNL     1     -40.513 -54.550  14.687  1.00  0.00     0.089 C 
HETATM    8  C   UNL     1     -40.142 -53.673  13.488  1.00  0.00     0.055 C 
HETATM    9  C   UNL     1     -40.811 -52.295  13.550  1.00  0.00     0.275 C 
HETATM   10  N   UNL     1     -42.280 -52.338  13.737  1.00  0.00     0.097 N 
HETATM   11  C   UNL     1     -42.598 -53.134  14.934  1.00  0.00     0.275 C 
HETATM   12  C   UNL     1     -42.018 -54.545  14.940  1.00  0.00     0.055 C 
BRANCH  10  13
HETATM   13  C   UNL     1     -42.926 -52.827  12.490  1.00  0.00     0.374 C 
BRANCH  13  14
HETATM   14  C   UNL     1     -44.451 -52.924  12.571  1.00  0.00     0.245 C 
HETATM   15  N   UNL     1     -45.115 -51.724  12.670  1.00  0.00    -0.364 N 
HETATM   16  C   UNL     1     -46.546 -51.671  12.808  1.00  0.00     0.149 C 
HETATM   17  H   UNL     1     -44.546 -50.889  12.767  1.00  0.00     0.161 HD
HETATM   18  O   UNL     1     -45.031 -54.006  12.497  1.00  0.00    -0.272 OA
ENDBRANCH  13  14
ENDBRANCH  10  13
ENDBRANCH   1   7
BRANCH   4  19
HETATM   19  C   UNL     1     -37.080 -55.230  18.036  1.00  0.00     0.108 A 
HETATM   20  C   UNL     1     -35.870 -54.616  18.350  1.00  0.00     0.049 A 
HETATM   21  C   UNL     1     -34.819 -55.402  18.806  1.00  0.00     0.005 A 
HETATM   22  C   UNL     1     -35.010 -56.770  18.937  1.00  0.00     0.017 A 
HETATM   23  C   UNL     1     -36.265 -57.286  18.654  1.00  0.00     0.089 A 
HETATM   24  N   UNL     1     -37.316 -56.541  18.241  1.00  0.00    -0.352 N 
ATOM     25  HN  UNL     1     -38.238 -56.950  18.092  1.00  0.00     0.166 HD
ENDBRANCH   4  19
TORSDOF 4
ENDMDL
