MODEL 1
REMARK VINA RESULT:      -6.7      0.000      0.000
REMARK  6 active torsions:
REMARK  status: ('A' for Active; 'I' for Inactive)
REMARK    1  A    between atoms: N_1  and  C_9 
REMARK    2  A    between atoms: C_6  and  N_8 
REMARK    3  A    between atoms: C_15  and  C_25 
REMARK    4  A    between atoms: C_15  and  C_26 
REMARK    5  A    between atoms: C_25  and  O_27 
REMARK    6  A    between atoms: C_26  and  O_28 
ROOT
HETATM    1  N   UNL     1     -41.437 -48.294  11.694  1.00  0.00    -0.322 N 
HETATM    2  C   UNL     1     -42.101 -50.206  12.498  1.00  0.00     0.122 A 
HETATM    3  C   UNL     1     -40.955 -49.493  12.164  1.00  0.00     0.140 A 
HETATM    4  N   UNL     1     -43.245 -49.476  12.242  1.00  0.00    -0.346 N 
ATOM      5  HN  UNL     1     -44.214 -49.761  12.386  1.00  0.00     0.167 HD
HETATM    6  C   UNL     1     -41.949 -51.504  13.043  1.00  0.00     0.135 A 
HETATM    7  C   UNL     1     -42.804 -48.334  11.773  1.00  0.00     0.185 A 
HETATM    8  N   UNL     1     -39.686 -49.917  12.299  1.00  0.00    -0.336 N 
ATOM      9  HN  UNL     1     -38.863 -49.371  12.040  1.00  0.00     0.168 HD
HETATM   10  N   UNL     1     -40.677 -51.957  13.203  1.00  0.00    -0.337 N 
ATOM     11  HN  UNL     1     -40.501 -52.879  13.603  1.00  0.00     0.168 HD
HETATM   12  C   UNL     1     -39.647 -51.163  12.822  1.00  0.00     0.183 A 
ENDROOT
BRANCH   1  13
HETATM   13  C   UNL     1     -40.782 -47.133  11.166  1.00  0.00     0.094 C 
HETATM   14  C   UNL     1     -40.663 -45.933  12.154  1.00  0.00     0.039 C 
HETATM   15  C   UNL     1     -40.718 -45.002  10.888  1.00  0.00     0.006 C 
HETATM   16  C   UNL     1     -41.599 -46.161  10.274  1.00  0.00     0.039 C 
BRANCH  15  17
HETATM   17  C   UNL     1     -41.384 -43.636  11.066  1.00  0.00     0.175 C 
BRANCH  17  18
HETATM   18  O   UNL     1     -40.548 -42.580  10.609  1.00  0.00    -0.400 OA
HETATM   19  H   UNL     1     -41.053 -41.753  10.678  1.00  0.00     0.209 HD
ENDBRANCH  17  18
ENDBRANCH  15  17
BRANCH  15  20
HETATM   20  C   UNL     1     -39.333 -44.798  10.236  1.00  0.00     0.175 C 
BRANCH  20  21
HETATM   21  O   UNL     1     -39.490 -44.506   8.852  1.00  0.00    -0.400 OA
HETATM   22  H   UNL     1     -39.378 -43.547   8.736  1.00  0.00     0.209 HD
ENDBRANCH  20  21
ENDBRANCH  15  20
ENDBRANCH   1  13
BRANCH   6  23
HETATM   23  N   UNL     1     -43.063 -52.271  13.439  1.00  0.00    -0.364 N 
HETATM   24  C   UNL     1     -43.252 -52.383  14.885  1.00  0.00     0.129 C 
HETATM   25  C   UNL     1     -44.750 -52.307  15.245  1.00  0.00     0.011 C 
HETATM   26  C   UNL     1     -45.533 -53.622  15.199  1.00  0.00     0.114 C 
HETATM   27  C   UNL     1     -45.486 -51.187  14.488  1.00  0.00     0.012 C 
HETATM   28  S   UNL     1     -44.909 -54.975  14.174  1.00  0.00     0.016 S 
HETATM   29  C   UNL     1     -44.618 -54.061  12.642  1.00  0.00     0.128 C 
HETATM   30  O   UNL     1     -46.055 -55.914  13.935  1.00  0.00    -0.258 OA
HETATM   31  C   UNL     1     -43.205 -53.483  12.618  1.00  0.00     0.137 C 
ENDBRANCH   6  23
TORSDOF 6
ENDMDL
MODEL 2
REMARK VINA RESULT:      -6.3      2.997      8.555
REMARK  6 active torsions:
REMARK  status: ('A' for Active; 'I' for Inactive)
REMARK    1  A    between atoms: N_1  and  C_9 
REMARK    2  A    between atoms: C_6  and  N_8 
REMARK    3  A    between atoms: C_15  and  C_25 
REMARK    4  A    between atoms: C_15  and  C_26 
REMARK    5  A    between atoms: C_25  and  O_27 
REMARK    6  A    between atoms: C_26  and  O_28 
ROOT
HETATM    1  N   UNL     1     -42.904 -50.766  13.009  1.00  0.00    -0.322 N 
HETATM    2  C   UNL     1     -41.743 -48.988  12.526  1.00  0.00     0.122 A 
HETATM    3  C   UNL     1     -41.774 -50.366  12.335  1.00  0.00     0.140 A 
HETATM    4  N   UNL     1     -42.809 -48.558  13.290  1.00  0.00    -0.346 N 
ATOM      5  HN  UNL     1     -43.022 -47.605  13.586  1.00  0.00     0.167 HD
HETATM    6  C   UNL     1     -40.690 -48.252  11.929  1.00  0.00     0.135 A 
HETATM    7  C   UNL     1     -43.487 -49.650  13.549  1.00  0.00     0.185 A 
HETATM    8  N   UNL     1     -40.888 -51.093  11.633  1.00  0.00    -0.336 N 
ATOM      9  HN  UNL     1     -40.935 -52.105  11.513  1.00  0.00     0.168 HD
HETATM   10  N   UNL     1     -39.783 -48.958  11.203  1.00  0.00    -0.337 N 
ATOM     11  HN  UNL     1     -39.010 -48.484  10.737  1.00  0.00     0.168 HD
HETATM   12  C   UNL     1     -39.924 -50.302  11.108  1.00  0.00     0.183 A 
ENDROOT
BRANCH   1  13
HETATM   13  C   UNL     1     -43.489 -52.058  13.225  1.00  0.00     0.094 C 
HETATM   14  C   UNL     1     -45.047 -52.088  13.217  1.00  0.00     0.039 C 
HETATM   15  C   UNL     1     -44.939 -53.296  14.218  1.00  0.00     0.006 C 
HETATM   16  C   UNL     1     -43.607 -52.584  14.680  1.00  0.00     0.039 C 
BRANCH  15  17
HETATM   17  C   UNL     1     -46.057 -53.434  15.254  1.00  0.00     0.175 C 
BRANCH  17  18
HETATM   18  O   UNL     1     -45.825 -54.526  16.135  1.00  0.00    -0.400 OA
HETATM   19  H   UNL     1     -45.590 -55.297  15.594  1.00  0.00     0.209 HD
ENDBRANCH  17  18
ENDBRANCH  15  17
BRANCH  15  20
HETATM   20  C   UNL     1     -44.759 -54.651  13.499  1.00  0.00     0.175 C 
BRANCH  20  21
HETATM   21  O   UNL     1     -45.976 -55.388  13.548  1.00  0.00    -0.400 OA
HETATM   22  H   UNL     1     -46.703 -54.752  13.663  1.00  0.00     0.209 HD
ENDBRANCH  20  21
ENDBRANCH  15  20
ENDBRANCH   1  13
BRANCH   6  23
HETATM   23  N   UNL     1     -40.614 -46.850  12.049  1.00  0.00    -0.364 N 
HETATM   24  C   UNL     1     -40.145 -46.154  10.852  1.00  0.00     0.129 C 
HETATM   25  C   UNL     1     -40.929 -44.842  10.642  1.00  0.00     0.011 C 
HETATM   26  C   UNL     1     -40.404 -43.605  11.377  1.00  0.00     0.114 C 
HETATM   27  C   UNL     1     -42.445 -45.018  10.850  1.00  0.00     0.012 C 
HETATM   28  S   UNL     1     -39.385 -43.833  12.853  1.00  0.00     0.016 S 
HETATM   29  C   UNL     1     -40.426 -45.015  13.739  1.00  0.00     0.128 C 
HETATM   30  O   UNL     1     -39.413 -42.540  13.614  1.00  0.00    -0.258 OA
HETATM   31  C   UNL     1     -40.065 -46.448  13.354  1.00  0.00     0.137 C 
ENDBRANCH   6  23
TORSDOF 6
ENDMDL
MODEL 3
REMARK VINA RESULT:      -6.2      3.191      3.873
REMARK  6 active torsions:
REMARK  status: ('A' for Active; 'I' for Inactive)
REMARK    1  A    between atoms: N_1  and  C_9 
REMARK    2  A    between atoms: C_6  and  N_8 
REMARK    3  A    between atoms: C_15  and  C_25 
REMARK    4  A    between atoms: C_15  and  C_26 
REMARK    5  A    between atoms: C_25  and  O_27 
REMARK    6  A    between atoms: C_26  and  O_28 
ROOT
HETATM    1  N   UNL     1     -41.812 -49.324  11.763  1.00  0.00    -0.322 N 
HETATM    2  C   UNL     1     -40.604 -50.734  12.900  1.00  0.00     0.122 A 
HETATM    3  C   UNL     1     -40.517 -49.761  11.909  1.00  0.00     0.140 A 
HETATM    4  N   UNL     1     -41.901 -50.891  13.345  1.00  0.00    -0.346 N 
ATOM      5  HN  UNL     1     -42.245 -51.538  14.055  1.00  0.00     0.167 HD
HETATM    6  C   UNL     1     -39.413 -51.382  13.309  1.00  0.00     0.135 A 
HETATM    7  C   UNL     1     -42.592 -50.021  12.648  1.00  0.00     0.185 A 
HETATM    8  N   UNL     1     -39.398 -49.365  11.277  1.00  0.00    -0.336 N 
ATOM      9  HN  UNL     1     -39.367 -48.650  10.549  1.00  0.00     0.168 HD
HETATM   10  N   UNL     1     -38.262 -50.995  12.697  1.00  0.00    -0.337 N 
ATOM     11  HN  UNL     1     -37.369 -51.414  12.957  1.00  0.00     0.168 HD
HETATM   12  C   UNL     1     -38.321 -50.043  11.735  1.00  0.00     0.183 A 
ENDROOT
BRANCH   1  13
HETATM   13  C   UNL     1     -42.409 -48.355  10.889  1.00  0.00     0.094 C 
HETATM   14  C   UNL     1     -41.479 -47.174  10.478  1.00  0.00     0.039 C 
HETATM   15  C   UNL     1     -42.785 -46.302  10.373  1.00  0.00     0.006 C 
HETATM   16  C   UNL     1     -43.323 -47.264  11.505  1.00  0.00     0.039 C 
BRANCH  15  17
HETATM   17  C   UNL     1     -42.652 -44.818  10.719  1.00  0.00     0.175 C 
BRANCH  17  18
HETATM   18  O   UNL     1     -43.536 -44.016   9.945  1.00  0.00    -0.400 OA
HETATM   19  H   UNL     1     -44.304 -44.563   9.713  1.00  0.00     0.209 HD
ENDBRANCH  17  18
ENDBRANCH  15  17
BRANCH  15  20
HETATM   20  C   UNL     1     -43.479 -46.432   9.000  1.00  0.00     0.175 C 
BRANCH  20  21
HETATM   21  O   UNL     1     -42.638 -45.900   7.983  1.00  0.00    -0.400 OA
HETATM   22  H   UNL     1     -42.812 -44.945   7.922  1.00  0.00     0.209 HD
ENDBRANCH  20  21
ENDBRANCH  15  20
ENDBRANCH   1  13
BRANCH   6  23
HETATM   23  N   UNL     1     -39.417 -52.351  14.332  1.00  0.00    -0.364 N 
HETATM   24  C   UNL     1     -38.652 -51.991  15.526  1.00  0.00     0.129 C 
HETATM   25  C   UNL     1     -39.387 -52.449  16.802  1.00  0.00     0.011 C 
HETATM   26  C   UNL     1     -39.129 -53.887  17.262  1.00  0.00     0.114 C 
HETATM   27  C   UNL     1     -40.893 -52.131  16.765  1.00  0.00     0.012 C 
HETATM   28  S   UNL     1     -38.561 -55.102  16.050  1.00  0.00     0.016 S 
HETATM   29  C   UNL     1     -39.772 -54.792  14.745  1.00  0.00     0.128 C 
HETATM   30  O   UNL     1     -38.844 -56.461  16.621  1.00  0.00    -0.258 OA
HETATM   31  C   UNL     1     -39.272 -53.711  13.791  1.00  0.00     0.137 C 
ENDBRANCH   6  23
TORSDOF 6
ENDMDL
MODEL 4
REMARK VINA RESULT:      -6.2      1.772      2.549
REMARK  6 active torsions:
REMARK  status: ('A' for Active; 'I' for Inactive)
REMARK    1  A    between atoms: N_1  and  C_9 
REMARK    2  A    between atoms: C_6  and  N_8 
REMARK    3  A    between atoms: C_15  and  C_25 
REMARK    4  A    between atoms: C_15  and  C_26 
REMARK    5  A    between atoms: C_25  and  O_27 
REMARK    6  A    between atoms: C_26  and  O_28 
ROOT
HETATM    1  N   UNL     1     -42.575 -47.199  12.450  1.00  0.00    -0.322 N 
HETATM    2  C   UNL     1     -43.291 -48.987  13.467  1.00  0.00     0.122 A 
HETATM    3  C   UNL     1     -42.760 -47.724  13.708  1.00  0.00     0.140 A 
HETATM    4  N   UNL     1     -43.425 -49.232  12.115  1.00  0.00    -0.346 N 
ATOM      5  HN  UNL     1     -43.777 -50.077  11.664  1.00  0.00     0.167 HD
HETATM    6  C   UNL     1     -43.621 -49.799  14.580  1.00  0.00     0.135 A 
HETATM    7  C   UNL     1     -42.996 -48.133  11.541  1.00  0.00     0.185 A 
HETATM    8  N   UNL     1     -42.514 -47.179  14.912  1.00  0.00    -0.336 N 
ATOM      9  HN  UNL     1     -42.120 -46.249  15.057  1.00  0.00     0.168 HD
HETATM   10  N   UNL     1     -43.394 -49.271  15.812  1.00  0.00    -0.337 N 
ATOM     11  HN  UNL     1     -43.624 -49.801  16.654  1.00  0.00     0.168 HD
HETATM   12  C   UNL     1     -42.859 -48.030  15.905  1.00  0.00     0.183 A 
ENDROOT
BRANCH   1  13
HETATM   13  C   UNL     1     -42.037 -45.949  11.998  1.00  0.00     0.094 C 
HETATM   14  C   UNL     1     -41.672 -45.895  10.483  1.00  0.00     0.039 C 
HETATM   15  C   UNL     1     -40.558 -44.859  10.882  1.00  0.00     0.006 C 
HETATM   16  C   UNL     1     -40.535 -45.653  12.247  1.00  0.00     0.039 C 
BRANCH  15  17
HETATM   17  C   UNL     1     -39.277 -44.868  10.044  1.00  0.00     0.175 C 
BRANCH  17  18
HETATM   18  O   UNL     1     -39.326 -43.906   8.998  1.00  0.00    -0.400 OA
HETATM   19  H   UNL     1     -39.047 -43.053   9.368  1.00  0.00     0.209 HD
ENDBRANCH  17  18
ENDBRANCH  15  17
BRANCH  15  20
HETATM   20  C   UNL     1     -41.089 -43.411  10.960  1.00  0.00     0.175 C 
BRANCH  20  21
HETATM   21  O   UNL     1     -40.053 -42.541  11.398  1.00  0.00    -0.400 OA
HETATM   22  H   UNL     1     -40.264 -42.261  12.306  1.00  0.00     0.209 HD
ENDBRANCH  20  21
ENDBRANCH  15  20
ENDBRANCH   1  13
BRANCH   6  23
HETATM   23  N   UNL     1     -44.195 -51.075  14.414  1.00  0.00    -0.364 N 
HETATM   24  C   UNL     1     -45.453 -51.282  15.131  1.00  0.00     0.129 C 
HETATM   25  C   UNL     1     -46.440 -52.100  14.273  1.00  0.00     0.011 C 
HETATM   26  C   UNL     1     -46.321 -53.625  14.360  1.00  0.00     0.114 C 
HETATM   27  C   UNL     1     -46.492 -51.621  12.811  1.00  0.00     0.012 C 
HETATM   28  S   UNL     1     -44.750 -54.350  14.885  1.00  0.00     0.016 S 
HETATM   29  C   UNL     1     -43.635 -53.433  13.798  1.00  0.00     0.128 C 
HETATM   30  O   UNL     1     -44.752 -55.781  14.435  1.00  0.00    -0.258 OA
HETATM   31  C   UNL     1     -43.178 -52.136  14.462  1.00  0.00     0.137 C 
ENDBRANCH   6  23
TORSDOF 6
ENDMDL
MODEL 5
REMARK VINA RESULT:      -6.1      2.760      3.521
REMARK  6 active torsions:
REMARK  status: ('A' for Active; 'I' for Inactive)
REMARK    1  A    between atoms: N_1  and  C_9 
REMARK    2  A    between atoms: C_6  and  N_8 
REMARK    3  A    between atoms: C_15  and  C_25 
REMARK    4  A    between atoms: C_15  and  C_26 
REMARK    5  A    between atoms: C_25  and  O_27 
REMARK    6  A    between atoms: C_26  and  O_28 
ROOT
HETATM    1  N   UNL     1     -41.674 -48.809  12.431  1.00  0.00    -0.322 N 
HETATM    2  C   UNL     1     -40.846 -50.593  13.365  1.00  0.00     0.122 A 
HETATM    3  C   UNL     1     -40.491 -49.333  12.895  1.00  0.00     0.140 A 
HETATM    4  N   UNL     1     -42.194 -50.837  13.195  1.00  0.00    -0.346 N 
ATOM      5  HN  UNL     1     -42.713 -51.680  13.442  1.00  0.00     0.167 HD
HETATM    6  C   UNL     1     -39.836 -51.404  13.939  1.00  0.00     0.135 A 
HETATM    7  C   UNL     1     -42.656 -49.741  12.643  1.00  0.00     0.185 A 
HETATM    8  N   UNL     1     -39.261 -48.790  12.921  1.00  0.00    -0.336 N 
ATOM      9  HN  UNL     1     -39.030 -47.863  12.564  1.00  0.00     0.168 HD
HETATM   10  N   UNL     1     -38.583 -50.878  13.991  1.00  0.00    -0.337 N 
ATOM     11  HN  UNL     1     -37.815 -51.407  14.405  1.00  0.00     0.168 HD
HETATM   12  C   UNL     1     -38.371 -49.640  13.483  1.00  0.00     0.183 A 
ENDROOT
BRANCH   1  13
HETATM   13  C   UNL     1     -41.993 -47.562  11.799  1.00  0.00     0.094 C 
HETATM   14  C   UNL     1     -43.453 -47.445  11.265  1.00  0.00     0.039 C 
HETATM   15  C   UNL     1     -42.877 -46.481  10.164  1.00  0.00     0.006 C 
HETATM   16  C   UNL     1     -41.565 -47.346  10.324  1.00  0.00     0.039 C 
BRANCH  15  17
HETATM   17  C   UNL     1     -43.569 -46.503   8.799  1.00  0.00     0.175 C 
BRANCH  17  18
HETATM   18  O   UNL     1     -42.704 -46.056   7.763  1.00  0.00    -0.400 OA
HETATM   19  H   UNL     1     -42.334 -46.841   7.328  1.00  0.00     0.209 HD
ENDBRANCH  17  18
ENDBRANCH  15  17
BRANCH  15  20
HETATM   20  C   UNL     1     -42.776 -45.017  10.646  1.00  0.00     0.175 C 
BRANCH  20  21
HETATM   21  O   UNL     1     -43.597 -44.185   9.835  1.00  0.00    -0.400 OA
HETATM   22  H   UNL     1     -43.020 -43.542   9.389  1.00  0.00     0.209 HD
ENDBRANCH  20  21
ENDBRANCH  15  20
ENDBRANCH   1  13
BRANCH   6  23
HETATM   23  N   UNL     1     -40.128 -52.677  14.469  1.00  0.00    -0.364 N 
HETATM   24  C   UNL     1     -41.140 -52.687  15.524  1.00  0.00     0.129 C 
HETATM   25  C   UNL     1     -42.064 -53.914  15.379  1.00  0.00     0.011 C 
HETATM   26  C   UNL     1     -41.589 -55.212  16.038  1.00  0.00     0.114 C 
HETATM   27  C   UNL     1     -42.510 -54.152  13.924  1.00  0.00     0.012 C 
HETATM   28  S   UNL     1     -39.823 -55.433  16.358  1.00  0.00     0.016 S 
HETATM   29  C   UNL     1     -39.180 -54.976  14.731  1.00  0.00     0.128 C 
HETATM   30  O   UNL     1     -39.588 -56.903  16.545  1.00  0.00    -0.258 OA
HETATM   31  C   UNL     1     -38.908 -53.476  14.660  1.00  0.00     0.137 C 
ENDBRANCH   6  23
TORSDOF 6
ENDMDL
MODEL 6
REMARK VINA RESULT:      -6.1      2.746      8.465
REMARK  6 active torsions:
REMARK  status: ('A' for Active; 'I' for Inactive)
REMARK    1  A    between atoms: N_1  and  C_9 
REMARK    2  A    between atoms: C_6  and  N_8 
REMARK    3  A    between atoms: C_15  and  C_25 
REMARK    4  A    between atoms: C_15  and  C_26 
REMARK    5  A    between atoms: C_25  and  O_27 
REMARK    6  A    between atoms: C_26  and  O_28 
ROOT
HETATM    1  N   UNL     1     -42.537 -50.887  13.004  1.00  0.00    -0.322 N 
HETATM    2  C   UNL     1     -41.754 -49.054  12.128  1.00  0.00     0.122 A 
HETATM    3  C   UNL     1     -41.444 -50.395  12.331  1.00  0.00     0.140 A 
HETATM    4  N   UNL     1     -42.987 -48.733  12.658  1.00  0.00    -0.346 N 
ATOM      5  HN  UNL     1     -43.451 -47.823  12.658  1.00  0.00     0.167 HD
HETATM    6  C   UNL     1     -40.822 -48.249  11.429  1.00  0.00     0.135 A 
HETATM    7  C   UNL     1     -43.429 -49.859  13.164  1.00  0.00     0.185 A 
HETATM    8  N   UNL     1     -40.325 -51.024  11.931  1.00  0.00    -0.336 N 
ATOM      9  HN  UNL     1     -40.124 -52.010  12.098  1.00  0.00     0.168 HD
HETATM   10  N   UNL     1     -39.685 -48.859  11.000  1.00  0.00    -0.337 N 
ATOM     11  HN  UNL     1     -38.981 -48.336  10.478  1.00  0.00     0.168 HD
HETATM   12  C   UNL     1     -39.502 -50.172  11.277  1.00  0.00     0.183 A 
ENDROOT
BRANCH   1  13
HETATM   13  C   UNL     1     -42.838 -52.187  13.532  1.00  0.00     0.094 C 
HETATM   14  C   UNL     1     -43.742 -53.076  12.625  1.00  0.00     0.039 C 
HETATM   15  C   UNL     1     -44.271 -53.734  13.951  1.00  0.00     0.006 C 
HETATM   16  C   UNL     1     -43.973 -52.316  14.583  1.00  0.00     0.039 C 
BRANCH  15  17
HETATM   17  C   UNL     1     -45.726 -54.209  13.952  1.00  0.00     0.175 C 
BRANCH  17  18
HETATM   18  O   UNL     1     -45.834 -55.572  13.561  1.00  0.00    -0.400 OA
HETATM   19  H   UNL     1     -46.564 -55.967  14.066  1.00  0.00     0.209 HD
ENDBRANCH  17  18
ENDBRANCH  15  17
BRANCH  15  20
HETATM   20  C   UNL     1     -43.372 -54.888  14.445  1.00  0.00     0.175 C 
BRANCH  20  21
HETATM   21  O   UNL     1     -43.841 -55.360  15.702  1.00  0.00    -0.400 OA
HETATM   22  H   UNL     1     -44.729 -54.990  15.847  1.00  0.00     0.209 HD
ENDBRANCH  20  21
ENDBRANCH  15  20
ENDBRANCH   1  13
BRANCH   6  23
HETATM   23  N   UNL     1     -41.083 -46.892  11.154  1.00  0.00    -0.364 N 
HETATM   24  C   UNL     1     -40.454 -45.945  12.074  1.00  0.00     0.129 C 
HETATM   25  C   UNL     1     -39.937 -44.708  11.311  1.00  0.00     0.011 C 
HETATM   26  C   UNL     1     -40.942 -43.575  11.082  1.00  0.00     0.114 C 
HETATM   27  C   UNL     1     -39.199 -45.078  10.011  1.00  0.00     0.012 C 
HETATM   28  S   UNL     1     -42.709 -43.957  11.110  1.00  0.00     0.016 S 
HETATM   29  C   UNL     1     -42.710 -45.383  10.000  1.00  0.00     0.128 C 
HETATM   30  O   UNL     1     -43.415 -42.833  10.410  1.00  0.00    -0.258 OA
HETATM   31  C   UNL     1     -42.490 -46.676  10.781  1.00  0.00     0.137 C 
ENDBRANCH   6  23
TORSDOF 6
ENDMDL
MODEL 7
REMARK VINA RESULT:      -5.9      5.071      6.286
REMARK  6 active torsions:
REMARK  status: ('A' for Active; 'I' for Inactive)
REMARK    1  A    between atoms: N_1  and  C_9 
REMARK    2  A    between atoms: C_6  and  N_8 
REMARK    3  A    between atoms: C_15  and  C_25 
REMARK    4  A    between atoms: C_15  and  C_26 
REMARK    5  A    between atoms: C_25  and  O_27 
REMARK    6  A    between atoms: C_26  and  O_28 
ROOT
HETATM    1  N   UNL     1     -40.659 -47.336  12.006  1.00  0.00    -0.322 N 
HETATM    2  C   UNL     1     -39.250 -48.241  13.399  1.00  0.00     0.122 A 
HETATM    3  C   UNL     1     -39.639 -48.256  12.063  1.00  0.00     0.140 A 
HETATM    4  N   UNL     1     -40.002 -47.349  14.136  1.00  0.00    -0.346 N 
ATOM      5  HN  UNL     1     -39.933 -47.147  15.134  1.00  0.00     0.167 HD
HETATM    6  C   UNL     1     -38.182 -49.082  13.796  1.00  0.00     0.135 A 
HETATM    7  C   UNL     1     -40.826 -46.819  13.264  1.00  0.00     0.185 A 
HETATM    8  N   UNL     1     -39.102 -49.007  11.086  1.00  0.00    -0.336 N 
ATOM      9  HN  UNL     1     -39.411 -49.000  10.113  1.00  0.00     0.168 HD
HETATM   10  N   UNL     1     -37.610 -49.846  12.828  1.00  0.00    -0.337 N 
ATOM     11  HN  UNL     1     -36.827 -50.463  13.047  1.00  0.00     0.168 HD
HETATM   12  C   UNL     1     -38.096 -49.774  11.565  1.00  0.00     0.183 A 
ENDROOT
BRANCH   1  13
HETATM   13  C   UNL     1     -41.503 -46.899  10.932  1.00  0.00     0.094 C 
HETATM   14  C   UNL     1     -42.942 -46.473  11.354  1.00  0.00     0.039 C 
HETATM   15  C   UNL     1     -43.403 -46.947   9.927  1.00  0.00     0.006 C 
HETATM   16  C   UNL     1     -42.207 -47.971  10.059  1.00  0.00     0.039 C 
BRANCH  15  17
HETATM   17  C   UNL     1     -44.814 -47.528   9.817  1.00  0.00     0.175 C 
BRANCH  17  18
HETATM   18  O   UNL     1     -45.438 -47.167   8.592  1.00  0.00    -0.400 OA
HETATM   19  H   UNL     1     -45.353 -47.919   7.984  1.00  0.00     0.209 HD
ENDBRANCH  17  18
ENDBRANCH  15  17
BRANCH  15  20
HETATM   20  C   UNL     1     -43.231 -45.854   8.850  1.00  0.00     0.175 C 
BRANCH  20  21
HETATM   21  O   UNL     1     -44.076 -44.748   9.147  1.00  0.00    -0.400 OA
HETATM   22  H   UNL     1     -44.787 -44.730   8.483  1.00  0.00     0.209 HD
ENDBRANCH  20  21
ENDBRANCH  15  20
ENDBRANCH   1  13
BRANCH   6  23
HETATM   23  N   UNL     1     -37.710 -49.094  15.124  1.00  0.00    -0.364 N 
HETATM   24  C   UNL     1     -36.710 -48.072  15.431  1.00  0.00     0.129 C 
HETATM   25  C   UNL     1     -36.943 -47.488  16.840  1.00  0.00     0.011 C 
HETATM   26  C   UNL     1     -36.303 -48.243  18.009  1.00  0.00     0.114 C 
HETATM   27  C   UNL     1     -38.426 -47.178  17.115  1.00  0.00     0.012 C 
HETATM   28  S   UNL     1     -35.899 -49.993  17.801  1.00  0.00     0.016 S 
HETATM   29  C   UNL     1     -37.474 -50.571  17.128  1.00  0.00     0.128 C 
HETATM   30  O   UNL     1     -35.748 -50.577  19.175  1.00  0.00    -0.258 OA
HETATM   31  C   UNL     1     -37.482 -50.465  15.605  1.00  0.00     0.137 C 
ENDBRANCH   6  23
TORSDOF 6
ENDMDL
MODEL 8
REMARK VINA RESULT:      -5.9      3.464      8.739
REMARK  6 active torsions:
REMARK  status: ('A' for Active; 'I' for Inactive)
REMARK    1  A    between atoms: N_1  and  C_9 
REMARK    2  A    between atoms: C_6  and  N_8 
REMARK    3  A    between atoms: C_15  and  C_25 
REMARK    4  A    between atoms: C_15  and  C_26 
REMARK    5  A    between atoms: C_25  and  O_27 
REMARK    6  A    between atoms: C_26  and  O_28 
ROOT
HETATM    1  N   UNL     1     -43.000 -49.643  13.232  1.00  0.00    -0.322 N 
HETATM    2  C   UNL     1     -42.235 -47.646  12.824  1.00  0.00     0.122 A 
HETATM    3  C   UNL     1     -42.531 -48.856  12.207  1.00  0.00     0.140 A 
HETATM    4  N   UNL     1     -42.509 -47.685  14.177  1.00  0.00    -0.346 N 
ATOM      5  HN  UNL     1     -42.378 -46.942  14.864  1.00  0.00     0.167 HD
HETATM    6  C   UNL     1     -41.738 -46.588  12.024  1.00  0.00     0.135 A 
HETATM    7  C   UNL     1     -42.976 -48.894  14.379  1.00  0.00     0.185 A 
HETATM    8  N   UNL     1     -42.385 -49.141  10.901  1.00  0.00    -0.336 N 
ATOM      9  HN  UNL     1     -42.607 -50.042  10.477  1.00  0.00     0.168 HD
HETATM   10  N   UNL     1     -41.590 -46.841  10.696  1.00  0.00    -0.337 N 
ATOM     11  HN  UNL     1     -41.250 -46.116  10.064  1.00  0.00     0.168 HD
HETATM   12  C   UNL     1     -41.904 -48.072  10.226  1.00  0.00     0.183 A 
ENDROOT
BRANCH   1  13
HETATM   13  C   UNL     1     -43.446 -51.006  13.274  1.00  0.00     0.094 C 
HETATM   14  C   UNL     1     -44.955 -51.198  13.612  1.00  0.00     0.039 C 
HETATM   15  C   UNL     1     -44.543 -52.571  14.259  1.00  0.00     0.006 C 
HETATM   16  C   UNL     1     -43.177 -51.835  14.557  1.00  0.00     0.039 C 
BRANCH  15  17
HETATM   17  C   UNL     1     -45.364 -53.040  15.462  1.00  0.00     0.175 C 
BRANCH  17  18
HETATM   18  O   UNL     1     -45.144 -54.417  15.744  1.00  0.00    -0.400 OA
HETATM   19  H   UNL     1     -45.781 -54.930  15.220  1.00  0.00     0.209 HD
ENDBRANCH  17  18
ENDBRANCH  15  17
BRANCH  15  20
HETATM   20  C   UNL     1     -44.472 -53.718  13.228  1.00  0.00     0.175 C 
BRANCH  20  21
HETATM   21  O   UNL     1     -45.763 -54.294  13.059  1.00  0.00    -0.400 OA
HETATM   22  H   UNL     1     -46.237 -53.770  12.391  1.00  0.00     0.209 HD
ENDBRANCH  20  21
ENDBRANCH  15  20
ENDBRANCH   1  13
BRANCH   6  23
HETATM   23  N   UNL     1     -41.451 -45.322  12.573  1.00  0.00    -0.364 N 
HETATM   24  C   UNL     1     -42.394 -44.265  12.211  1.00  0.00     0.129 C 
HETATM   25  C   UNL     1     -42.665 -43.341  13.416  1.00  0.00     0.011 C 
HETATM   26  C   UNL     1     -41.686 -42.181  13.623  1.00  0.00     0.114 C 
HETATM   27  C   UNL     1     -42.896 -44.123  14.722  1.00  0.00     0.012 C 
HETATM   28  S   UNL     1     -40.023 -42.307  12.925  1.00  0.00     0.016 S 
HETATM   29  C   UNL     1     -39.586 -43.955  13.524  1.00  0.00     0.128 C 
HETATM   30  O   UNL     1     -39.163 -41.314  13.651  1.00  0.00    -0.258 OA
HETATM   31  C   UNL     1     -40.011 -45.025  12.522  1.00  0.00     0.137 C 
ENDBRANCH   6  23
TORSDOF 6
ENDMDL
MODEL 9
REMARK VINA RESULT:      -5.9      4.717      7.926
REMARK  6 active torsions:
REMARK  status: ('A' for Active; 'I' for Inactive)
REMARK    1  A    between atoms: N_1  and  C_9 
REMARK    2  A    between atoms: C_6  and  N_8 
REMARK    3  A    between atoms: C_15  and  C_25 
REMARK    4  A    between atoms: C_15  and  C_26 
REMARK    5  A    between atoms: C_25  and  O_27 
REMARK    6  A    between atoms: C_26  and  O_28 
ROOT
HETATM    1  N   UNL     1     -42.776 -50.681  13.664  1.00  0.00    -0.322 N 
HETATM    2  C   UNL     1     -40.698 -50.137  14.017  1.00  0.00     0.122 A 
HETATM    3  C   UNL     1     -41.600 -50.427  12.999  1.00  0.00     0.140 A 
HETATM    4  N   UNL     1     -41.295 -50.211  15.260  1.00  0.00    -0.346 N 
ATOM      5  HN  UNL     1     -40.863 -50.055  16.172  1.00  0.00     0.167 HD
HETATM    6  C   UNL     1     -39.368 -49.804  13.661  1.00  0.00     0.135 A 
HETATM    7  C   UNL     1     -42.541 -50.528  15.005  1.00  0.00     0.185 A 
HETATM    8  N   UNL     1     -41.337 -50.434  11.680  1.00  0.00    -0.336 N 
ATOM      9  HN  UNL     1     -42.020 -50.655  10.955  1.00  0.00     0.168 HD
HETATM   10  N   UNL     1     -39.074 -49.790  12.334  1.00  0.00    -0.337 N 
ATOM     11  HN  UNL     1     -38.138 -49.545  12.012  1.00  0.00     0.168 HD
HETATM   12  C   UNL     1     -40.046 -50.107  11.445  1.00  0.00     0.183 A 
ENDROOT
BRANCH   1  13
HETATM   13  C   UNL     1     -44.079 -51.066  13.203  1.00  0.00     0.094 C 
HETATM   14  C   UNL     1     -45.173 -51.152  14.309  1.00  0.00     0.039 C 
HETATM   15  C   UNL     1     -45.848 -52.267  13.429  1.00  0.00     0.006 C 
HETATM   16  C   UNL     1     -44.368 -52.573  12.969  1.00  0.00     0.039 C 
BRANCH  15  17
HETATM   17  C   UNL     1     -46.594 -53.376  14.174  1.00  0.00     0.175 C 
BRANCH  17  18
HETATM   18  O   UNL     1     -46.364 -54.650  13.587  1.00  0.00    -0.400 OA
HETATM   19  H   UNL     1     -46.875 -54.693  12.762  1.00  0.00     0.209 HD
ENDBRANCH  17  18
ENDBRANCH  15  17
BRANCH  15  20
HETATM   20  C   UNL     1     -46.779 -51.686  12.342  1.00  0.00     0.175 C 
BRANCH  20  21
HETATM   21  O   UNL     1     -47.087 -52.692  11.384  1.00  0.00    -0.400 OA
HETATM   22  H   UNL     1     -46.406 -53.384  11.449  1.00  0.00     0.209 HD
ENDBRANCH  20  21
ENDBRANCH  15  20
ENDBRANCH   1  13
BRANCH   6  23
HETATM   23  N   UNL     1     -38.409 -49.463  14.636  1.00  0.00    -0.364 N 
HETATM   24  C   UNL     1     -37.469 -48.416  14.235  1.00  0.00     0.129 C 
HETATM   25  C   UNL     1     -37.178 -47.466  15.415  1.00  0.00     0.011 C 
HETATM   26  C   UNL     1     -36.059 -47.887  16.373  1.00  0.00     0.114 C 
HETATM   27  C   UNL     1     -38.452 -47.064  16.181  1.00  0.00     0.012 C 
HETATM   28  S   UNL     1     -35.609 -49.635  16.476  1.00  0.00     0.016 S 
HETATM   29  C   UNL     1     -37.260 -50.343  16.675  1.00  0.00     0.128 C 
HETATM   30  O   UNL     1     -34.872 -49.826  17.769  1.00  0.00    -0.258 OA
HETATM   31  C   UNL     1     -37.881 -50.655  15.316  1.00  0.00     0.137 C 
ENDBRANCH   6  23
TORSDOF 6
ENDMDL
