MODEL 1
REMARK VINA RESULT:      -5.8      0.000      0.000
REMARK  4 active torsions:
REMARK  status: ('A' for Active; 'I' for Inactive)
REMARK    1  A    between atoms: C_2  and  S_3 
REMARK    2  A    between atoms: S_3  and  C_4 
REMARK    3  A    between atoms: C_8  and  N_9 
REMARK       I    between atoms: N_9  and  C_10 
REMARK       I    between atoms: C_10  and  N_12 
REMARK    4  A    between atoms: N_12  and  C_13 
ROOT
HETATM    1  N   UNL     1     -42.649 -48.863  11.696  1.00  0.00    -0.342 N 
HETATM    2  C   UNL     1     -42.948 -49.844  12.626  1.00  0.00     0.300 C 
HETATM    3  O   UNL     1     -43.486 -49.603  13.698  1.00  0.00    -0.254 OA
HETATM    4  N   UNL     1     -42.637 -51.088  12.127  1.00  0.00    -0.196 NA
HETATM    5  H   UNL     1     -42.004 -49.100  10.954  1.00  0.00     0.164 HD
HETATM    6  H   UNL     1     -42.769 -51.130  11.128  1.00  0.00     0.139 HD
ENDROOT
BRANCH   1   7
HETATM    7  C   UNL     1     -43.061 -47.474  11.853  1.00  0.00     0.099 C 
HETATM    8  C   UNL     1     -43.105 -46.666  10.537  1.00  0.00     0.070 C 
HETATM    9  C   UNL     1     -41.652 -46.236  10.296  1.00  0.00     0.017 C 
HETATM   10  C   UNL     1     -40.978 -46.228  11.667  1.00  0.00     0.003 C 
HETATM   11  C   UNL     1     -42.035 -46.683  12.671  1.00  0.00     0.026 C 
BRANCH   8  12
HETATM   12  S   UNL     1     -43.750 -47.476   9.030  1.00  0.00    -0.163 SA
BRANCH  12  13
HETATM   13  C   UNL     1     -45.547 -47.227   9.208  1.00  0.00     0.070 C 
HETATM   14  C   UNL     1     -46.390 -48.345   8.621  1.00  0.00     0.016 C 
ENDBRANCH  12  13
ENDBRANCH   8  12
ENDBRANCH   1   7
BRANCH   4  15
HETATM   15  C   UNL     1     -43.087 -52.289  12.690  1.00  0.00     0.094 A 
HETATM   16  N   UNL     1     -44.432 -52.406  12.580  1.00  0.00    -0.356 N 
HETATM   17  C   UNL     1     -45.018 -53.497  13.112  1.00  0.00     0.089 A 
ATOM     18  HN  UNL     1     -44.985 -51.690  12.108  1.00  0.00     0.166 HD
HETATM   19  C   UNL     1     -44.319 -54.525  13.706  1.00  0.00     0.018 A 
HETATM   20  C   UNL     1     -42.935 -54.426  13.756  1.00  0.00     0.011 A 
HETATM   21  C   UNL     1     -42.282 -53.289  13.236  1.00  0.00    -0.023 A 
HETATM   22  C   UNL     1     -40.785 -53.247  13.290  1.00  0.00     0.052 C 
ENDBRANCH   4  15
TORSDOF 4
ENDMDL
MODEL 2
REMARK VINA RESULT:      -5.7      2.609      6.861
REMARK  4 active torsions:
REMARK  status: ('A' for Active; 'I' for Inactive)
REMARK    1  A    between atoms: C_2  and  S_3 
REMARK    2  A    between atoms: S_3  and  C_4 
REMARK    3  A    between atoms: C_8  and  N_9 
REMARK       I    between atoms: N_9  and  C_10 
REMARK       I    between atoms: C_10  and  N_12 
REMARK    4  A    between atoms: N_12  and  C_13 
ROOT
HETATM    1  N   UNL     1     -41.328 -51.195  12.485  1.00  0.00    -0.342 N 
HETATM    2  C   UNL     1     -42.092 -50.093  12.140  1.00  0.00     0.300 C 
HETATM    3  O   UNL     1     -43.033 -49.698  12.816  1.00  0.00    -0.254 OA
HETATM    4  N   UNL     1     -41.583 -49.490  11.013  1.00  0.00    -0.196 NA
HETATM    5  H   UNL     1     -40.733 -51.595  11.771  1.00  0.00     0.164 HD
HETATM    6  H   UNL     1     -40.579 -49.578  10.967  1.00  0.00     0.139 HD
ENDROOT
BRANCH   1   7
HETATM    7  C   UNL     1     -41.494 -51.908  13.745  1.00  0.00     0.099 C 
HETATM    8  C   UNL     1     -40.185 -52.113  14.541  1.00  0.00     0.070 C 
HETATM    9  C   UNL     1     -39.529 -53.344  13.899  1.00  0.00     0.017 C 
HETATM   10  C   UNL     1     -40.662 -54.143  13.258  1.00  0.00     0.003 C 
HETATM   11  C   UNL     1     -41.944 -53.352  13.507  1.00  0.00     0.026 C 
BRANCH   8  12
HETATM   12  S   UNL     1     -38.970 -50.748  14.602  1.00  0.00    -0.163 SA
BRANCH  12  13
HETATM   13  C   UNL     1     -37.821 -51.208  13.263  1.00  0.00     0.070 C 
HETATM   14  C   UNL     1     -37.829 -50.254  12.082  1.00  0.00     0.016 C 
ENDBRANCH  12  13
ENDBRANCH   8  12
ENDBRANCH   1   7
BRANCH   4  15
HETATM   15  C   UNL     1     -41.940 -48.204  10.587  1.00  0.00     0.094 A 
HETATM   16  N   UNL     1     -43.158 -48.208   9.991  1.00  0.00    -0.356 N 
HETATM   17  C   UNL     1     -43.622 -47.044   9.494  1.00  0.00     0.089 A 
ATOM     18  HN  UNL     1     -43.705 -49.065   9.922  1.00  0.00     0.166 HD
HETATM   19  C   UNL     1     -42.955 -45.844   9.612  1.00  0.00     0.018 A 
HETATM   20  C   UNL     1     -41.738 -45.840  10.281  1.00  0.00     0.011 A 
HETATM   21  C   UNL     1     -41.202 -47.039  10.794  1.00  0.00    -0.023 A 
HETATM   22  C   UNL     1     -39.900 -46.972  11.533  1.00  0.00     0.052 C 
ENDBRANCH   4  15
TORSDOF 4
ENDMDL
MODEL 3
REMARK VINA RESULT:      -5.5      2.216      7.006
REMARK  4 active torsions:
REMARK  status: ('A' for Active; 'I' for Inactive)
REMARK    1  A    between atoms: C_2  and  S_3 
REMARK    2  A    between atoms: S_3  and  C_4 
REMARK    3  A    between atoms: C_8  and  N_9 
REMARK       I    between atoms: N_9  and  C_10 
REMARK       I    between atoms: C_10  and  N_12 
REMARK    4  A    between atoms: N_12  and  C_13 
ROOT
HETATM    1  N   UNL     1     -43.987 -50.177  12.501  1.00  0.00    -0.342 N 
HETATM    2  C   UNL     1     -43.221 -49.031  12.637  1.00  0.00     0.300 C 
HETATM    3  O   UNL     1     -42.781 -48.647  13.712  1.00  0.00    -0.254 OA
HETATM    4  N   UNL     1     -42.974 -48.472  11.404  1.00  0.00    -0.196 NA
HETATM    5  H   UNL     1     -44.504 -50.297  11.640  1.00  0.00     0.164 HD
HETATM    6  H   UNL     1     -42.901 -49.176  10.685  1.00  0.00     0.139 HD
ENDROOT
BRANCH   1   7
HETATM    7  C   UNL     1     -44.231 -51.098  13.604  1.00  0.00     0.099 C 
HETATM    8  C   UNL     1     -43.590 -52.493  13.427  1.00  0.00     0.070 C 
HETATM    9  C   UNL     1     -44.572 -53.261  12.532  1.00  0.00     0.017 C 
HETATM   10  C   UNL     1     -45.936 -52.602  12.734  1.00  0.00     0.003 C 
HETATM   11  C   UNL     1     -45.718 -51.449  13.712  1.00  0.00     0.026 C 
BRANCH   8  12
HETATM   12  S   UNL     1     -41.911 -52.604  12.710  1.00  0.00    -0.163 SA
BRANCH  12  13
HETATM   13  C   UNL     1     -41.347 -54.225  13.325  1.00  0.00     0.070 C 
HETATM   14  C   UNL     1     -39.891 -54.254  13.754  1.00  0.00     0.016 C 
ENDBRANCH  12  13
ENDBRANCH   8  12
ENDBRANCH   1   7
BRANCH   4  15
HETATM   15  C   UNL     1     -41.999 -47.492  11.173  1.00  0.00     0.094 A 
HETATM   16  N   UNL     1     -40.829 -47.817  11.775  1.00  0.00    -0.356 N 
HETATM   17  C   UNL     1     -39.803 -46.949  11.673  1.00  0.00     0.089 A 
ATOM     18  HN  UNL     1     -40.729 -48.692  12.290  1.00  0.00     0.166 HD
HETATM   19  C   UNL     1     -39.861 -45.783  10.941  1.00  0.00     0.018 A 
HETATM   20  C   UNL     1     -41.044 -45.491  10.275  1.00  0.00     0.011 A 
HETATM   21  C   UNL     1     -42.152 -46.358  10.376  1.00  0.00    -0.023 A 
HETATM   22  C   UNL     1     -43.393 -46.010   9.613  1.00  0.00     0.052 C 
ENDBRANCH   4  15
TORSDOF 4
ENDMDL
MODEL 4
REMARK VINA RESULT:      -5.5      2.641      6.889
REMARK  4 active torsions:
REMARK  status: ('A' for Active; 'I' for Inactive)
REMARK    1  A    between atoms: C_2  and  S_3 
REMARK    2  A    between atoms: S_3  and  C_4 
REMARK    3  A    between atoms: C_8  and  N_9 
REMARK       I    between atoms: N_9  and  C_10 
REMARK       I    between atoms: C_10  and  N_12 
REMARK    4  A    between atoms: N_12  and  C_13 
ROOT
HETATM    1  N   UNL     1     -43.333 -50.714  12.458  1.00  0.00    -0.342 N 
HETATM    2  C   UNL     1     -43.020 -49.366  12.414  1.00  0.00     0.300 C 
HETATM    3  O   UNL     1     -43.287 -48.590  13.322  1.00  0.00    -0.254 OA
HETATM    4  N   UNL     1     -42.310 -49.076  11.272  1.00  0.00    -0.196 NA
HETATM    5  H   UNL     1     -43.296 -51.233  11.591  1.00  0.00     0.164 HD
HETATM    6  H   UNL     1     -41.726 -49.850  10.992  1.00  0.00     0.139 HD
ENDROOT
BRANCH   1   7
HETATM    7  C   UNL     1     -43.894 -51.356  13.640  1.00  0.00     0.099 C 
HETATM    8  C   UNL     1     -43.653 -52.880  13.716  1.00  0.00     0.070 C 
HETATM    9  C   UNL     1     -44.749 -53.491  12.831  1.00  0.00     0.017 C 
HETATM   10  C   UNL     1     -45.887 -52.473  12.800  1.00  0.00     0.003 C 
HETATM   11  C   UNL     1     -45.424 -51.281  13.636  1.00  0.00     0.026 C 
BRANCH   8  12
HETATM   12  S   UNL     1     -42.028 -53.540  13.201  1.00  0.00    -0.163 SA
BRANCH  12  13
HETATM   13  C   UNL     1     -41.480 -54.408  14.708  1.00  0.00     0.070 C 
HETATM   14  C   UNL     1     -42.582 -55.167  15.423  1.00  0.00     0.016 C 
ENDBRANCH  12  13
ENDBRANCH   8  12
ENDBRANCH   1   7
BRANCH   4  15
HETATM   15  C   UNL     1     -41.599 -47.885  11.077  1.00  0.00     0.094 A 
HETATM   16  N   UNL     1     -42.405 -46.909  10.592  1.00  0.00    -0.356 N 
HETATM   17  C   UNL     1     -41.852 -45.711  10.316  1.00  0.00     0.089 A 
ATOM     18  HN  UNL     1     -43.399 -47.077  10.440  1.00  0.00     0.166 HD
HETATM   19  C   UNL     1     -40.529 -45.408  10.558  1.00  0.00     0.018 A 
HETATM   20  C   UNL     1     -39.727 -46.395  11.115  1.00  0.00     0.011 A 
HETATM   21  C   UNL     1     -40.258 -47.672  11.394  1.00  0.00    -0.023 A 
HETATM   22  C   UNL     1     -39.355 -48.689  12.021  1.00  0.00     0.052 C 
ENDBRANCH   4  15
TORSDOF 4
ENDMDL
MODEL 5
REMARK VINA RESULT:      -5.4      3.897      5.415
REMARK  4 active torsions:
REMARK  status: ('A' for Active; 'I' for Inactive)
REMARK    1  A    between atoms: C_2  and  S_3 
REMARK    2  A    between atoms: S_3  and  C_4 
REMARK    3  A    between atoms: C_8  and  N_9 
REMARK       I    between atoms: N_9  and  C_10 
REMARK       I    between atoms: C_10  and  N_12 
REMARK    4  A    between atoms: N_12  and  C_13 
ROOT
HETATM    1  N   UNL     1     -40.756 -50.385  12.968  1.00  0.00    -0.342 N 
HETATM    2  C   UNL     1     -42.023 -50.921  12.809  1.00  0.00     0.300 C 
HETATM    3  O   UNL     1     -42.247 -51.910  12.126  1.00  0.00    -0.254 OA
HETATM    4  N   UNL     1     -42.932 -50.239  13.586  1.00  0.00    -0.196 NA
HETATM    5  H   UNL     1     -40.686 -49.449  13.345  1.00  0.00     0.164 HD
HETATM    6  H   UNL     1     -42.512 -49.902  14.439  1.00  0.00     0.139 HD
ENDROOT
BRANCH   1   7
HETATM    7  C   UNL     1     -39.557 -51.024  12.441  1.00  0.00     0.099 C 
HETATM    8  C   UNL     1     -38.610 -51.597  13.518  1.00  0.00     0.070 C 
HETATM    9  C   UNL     1     -37.790 -50.391  13.996  1.00  0.00     0.017 C 
HETATM   10  C   UNL     1     -37.803 -49.386  12.846  1.00  0.00     0.003 C 
HETATM   11  C   UNL     1     -38.653 -50.007  11.739  1.00  0.00     0.026 C 
BRANCH   8  12
HETATM   12  S   UNL     1     -39.337 -52.441  14.969  1.00  0.00    -0.163 SA
BRANCH  12  13
HETATM   13  C   UNL     1     -40.105 -53.907  14.205  1.00  0.00     0.070 C 
HETATM   14  C   UNL     1     -41.494 -54.226  14.729  1.00  0.00     0.016 C 
ENDBRANCH  12  13
ENDBRANCH   8  12
ENDBRANCH   1   7
BRANCH   4  15
HETATM   15  C   UNL     1     -44.219 -50.710  13.876  1.00  0.00     0.094 A 
HETATM   16  N   UNL     1     -44.873 -51.072  12.745  1.00  0.00    -0.356 N 
HETATM   17  C   UNL     1     -46.141 -51.512  12.861  1.00  0.00     0.089 A 
ATOM     18  HN  UNL     1     -44.418 -51.013  11.834  1.00  0.00     0.166 HD
HETATM   19  C   UNL     1     -46.786 -51.671  14.069  1.00  0.00     0.018 A 
HETATM   20  C   UNL     1     -46.085 -51.358  15.226  1.00  0.00     0.011 A 
HETATM   21  C   UNL     1     -44.764 -50.869  15.150  1.00  0.00    -0.023 A 
HETATM   22  C   UNL     1     -44.044 -50.576  16.430  1.00  0.00     0.052 C 
ENDBRANCH   4  15
TORSDOF 4
ENDMDL
MODEL 6
REMARK VINA RESULT:      -5.4      2.588      6.598
REMARK  4 active torsions:
REMARK  status: ('A' for Active; 'I' for Inactive)
REMARK    1  A    between atoms: C_2  and  S_3 
REMARK    2  A    between atoms: S_3  and  C_4 
REMARK    3  A    between atoms: C_8  and  N_9 
REMARK       I    between atoms: N_9  and  C_10 
REMARK       I    between atoms: C_10  and  N_12 
REMARK    4  A    between atoms: N_12  and  C_13 
ROOT
HETATM    1  N   UNL     1     -42.636 -52.206  13.440  1.00  0.00    -0.342 N 
HETATM    2  C   UNL     1     -41.882 -51.344  12.660  1.00  0.00     0.300 C 
HETATM    3  O   UNL     1     -41.236 -51.717  11.690  1.00  0.00    -0.254 OA
HETATM    4  N   UNL     1     -42.048 -50.046  13.084  1.00  0.00    -0.196 NA
HETATM    5  H   UNL     1     -42.943 -51.873  14.344  1.00  0.00     0.164 HD
HETATM    6  H   UNL     1     -42.976 -49.890  13.448  1.00  0.00     0.139 HD
ENDROOT
BRANCH   1   7
HETATM    7  C   UNL     1     -42.829 -53.610  13.103  1.00  0.00     0.099 C 
HETATM    8  C   UNL     1     -44.279 -54.116  13.276  1.00  0.00     0.070 C 
HETATM    9  C   UNL     1     -44.405 -54.430  14.774  1.00  0.00     0.017 C 
HETATM   10  C   UNL     1     -42.988 -54.708  15.270  1.00  0.00     0.003 C 
HETATM   11  C   UNL     1     -42.064 -54.520  14.068  1.00  0.00     0.026 C 
BRANCH   8  12
HETATM   12  S   UNL     1     -45.657 -53.024  12.773  1.00  0.00    -0.163 SA
BRANCH  12  13
HETATM   13  C   UNL     1     -46.602 -52.873  14.325  1.00  0.00     0.070 C 
HETATM   14  C   UNL     1     -46.810 -51.442  14.789  1.00  0.00     0.016 C 
ENDBRANCH  12  13
ENDBRANCH   8  12
ENDBRANCH   1   7
BRANCH   4  15
HETATM   15  C   UNL     1     -41.667 -48.926  12.334  1.00  0.00     0.094 A 
HETATM   16  N   UNL     1     -42.289 -48.910  11.130  1.00  0.00    -0.356 N 
HETATM   17  C   UNL     1     -41.992 -47.908  10.278  1.00  0.00     0.089 A 
ATOM     18  HN  UNL     1     -42.961 -49.634  10.877  1.00  0.00     0.166 HD
HETATM   19  C   UNL     1     -41.140 -46.870  10.589  1.00  0.00     0.018 A 
HETATM   20  C   UNL     1     -40.558 -46.862  11.849  1.00  0.00     0.011 A 
HETATM   21  C   UNL     1     -40.819 -47.904  12.762  1.00  0.00    -0.023 A 
HETATM   22  C   UNL     1     -40.187 -47.830  14.119  1.00  0.00     0.052 C 
ENDBRANCH   4  15
TORSDOF 4
ENDMDL
MODEL 7
REMARK VINA RESULT:      -5.3      2.818      4.049
REMARK  4 active torsions:
REMARK  status: ('A' for Active; 'I' for Inactive)
REMARK    1  A    between atoms: C_2  and  S_3 
REMARK    2  A    between atoms: S_3  and  C_4 
REMARK    3  A    between atoms: C_8  and  N_9 
REMARK       I    between atoms: N_9  and  C_10 
REMARK       I    between atoms: C_10  and  N_12 
REMARK    4  A    between atoms: N_12  and  C_13 
ROOT
HETATM    1  N   UNL     1     -39.749 -51.762  13.051  1.00  0.00    -0.342 N 
HETATM    2  C   UNL     1     -40.854 -52.220  13.749  1.00  0.00     0.300 C 
HETATM    3  O   UNL     1     -41.312 -51.641  14.725  1.00  0.00    -0.254 OA
HETATM    4  N   UNL     1     -41.381 -53.333  13.135  1.00  0.00    -0.196 NA
HETATM    5  H   UNL     1     -39.295 -52.406  12.416  1.00  0.00     0.164 HD
HETATM    6  H   UNL     1     -41.261 -53.296  12.134  1.00  0.00     0.139 HD
ENDROOT
BRANCH   1   7
HETATM    7  C   UNL     1     -39.109 -50.484  13.336  1.00  0.00     0.099 C 
HETATM    8  C   UNL     1     -39.286 -49.419  12.232  1.00  0.00     0.070 C 
HETATM    9  C   UNL     1     -38.210 -49.756  11.190  1.00  0.00     0.017 C 
HETATM   10  C   UNL     1     -37.115 -50.513  11.940  1.00  0.00     0.003 C 
HETATM   11  C   UNL     1     -37.585 -50.630  13.389  1.00  0.00     0.026 C 
BRANCH   8  12
HETATM   12  S   UNL     1     -40.907 -49.279  11.397  1.00  0.00    -0.163 SA
BRANCH  12  13
HETATM   13  C   UNL     1     -40.966 -47.504  10.986  1.00  0.00     0.070 C 
HETATM   14  C   UNL     1     -40.144 -46.624  11.911  1.00  0.00     0.016 C 
ENDBRANCH  12  13
ENDBRANCH   8  12
ENDBRANCH   1   7
BRANCH   4  15
HETATM   15  C   UNL     1     -42.653 -53.850  13.415  1.00  0.00     0.094 A 
HETATM   16  N   UNL     1     -43.535 -53.531  12.437  1.00  0.00    -0.356 N 
HETATM   17  C   UNL     1     -44.814 -53.929  12.585  1.00  0.00     0.089 A 
ATOM     18  HN  UNL     1     -43.239 -53.007  11.613  1.00  0.00     0.166 HD
HETATM   19  C   UNL     1     -45.258 -54.691  13.644  1.00  0.00     0.018 A 
HETATM   20  C   UNL     1     -44.332 -55.066  14.609  1.00  0.00     0.011 A 
HETATM   21  C   UNL     1     -42.988 -54.649  14.507  1.00  0.00    -0.023 A 
HETATM   22  C   UNL     1     -42.026 -55.107  15.560  1.00  0.00     0.052 C 
ENDBRANCH   4  15
TORSDOF 4
ENDMDL
MODEL 8
REMARK VINA RESULT:      -5.2      4.385      6.294
REMARK  4 active torsions:
REMARK  status: ('A' for Active; 'I' for Inactive)
REMARK    1  A    between atoms: C_2  and  S_3 
REMARK    2  A    between atoms: S_3  and  C_4 
REMARK    3  A    between atoms: C_8  and  N_9 
REMARK       I    between atoms: N_9  and  C_10 
REMARK       I    between atoms: C_10  and  N_12 
REMARK    4  A    between atoms: N_12  and  C_13 
ROOT
HETATM    1  N   UNL     1     -44.670 -53.608  15.406  1.00  0.00    -0.342 N 
HETATM    2  C   UNL     1     -43.771 -54.651  15.560  1.00  0.00     0.300 C 
HETATM    3  O   UNL     1     -43.886 -55.721  14.979  1.00  0.00    -0.254 OA
HETATM    4  N   UNL     1     -42.727 -54.266  16.369  1.00  0.00    -0.196 NA
HETATM    5  H   UNL     1     -44.642 -52.860  16.086  1.00  0.00     0.164 HD
HETATM    6  H   UNL     1     -42.515 -53.286  16.261  1.00  0.00     0.139 HD
ENDROOT
BRANCH   1   7
HETATM    7  C   UNL     1     -45.762 -53.645  14.442  1.00  0.00     0.099 C 
HETATM    8  C   UNL     1     -45.452 -52.950  13.097  1.00  0.00     0.070 C 
HETATM    9  C   UNL     1     -45.700 -51.458  13.364  1.00  0.00     0.017 C 
HETATM   10  C   UNL     1     -46.685 -51.394  14.530  1.00  0.00     0.003 C 
HETATM   11  C   UNL     1     -46.965 -52.838  14.940  1.00  0.00     0.026 C 
BRANCH   8  12
HETATM   12  S   UNL     1     -43.791 -53.160  12.362  1.00  0.00    -0.163 SA
BRANCH  12  13
HETATM   13  C   UNL     1     -42.928 -51.664  12.948  1.00  0.00     0.070 C 
HETATM   14  C   UNL     1     -41.616 -51.385  12.238  1.00  0.00     0.016 C 
ENDBRANCH  12  13
ENDBRANCH   8  12
ENDBRANCH   1   7
BRANCH   4  15
HETATM   15  C   UNL     1     -41.523 -54.975  16.479  1.00  0.00     0.094 A 
HETATM   16  N   UNL     1     -41.702 -56.142  17.143  1.00  0.00    -0.356 N 
HETATM   17  C   UNL     1     -40.622 -56.919  17.360  1.00  0.00     0.089 A 
ATOM     18  HN  UNL     1     -42.627 -56.424  17.469  1.00  0.00     0.166 HD
HETATM   19  C   UNL     1     -39.361 -56.619  16.892  1.00  0.00     0.018 A 
HETATM   20  C   UNL     1     -39.200 -55.452  16.157  1.00  0.00     0.011 A 
HETATM   21  C   UNL     1     -40.298 -54.597  15.928  1.00  0.00    -0.023 A 
HETATM   22  C   UNL     1     -40.075 -53.366  15.104  1.00  0.00     0.052 C 
ENDBRANCH   4  15
TORSDOF 4
ENDMDL
MODEL 9
REMARK VINA RESULT:      -4.9      3.375      4.901
REMARK  4 active torsions:
REMARK  status: ('A' for Active; 'I' for Inactive)
REMARK    1  A    between atoms: C_2  and  S_3 
REMARK    2  A    between atoms: S_3  and  C_4 
REMARK    3  A    between atoms: C_8  and  N_9 
REMARK       I    between atoms: N_9  and  C_10 
REMARK       I    between atoms: C_10  and  N_12 
REMARK    4  A    between atoms: N_12  and  C_13 
ROOT
HETATM    1  N   UNL     1     -41.341 -50.172  12.792  1.00  0.00    -0.342 N 
HETATM    2  C   UNL     1     -42.037 -51.347  12.562  1.00  0.00     0.300 C 
HETATM    3  O   UNL     1     -41.607 -52.248  11.855  1.00  0.00    -0.254 OA
HETATM    4  N   UNL     1     -43.198 -51.368  13.301  1.00  0.00    -0.196 NA
HETATM    5  H   UNL     1     -41.852 -49.393  13.184  1.00  0.00     0.164 HD
HETATM    6  H   UNL     1     -43.088 -50.883  14.179  1.00  0.00     0.139 HD
ENDROOT
BRANCH   1   7
HETATM    7  C   UNL     1     -39.980 -49.955  12.318  1.00  0.00     0.099 C 
HETATM    8  C   UNL     1     -38.918 -49.869  13.436  1.00  0.00     0.070 C 
HETATM    9  C   UNL     1     -39.002 -48.421  13.941  1.00  0.00     0.017 C 
HETATM   10  C   UNL     1     -39.573 -47.601  12.785  1.00  0.00     0.003 C 
HETATM   11  C   UNL     1     -39.841 -48.585  11.648  1.00  0.00     0.026 C 
BRANCH   8  12
HETATM   12  S   UNL     1     -39.046 -51.009  14.860  1.00  0.00    -0.163 SA
BRANCH  12  13
HETATM   13  C   UNL     1     -38.855 -52.635  14.058  1.00  0.00     0.070 C 
HETATM   14  C   UNL     1     -39.655 -53.748  14.711  1.00  0.00     0.016 C 
ENDBRANCH  12  13
ENDBRANCH   8  12
ENDBRANCH   1   7
BRANCH   4  15
HETATM   15  C   UNL     1     -43.963 -52.522  13.519  1.00  0.00     0.094 A 
HETATM   16  N   UNL     1     -43.204 -53.520  14.033  1.00  0.00    -0.356 N 
HETATM   17  C   UNL     1     -43.795 -54.710  14.262  1.00  0.00     0.089 A 
ATOM     18  HN  UNL     1     -42.216 -53.376  14.239  1.00  0.00     0.166 HD
HETATM   19  C   UNL     1     -45.138 -54.946  14.060  1.00  0.00     0.018 A 
HETATM   20  C   UNL     1     -45.919 -53.896  13.594  1.00  0.00     0.011 A 
HETATM   21  C   UNL     1     -45.337 -52.642  13.316  1.00  0.00    -0.023 A 
HETATM   22  C   UNL     1     -46.232 -51.538  12.843  1.00  0.00     0.052 C 
ENDBRANCH   4  15
TORSDOF 4
ENDMDL
