MODEL 1
REMARK VINA RESULT:      -6.5      0.000      0.000
REMARK  4 active torsions:
REMARK  status: ('A' for Active; 'I' for Inactive)
REMARK    1  A    between atoms: C_7  and  N_8 
REMARK       I    between atoms: N_8  and  C_9 
REMARK       I    between atoms: C_9  and  N_11 
REMARK    2  A    between atoms: N_11  and  C_12 
REMARK    3  A    between atoms: C_12  and  C_13 
REMARK    4  A    between atoms: C_13  and  C_14 
ROOT
HETATM    1  N   UNL     1     -42.021 -48.571   9.662  1.00  0.00    -0.295 N 
HETATM    2  C   UNL     1     -41.210 -48.688  10.767  1.00  0.00     0.321 C 
HETATM    3  O   UNL     1     -41.205 -47.962  11.756  1.00  0.00    -0.247 OA
HETATM    4  N   UNL     1     -40.314 -49.745  10.666  1.00  0.00    -0.343 N 
HETATM    5  H   UNL     1     -41.930 -49.245   8.926  1.00  0.00     0.172 HD
HETATM    6  H   UNL     1     -40.626 -50.550  10.146  1.00  0.00     0.164 HD
ENDROOT
BRANCH   1   7
HETATM    7  C   UNL     1     -42.921 -47.502   9.477  1.00  0.00     0.109 A 
HETATM    8  N   UNL     1     -42.455 -46.245   9.378  1.00  0.00    -0.352 N 
HETATM    9  C   UNL     1     -43.325 -45.242   9.164  1.00  0.00     0.090 A 
ATOM     10  HN  UNL     1     -41.457 -46.055   9.463  1.00  0.00     0.166 HD
HETATM   11  C   UNL     1     -44.685 -45.430   9.045  1.00  0.00     0.024 A 
HETATM   12  C   UNL     1     -45.182 -46.728   9.154  1.00  0.00    -0.057 A 
HETATM   13  C   UNL     1     -46.655 -46.986   9.037  1.00  0.00     0.048 C 
HETATM   14  C   UNL     1     -44.282 -47.781   9.376  1.00  0.00     0.055 A 
ENDBRANCH   1   7
BRANCH   4  15
HETATM   15  C   UNL     1     -39.448 -49.989  11.813  1.00  0.00     0.127 C 
BRANCH  15  16
HETATM   16  C   UNL     1     -39.954 -51.104  12.717  1.00  0.00     0.051 C 
BRANCH  16  17
HETATM   17  C   UNL     1     -40.994 -52.008  12.024  1.00  0.00     0.123 C 
HETATM   18  C   UNL     1     -42.427 -51.955  12.575  1.00  0.00     0.032 C 
HETATM   19  C   UNL     1     -42.575 -52.676  13.909  1.00  0.00     0.004 C 
HETATM   20  C   UNL     1     -41.959 -54.067  13.846  1.00  0.00     0.026 C 
HETATM   21  C   UNL     1     -40.554 -54.023  13.265  1.00  0.00     0.168 C 
HETATM   22  O   UNL     1     -40.531 -53.368  11.997  1.00  0.00    -0.386 OA
ENDBRANCH  16  17
ENDBRANCH  15  16
ENDBRANCH   4  15
TORSDOF 4
ENDMDL
MODEL 2
REMARK VINA RESULT:      -6.2      2.077      3.489
REMARK  4 active torsions:
REMARK  status: ('A' for Active; 'I' for Inactive)
REMARK    1  A    between atoms: C_7  and  N_8 
REMARK       I    between atoms: N_8  and  C_9 
REMARK       I    between atoms: C_9  and  N_11 
REMARK    2  A    between atoms: N_11  and  C_12 
REMARK    3  A    between atoms: C_12  and  C_13 
REMARK    4  A    between atoms: C_13  and  C_14 
ROOT
HETATM    1  N   UNL     1     -40.950 -50.327  10.946  1.00  0.00    -0.295 N 
HETATM    2  C   UNL     1     -40.779 -51.073  12.089  1.00  0.00     0.321 C 
HETATM    3  O   UNL     1     -40.663 -50.647  13.234  1.00  0.00    -0.247 OA
HETATM    4  N   UNL     1     -40.714 -52.437  11.837  1.00  0.00    -0.343 N 
HETATM    5  H   UNL     1     -41.046 -50.807  10.070  1.00  0.00     0.172 HD
HETATM    6  H   UNL     1     -41.255 -52.775  11.057  1.00  0.00     0.164 HD
ENDROOT
BRANCH   1   7
HETATM    7  C   UNL     1     -40.918 -48.919  10.932  1.00  0.00     0.109 A 
HETATM    8  N   UNL     1     -39.844 -48.269  11.413  1.00  0.00    -0.352 N 
HETATM    9  C   UNL     1     -39.815 -46.927  11.359  1.00  0.00     0.090 A 
ATOM     10  HN  UNL     1     -39.062 -48.788  11.814  1.00  0.00     0.166 HD
HETATM   11  C   UNL     1     -40.839 -46.166  10.836  1.00  0.00     0.024 A 
HETATM   12  C   UNL     1     -41.962 -46.827  10.339  1.00  0.00    -0.057 A 
HETATM   13  C   UNL     1     -43.106 -46.046   9.765  1.00  0.00     0.048 C 
HETATM   14  C   UNL     1     -42.001 -48.229  10.392  1.00  0.00     0.055 A 
ENDBRANCH   1   7
BRANCH   4  15
HETATM   15  C   UNL     1     -40.592 -53.318  12.992  1.00  0.00     0.127 C 
BRANCH  15  16
HETATM   16  C   UNL     1     -41.793 -54.234  13.175  1.00  0.00     0.051 C 
BRANCH  16  17
HETATM   17  C   UNL     1     -42.757 -53.742  14.275  1.00  0.00     0.123 C 
HETATM   18  C   UNL     1     -43.828 -54.737  14.746  1.00  0.00     0.032 C 
HETATM   19  C   UNL     1     -44.951 -54.921  13.734  1.00  0.00     0.004 C 
HETATM   20  C   UNL     1     -45.485 -53.574  13.265  1.00  0.00     0.026 C 
HETATM   21  C   UNL     1     -44.353 -52.649  12.843  1.00  0.00     0.168 C 
HETATM   22  O   UNL     1     -43.378 -52.509  13.875  1.00  0.00    -0.386 OA
ENDBRANCH  16  17
ENDBRANCH  15  16
ENDBRANCH   4  15
TORSDOF 4
ENDMDL
MODEL 3
REMARK VINA RESULT:      -6.1      1.848      7.014
REMARK  4 active torsions:
REMARK  status: ('A' for Active; 'I' for Inactive)
REMARK    1  A    between atoms: C_7  and  N_8 
REMARK       I    between atoms: N_8  and  C_9 
REMARK       I    between atoms: C_9  and  N_11 
REMARK    2  A    between atoms: N_11  and  C_12 
REMARK    3  A    between atoms: C_12  and  C_13 
REMARK    4  A    between atoms: C_13  and  C_14 
ROOT
HETATM    1  N   UNL     1     -40.771 -50.849  11.296  1.00  0.00    -0.295 N 
HETATM    2  C   UNL     1     -40.786 -49.567  11.796  1.00  0.00     0.321 C 
HETATM    3  O   UNL     1     -41.122 -49.223  12.925  1.00  0.00    -0.247 OA
HETATM    4  N   UNL     1     -40.392 -48.620  10.861  1.00  0.00    -0.343 N 
HETATM    5  H   UNL     1     -40.459 -50.993  10.355  1.00  0.00     0.172 HD
HETATM    6  H   UNL     1     -39.712 -48.919  10.179  1.00  0.00     0.164 HD
ENDROOT
BRANCH   1   7
HETATM    7  C   UNL     1     -41.250 -51.963  12.015  1.00  0.00     0.109 A 
HETATM    8  N   UNL     1     -42.522 -52.365  11.857  1.00  0.00    -0.352 N 
HETATM    9  C   UNL     1     -42.951 -53.451  12.523  1.00  0.00     0.090 A 
ATOM     10  HN  UNL     1     -43.154 -51.853  11.241  1.00  0.00     0.166 HD
HETATM   11  C   UNL     1     -42.151 -54.183  13.375  1.00  0.00     0.024 A 
HETATM   12  C   UNL     1     -40.830 -53.773  13.553  1.00  0.00    -0.057 A 
HETATM   13  C   UNL     1     -39.921 -54.531  14.473  1.00  0.00     0.048 C 
HETATM   14  C   UNL     1     -40.375 -52.640  12.862  1.00  0.00     0.055 A 
ENDBRANCH   1   7
BRANCH   4  15
HETATM   15  C   UNL     1     -40.318 -47.236  11.311  1.00  0.00     0.127 C 
BRANCH  15  16
HETATM   16  C   UNL     1     -40.961 -46.256  10.340  1.00  0.00     0.051 C 
BRANCH  16  17
HETATM   17  C   UNL     1     -42.323 -45.730  10.839  1.00  0.00     0.123 C 
HETATM   18  C   UNL     1     -43.227 -46.740  11.562  1.00  0.00     0.032 C 
HETATM   19  C   UNL     1     -43.873 -47.741  10.612  1.00  0.00     0.004 C 
HETATM   20  C   UNL     1     -44.517 -47.030   9.430  1.00  0.00     0.026 C 
HETATM   21  C   UNL     1     -43.558 -46.034   8.795  1.00  0.00     0.168 C 
HETATM   22  O   UNL     1     -43.044 -45.115   9.758  1.00  0.00    -0.386 OA
ENDBRANCH  16  17
ENDBRANCH  15  16
ENDBRANCH   4  15
TORSDOF 4
ENDMDL
MODEL 4
REMARK VINA RESULT:      -6.0      2.566      3.782
REMARK  4 active torsions:
REMARK  status: ('A' for Active; 'I' for Inactive)
REMARK    1  A    between atoms: C_7  and  N_8 
REMARK       I    between atoms: N_8  and  C_9 
REMARK       I    between atoms: C_9  and  N_11 
REMARK    2  A    between atoms: N_11  and  C_12 
REMARK    3  A    between atoms: C_12  and  C_13 
REMARK    4  A    between atoms: C_13  and  C_14 
ROOT
HETATM    1  N   UNL     1     -41.375 -49.853  11.260  1.00  0.00    -0.295 N 
HETATM    2  C   UNL     1     -42.008 -50.421  12.342  1.00  0.00     0.321 C 
HETATM    3  O   UNL     1     -42.901 -49.919  13.016  1.00  0.00    -0.247 OA
HETATM    4  N   UNL     1     -41.511 -51.678  12.658  1.00  0.00    -0.343 N 
HETATM    5  H   UNL     1     -40.666 -50.383  10.787  1.00  0.00     0.172 HD
HETATM    6  H   UNL     1     -41.172 -52.233  11.888  1.00  0.00     0.164 HD
ENDROOT
BRANCH   1   7
HETATM    7  C   UNL     1     -41.618 -48.534  10.829  1.00  0.00     0.109 A 
HETATM    8  N   UNL     1     -42.768 -48.236  10.202  1.00  0.00    -0.352 N 
HETATM    9  C   UNL     1     -42.999 -46.965   9.832  1.00  0.00     0.090 A 
ATOM     10  HN  UNL     1     -43.457 -48.964  10.010  1.00  0.00     0.166 HD
HETATM   11  C   UNL     1     -42.110 -45.935  10.056  1.00  0.00     0.024 A 
HETATM   12  C   UNL     1     -40.909 -46.232  10.700  1.00  0.00    -0.057 A 
HETATM   13  C   UNL     1     -39.905 -45.150  10.963  1.00  0.00     0.048 C 
HETATM   14  C   UNL     1     -40.660 -47.557  11.090  1.00  0.00     0.055 A 
ENDBRANCH   1   7
BRANCH   4  15
HETATM   15  C   UNL     1     -42.156 -52.387  13.755  1.00  0.00     0.127 C 
BRANCH  15  16
HETATM   16  C   UNL     1     -42.907 -53.632  13.304  1.00  0.00     0.051 C 
BRANCH  16  17
HETATM   17  C   UNL     1     -44.338 -53.321  12.817  1.00  0.00     0.123 C 
HETATM   18  C   UNL     1     -45.167 -52.365  13.688  1.00  0.00     0.032 C 
HETATM   19  C   UNL     1     -45.661 -53.015  14.975  1.00  0.00     0.004 C 
HETATM   20  C   UNL     1     -46.318 -54.358  14.687  1.00  0.00     0.026 C 
HETATM   21  C   UNL     1     -45.437 -55.224  13.799  1.00  0.00     0.168 C 
HETATM   22  O   UNL     1     -45.066 -54.541  12.602  1.00  0.00    -0.386 OA
ENDBRANCH  16  17
ENDBRANCH  15  16
ENDBRANCH   4  15
TORSDOF 4
ENDMDL
MODEL 5
REMARK VINA RESULT:      -5.9      3.648      6.797
REMARK  4 active torsions:
REMARK  status: ('A' for Active; 'I' for Inactive)
REMARK    1  A    between atoms: C_7  and  N_8 
REMARK       I    between atoms: N_8  and  C_9 
REMARK       I    between atoms: C_9  and  N_11 
REMARK    2  A    between atoms: N_11  and  C_12 
REMARK    3  A    between atoms: C_12  and  C_13 
REMARK    4  A    between atoms: C_13  and  C_14 
ROOT
HETATM    1  N   UNL     1     -41.466 -52.709  12.166  1.00  0.00    -0.295 N 
HETATM    2  C   UNL     1     -41.514 -51.338  12.057  1.00  0.00     0.321 C 
HETATM    3  O   UNL     1     -42.330 -50.588  12.583  1.00  0.00    -0.247 OA
HETATM    4  N   UNL     1     -40.523 -50.829  11.229  1.00  0.00    -0.343 N 
HETATM    5  H   UNL     1     -40.733 -53.202  11.692  1.00  0.00     0.172 HD
HETATM    6  H   UNL     1     -39.651 -51.335  11.209  1.00  0.00     0.164 HD
ENDROOT
BRANCH   1   7
HETATM    7  C   UNL     1     -42.442 -53.463  12.847  1.00  0.00     0.109 A 
HETATM    8  N   UNL     1     -43.694 -53.532  12.361  1.00  0.00    -0.352 N 
HETATM    9  C   UNL     1     -44.602 -54.285  13.004  1.00  0.00     0.090 A 
ATOM     10  HN  UNL     1     -43.950 -53.019  11.517  1.00  0.00     0.166 HD
HETATM   11  C   UNL     1     -44.324 -54.997  14.151  1.00  0.00     0.024 A 
HETATM   12  C   UNL     1     -43.031 -54.929  14.670  1.00  0.00    -0.057 A 
HETATM   13  C   UNL     1     -42.677 -55.680  15.918  1.00  0.00     0.048 C 
HETATM   14  C   UNL     1     -42.076 -54.145  14.005  1.00  0.00     0.055 A 
ENDBRANCH   1   7
BRANCH   4  15
HETATM   15  C   UNL     1     -40.454 -49.380  11.094  1.00  0.00     0.127 C 
BRANCH  15  16
HETATM   16  C   UNL     1     -39.262 -48.769  11.816  1.00  0.00     0.051 C 
BRANCH  16  17
HETATM   17  C   UNL     1     -39.554 -48.469  13.301  1.00  0.00     0.123 C 
HETATM   18  C   UNL     1     -38.697 -47.380  13.963  1.00  0.00     0.032 C 
HETATM   19  C   UNL     1     -37.274 -47.842  14.255  1.00  0.00     0.004 C 
HETATM   20  C   UNL     1     -37.277 -49.185  14.972  1.00  0.00     0.026 C 
HETATM   21  C   UNL     1     -38.170 -50.190  14.259  1.00  0.00     0.168 C 
HETATM   22  O   UNL     1     -39.489 -49.678  14.074  1.00  0.00    -0.386 OA
ENDBRANCH  16  17
ENDBRANCH  15  16
ENDBRANCH   4  15
TORSDOF 4
ENDMDL
MODEL 6
REMARK VINA RESULT:      -5.9      2.527      6.814
REMARK  4 active torsions:
REMARK  status: ('A' for Active; 'I' for Inactive)
REMARK    1  A    between atoms: C_7  and  N_8 
REMARK       I    between atoms: N_8  and  C_9 
REMARK       I    between atoms: C_9  and  N_11 
REMARK    2  A    between atoms: N_11  and  C_12 
REMARK    3  A    between atoms: C_12  and  C_13 
REMARK    4  A    between atoms: C_13  and  C_14 
ROOT
HETATM    1  N   UNL     1     -42.035 -52.528  11.889  1.00  0.00    -0.295 N 
HETATM    2  C   UNL     1     -41.043 -51.601  12.118  1.00  0.00     0.321 C 
HETATM    3  O   UNL     1     -40.375 -51.478  13.139  1.00  0.00    -0.247 OA
HETATM    4  N   UNL     1     -40.858 -50.736  11.049  1.00  0.00    -0.343 N 
HETATM    5  H   UNL     1     -42.495 -52.526  10.999  1.00  0.00     0.172 HD
HETATM    6  H   UNL     1     -41.032 -51.113  10.130  1.00  0.00     0.164 HD
ENDROOT
BRANCH   1   7
HETATM    7  C   UNL     1     -42.490 -53.428  12.873  1.00  0.00     0.109 A 
HETATM    8  N   UNL     1     -41.638 -53.887  13.805  1.00  0.00    -0.352 N 
HETATM    9  C   UNL     1     -42.098 -54.716  14.758  1.00  0.00     0.090 A 
ATOM     10  HN  UNL     1     -40.656 -53.610  13.791  1.00  0.00     0.166 HD
HETATM   11  C   UNL     1     -43.410 -55.133  14.832  1.00  0.00     0.024 A 
HETATM   12  C   UNL     1     -44.304 -54.670  13.866  1.00  0.00    -0.057 A 
HETATM   13  C   UNL     1     -45.740 -55.098  13.898  1.00  0.00     0.048 C 
HETATM   14  C   UNL     1     -43.831 -53.804  12.868  1.00  0.00     0.055 A 
ENDBRANCH   1   7
BRANCH   4  15
HETATM   15  C   UNL     1     -39.789 -49.753  11.171  1.00  0.00     0.127 C 
BRANCH  15  16
HETATM   16  C   UNL     1     -40.295 -48.359  11.516  1.00  0.00     0.051 C 
BRANCH  16  17
HETATM   17  C   UNL     1     -41.774 -48.149  11.129  1.00  0.00     0.123 C 
HETATM   18  C   UNL     1     -42.204 -46.708  10.816  1.00  0.00     0.032 C 
HETATM   19  C   UNL     1     -42.326 -45.843  12.065  1.00  0.00     0.004 C 
HETATM   20  C   UNL     1     -43.154 -46.545  13.133  1.00  0.00     0.026 C 
HETATM   21  C   UNL     1     -42.672 -47.971  13.355  1.00  0.00     0.168 C 
HETATM   22  O   UNL     1     -42.635 -48.708  12.134  1.00  0.00    -0.386 OA
ENDBRANCH  16  17
ENDBRANCH  15  16
ENDBRANCH   4  15
TORSDOF 4
ENDMDL
MODEL 7
REMARK VINA RESULT:      -5.8      2.610      7.410
REMARK  4 active torsions:
REMARK  status: ('A' for Active; 'I' for Inactive)
REMARK    1  A    between atoms: C_7  and  N_8 
REMARK       I    between atoms: N_8  and  C_9 
REMARK       I    between atoms: C_9  and  N_11 
REMARK    2  A    between atoms: N_11  and  C_12 
REMARK    3  A    between atoms: C_12  and  C_13 
REMARK    4  A    between atoms: C_13  and  C_14 
ROOT
HETATM    1  N   UNL     1     -41.361 -51.364  11.328  1.00  0.00    -0.295 N 
HETATM    2  C   UNL     1     -40.994 -50.108  11.757  1.00  0.00     0.321 C 
HETATM    3  O   UNL     1     -40.784 -49.760  12.914  1.00  0.00    -0.247 OA
HETATM    4  N   UNL     1     -40.899 -49.192  10.718  1.00  0.00    -0.343 N 
HETATM    5  H   UNL     1     -41.488 -51.517  10.345  1.00  0.00     0.172 HD
HETATM    6  H   UNL     1     -40.608 -49.556   9.824  1.00  0.00     0.164 HD
ENDROOT
BRANCH   1   7
HETATM    7  C   UNL     1     -41.644 -52.427  12.209  1.00  0.00     0.109 A 
HETATM    8  N   UNL     1     -40.656 -52.974  12.937  1.00  0.00    -0.352 N 
HETATM    9  C   UNL     1     -40.951 -53.961  13.799  1.00  0.00     0.090 A 
ATOM     10  HN  UNL     1     -39.695 -52.644  12.837  1.00  0.00     0.166 HD
HETATM   11  C   UNL     1     -42.225 -54.457  13.979  1.00  0.00     0.024 A 
HETATM   12  C   UNL     1     -43.259 -53.903  13.225  1.00  0.00    -0.057 A 
HETATM   13  C   UNL     1     -44.661 -54.409  13.379  1.00  0.00     0.048 C 
HETATM   14  C   UNL     1     -42.959 -52.871  12.322  1.00  0.00     0.055 A 
ENDBRANCH   1   7
BRANCH   4  15
HETATM   15  C   UNL     1     -40.459 -47.846  11.062  1.00  0.00     0.127 C 
BRANCH  15  16
HETATM   16  C   UNL     1     -41.583 -46.821  11.019  1.00  0.00     0.051 C 
BRANCH  16  17
HETATM   17  C   UNL     1     -41.196 -45.544  10.243  1.00  0.00     0.123 C 
HETATM   18  C   UNL     1     -39.789 -44.984  10.500  1.00  0.00     0.032 C 
HETATM   19  C   UNL     1     -39.665 -44.294  11.853  1.00  0.00     0.004 C 
HETATM   20  C   UNL     1     -40.802 -43.302  12.062  1.00  0.00     0.026 C 
HETATM   21  C   UNL     1     -42.151 -43.938  11.760  1.00  0.00     0.168 C 
HETATM   22  O   UNL     1     -42.177 -44.517  10.456  1.00  0.00    -0.386 OA
ENDBRANCH  16  17
ENDBRANCH  15  16
ENDBRANCH   4  15
TORSDOF 4
ENDMDL
MODEL 8
REMARK VINA RESULT:      -5.8      4.108      5.960
REMARK  4 active torsions:
REMARK  status: ('A' for Active; 'I' for Inactive)
REMARK    1  A    between atoms: C_7  and  N_8 
REMARK       I    between atoms: N_8  and  C_9 
REMARK       I    between atoms: C_9  and  N_11 
REMARK    2  A    between atoms: N_11  and  C_12 
REMARK    3  A    between atoms: C_12  and  C_13 
REMARK    4  A    between atoms: C_13  and  C_14 
ROOT
HETATM    1  N   UNL     1     -41.610 -50.873  11.977  1.00  0.00    -0.295 N 
HETATM    2  C   UNL     1     -41.917 -52.143  12.407  1.00  0.00     0.321 C 
HETATM    3  O   UNL     1     -41.187 -52.901  13.038  1.00  0.00    -0.247 OA
HETATM    4  N   UNL     1     -43.189 -52.548  12.026  1.00  0.00    -0.343 N 
HETATM    5  H   UNL     1     -42.309 -50.353  11.479  1.00  0.00     0.172 HD
HETATM    6  H   UNL     1     -43.889 -51.825  11.959  1.00  0.00     0.164 HD
ENDROOT
BRANCH   1   7
HETATM    7  C   UNL     1     -40.335 -50.294  12.131  1.00  0.00     0.109 A 
HETATM    8  N   UNL     1     -39.270 -50.849  11.527  1.00  0.00    -0.352 N 
HETATM    9  C   UNL     1     -38.068 -50.263  11.655  1.00  0.00     0.090 A 
ATOM     10  HN  UNL     1     -39.373 -51.704  10.980  1.00  0.00     0.166 HD
HETATM   11  C   UNL     1     -37.859 -49.111  12.383  1.00  0.00     0.024 A 
HETATM   12  C   UNL     1     -38.954 -48.527  13.021  1.00  0.00    -0.057 A 
HETATM   13  C   UNL     1     -38.780 -47.277  13.830  1.00  0.00     0.048 C 
HETATM   14  C   UNL     1     -40.213 -49.134  12.892  1.00  0.00     0.055 A 
ENDBRANCH   1   7
BRANCH   4  15
HETATM   15  C   UNL     1     -43.631 -53.859  12.485  1.00  0.00     0.127 C 
BRANCH  15  16
HETATM   16  C   UNL     1     -44.333 -53.815  13.834  1.00  0.00     0.051 C 
BRANCH  16  17
HETATM   17  C   UNL     1     -45.870 -53.766  13.705  1.00  0.00     0.123 C 
HETATM   18  C   UNL     1     -46.471 -52.467  13.147  1.00  0.00     0.032 C 
HETATM   19  C   UNL     1     -46.441 -51.321  14.151  1.00  0.00     0.004 C 
HETATM   20  C   UNL     1     -46.999 -51.764  15.497  1.00  0.00     0.026 C 
HETATM   21  C   UNL     1     -46.364 -53.069  15.955  1.00  0.00     0.168 C 
HETATM   22  O   UNL     1     -46.485 -54.087  14.963  1.00  0.00    -0.386 OA
ENDBRANCH  16  17
ENDBRANCH  15  16
ENDBRANCH   4  15
TORSDOF 4
ENDMDL
MODEL 9
REMARK VINA RESULT:      -5.7      2.655      7.245
REMARK  4 active torsions:
REMARK  status: ('A' for Active; 'I' for Inactive)
REMARK    1  A    between atoms: C_7  and  N_8 
REMARK       I    between atoms: N_8  and  C_9 
REMARK       I    between atoms: C_9  and  N_11 
REMARK    2  A    between atoms: N_11  and  C_12 
REMARK    3  A    between atoms: C_12  and  C_13 
REMARK    4  A    between atoms: C_13  and  C_14 
ROOT
HETATM    1  N   UNL     1     -41.963 -52.375  11.655  1.00  0.00    -0.295 N 
HETATM    2  C   UNL     1     -41.497 -51.134  12.026  1.00  0.00     0.321 C 
HETATM    3  O   UNL     1     -41.693 -50.566  13.095  1.00  0.00    -0.247 OA
HETATM    4  N   UNL     1     -40.761 -50.515  11.025  1.00  0.00    -0.343 N 
HETATM    5  H   UNL     1     -41.715 -52.730  10.751  1.00  0.00     0.172 HD
HETATM    6  H   UNL     1     -40.236 -51.120  10.414  1.00  0.00     0.164 HD
ENDROOT
BRANCH   1   7
HETATM    7  C   UNL     1     -42.837 -53.140  12.453  1.00  0.00     0.109 A 
HETATM    8  N   UNL     1     -44.141 -53.215  12.134  1.00  0.00    -0.352 N 
HETATM    9  C   UNL     1     -44.953 -53.979  12.884  1.00  0.00     0.090 A 
ATOM     10  HN  UNL     1     -44.509 -52.699  11.334  1.00  0.00     0.166 HD
HETATM   11  C   UNL     1     -44.522 -54.696  13.980  1.00  0.00     0.024 A 
HETATM   12  C   UNL     1     -43.173 -54.621  14.326  1.00  0.00    -0.057 A 
HETATM   13  C   UNL     1     -42.655 -55.377  15.513  1.00  0.00     0.048 C 
HETATM   14  C   UNL     1     -42.318 -53.826  13.548  1.00  0.00     0.055 A 
ENDBRANCH   1   7
BRANCH   4  15
HETATM   15  C   UNL     1     -40.175 -49.219  11.341  1.00  0.00     0.127 C 
BRANCH  15  16
HETATM   16  C   UNL     1     -41.088 -48.050  11.002  1.00  0.00     0.051 C 
BRANCH  16  17
HETATM   17  C   UNL     1     -41.147 -46.994  12.125  1.00  0.00     0.123 C 
HETATM   18  C   UNL     1     -42.374 -46.069  12.135  1.00  0.00     0.032 C 
HETATM   19  C   UNL     1     -42.327 -45.013  11.037  1.00  0.00     0.004 C 
HETATM   20  C   UNL     1     -40.982 -44.300  11.027  1.00  0.00     0.026 C 
HETATM   21  C   UNL     1     -39.830 -45.294  11.044  1.00  0.00     0.168 C 
HETATM   22  O   UNL     1     -39.944 -46.209  12.133  1.00  0.00    -0.386 OA
ENDBRANCH  16  17
ENDBRANCH  15  16
ENDBRANCH   4  15
TORSDOF 4
ENDMDL
