MODEL 1
REMARK VINA RESULT:      -6.9      0.000      0.000
REMARK  5 active torsions:
REMARK  status: ('A' for Active; 'I' for Inactive)
REMARK    1  A    between atoms: C_2  and  C_5 
REMARK       I    between atoms: C_5  and  N_7 
REMARK    2  A    between atoms: C_10  and  C_11 
REMARK    3  A    between atoms: C_11  and  N_12 
REMARK       I    between atoms: N_12  and  C_13 
REMARK    4  A    between atoms: C_13  and  C_15 
REMARK    5  A    between atoms: C_15  and  N_16 
ROOT
HETATM    1  C   UNL     1     -41.355 -54.453  15.399  1.00  0.00     0.127 C 
ENDROOT
BRANCH   1   2
HETATM    2  C   UNL     1     -40.601 -54.524  14.053  1.00  0.00     0.006 C 
HETATM    3  C   UNL     1     -39.130 -54.099  14.134  1.00  0.00     0.026 C 
HETATM    4  C   UNL     1     -38.908 -52.590  14.099  1.00  0.00     0.126 C 
HETATM    5  N   UNL     1     -39.621 -51.948  13.001  1.00  0.00    -0.344 N 
HETATM    6  C   UNL     1     -39.169 -50.810  12.315  1.00  0.00     0.327 C 
HETATM    7  C   UNL     1     -41.051 -52.271  12.918  1.00  0.00     0.126 C 
HETATM    8  O   UNL     1     -39.964 -50.182  11.596  1.00  0.00    -0.263 OA
HETATM    9  C   UNL     1     -41.293 -53.778  12.903  1.00  0.00     0.026 C 
BRANCH   6  10
HETATM   10  C   UNL     1     -37.694 -50.316  12.405  1.00  0.00     0.472 C 
HETATM   11  F   UNL     1     -36.719 -51.258  12.310  1.00  0.00    -0.162 F 
HETATM   12  F   UNL     1     -37.459 -49.678  13.589  1.00  0.00    -0.162 F 
HETATM   13  F   UNL     1     -37.413 -49.411  11.424  1.00  0.00    -0.162 F 
ENDBRANCH   6  10
ENDBRANCH   1   2
BRANCH   1  14
HETATM   14  N   UNL     1     -42.772 -54.716  15.310  1.00  0.00    -0.359 N 
HETATM   15  C   UNL     1     -43.709 -54.002  16.031  1.00  0.00     0.235 C 
HETATM   16  O   UNL     1     -43.422 -53.159  16.876  1.00  0.00    -0.272 OA
HETATM   17  H   UNL     1     -43.090 -55.563  14.841  1.00  0.00     0.162 HD
BRANCH  15  18
HETATM   18  C   UNL     1     -45.151 -54.318  15.646  1.00  0.00     0.234 C 
BRANCH  18  19
HETATM   19  N   UNL     1     -45.603 -53.326  14.695  1.00  0.00    -0.316 N 
HETATM   20  C   UNL     1     -46.276 -52.209  15.144  1.00  0.00     0.095 A 
HETATM   21  C   UNL     1     -46.767 -51.309  14.284  1.00  0.00     0.017 A 
HETATM   22  C   UNL     1     -46.585 -51.500  12.868  1.00  0.00     0.007 A 
HETATM   23  C   UNL     1     -45.959 -52.590  12.399  1.00  0.00     0.074 A 
HETATM   24  C   UNL     1     -45.443 -53.613  13.343  1.00  0.00     0.247 A 
HETATM   25  O   UNL     1     -44.930 -54.645  12.917  1.00  0.00    -0.268 OA
ENDBRANCH  18  19
ENDBRANCH  15  18
ENDBRANCH   1  14
TORSDOF 5
ENDMDL
MODEL 2
REMARK VINA RESULT:      -6.7      1.433      1.665
REMARK  5 active torsions:
REMARK  status: ('A' for Active; 'I' for Inactive)
REMARK    1  A    between atoms: C_2  and  C_5 
REMARK       I    between atoms: C_5  and  N_7 
REMARK    2  A    between atoms: C_10  and  C_11 
REMARK    3  A    between atoms: C_11  and  N_12 
REMARK       I    between atoms: N_12  and  C_13 
REMARK    4  A    between atoms: C_13  and  C_15 
REMARK    5  A    between atoms: C_15  and  N_16 
ROOT
HETATM    1  C   UNL     1     -41.462 -53.979  14.660  1.00  0.00     0.127 C 
ENDROOT
BRANCH   1   2
HETATM    2  C   UNL     1     -40.333 -53.772  13.629  1.00  0.00     0.006 C 
HETATM    3  C   UNL     1     -39.265 -52.759  14.059  1.00  0.00     0.026 C 
HETATM    4  C   UNL     1     -39.649 -51.302  13.828  1.00  0.00     0.126 C 
HETATM    5  N   UNL     1     -40.137 -51.064  12.474  1.00  0.00    -0.344 N 
HETATM    6  C   UNL     1     -39.960 -49.867  11.762  1.00  0.00     0.327 C 
HETATM    7  C   UNL     1     -41.210 -51.966  12.035  1.00  0.00     0.126 C 
HETATM    8  O   UNL     1     -40.642 -49.663  10.744  1.00  0.00    -0.263 OA
HETATM    9  C   UNL     1     -40.826 -53.433  12.215  1.00  0.00     0.026 C 
BRANCH   6  10
HETATM   10  C   UNL     1     -38.919 -48.791  12.192  1.00  0.00     0.472 C 
HETATM   11  F   UNL     1     -37.609 -49.147  12.154  1.00  0.00    -0.162 F 
HETATM   12  F   UNL     1     -39.139 -48.376  13.475  1.00  0.00    -0.162 F 
HETATM   13  F   UNL     1     -39.009 -47.675  11.412  1.00  0.00    -0.162 F 
ENDBRANCH   6  10
ENDBRANCH   1   2
BRANCH   1  14
HETATM   14  N   UNL     1     -42.770 -54.190  14.088  1.00  0.00    -0.359 N 
HETATM   15  C   UNL     1     -43.689 -55.068  14.629  1.00  0.00     0.235 C 
HETATM   16  O   UNL     1     -43.445 -55.813  15.574  1.00  0.00    -0.272 OA
HETATM   17  H   UNL     1     -42.970 -53.820  13.159  1.00  0.00     0.162 HD
BRANCH  15  18
HETATM   18  C   UNL     1     -45.066 -54.996  13.978  1.00  0.00     0.234 C 
BRANCH  18  19
HETATM   19  N   UNL     1     -45.677 -53.732  14.325  1.00  0.00    -0.316 N 
HETATM   20  C   UNL     1     -46.102 -53.513  15.619  1.00  0.00     0.095 A 
HETATM   21  C   UNL     1     -46.732 -52.382  15.956  1.00  0.00     0.017 A 
HETATM   22  C   UNL     1     -46.964 -51.370  14.958  1.00  0.00     0.007 A 
HETATM   23  C   UNL     1     -46.586 -51.563  13.686  1.00  0.00     0.074 A 
HETATM   24  C   UNL     1     -45.920 -52.830  13.293  1.00  0.00     0.247 A 
HETATM   25  O   UNL     1     -45.634 -53.041  12.117  1.00  0.00    -0.268 OA
ENDBRANCH  18  19
ENDBRANCH  15  18
ENDBRANCH   1  14
TORSDOF 5
ENDMDL
MODEL 3
REMARK VINA RESULT:      -6.6      2.897      3.479
REMARK  5 active torsions:
REMARK  status: ('A' for Active; 'I' for Inactive)
REMARK    1  A    between atoms: C_2  and  C_5 
REMARK       I    between atoms: C_5  and  N_7 
REMARK    2  A    between atoms: C_10  and  C_11 
REMARK    3  A    between atoms: C_11  and  N_12 
REMARK       I    between atoms: N_12  and  C_13 
REMARK    4  A    between atoms: C_13  and  C_15 
REMARK    5  A    between atoms: C_15  and  N_16 
ROOT
HETATM    1  C   UNL     1     -41.706 -53.991  13.268  1.00  0.00     0.127 C 
ENDROOT
BRANCH   1   2
HETATM    2  C   UNL     1     -41.349 -52.670  13.983  1.00  0.00     0.006 C 
HETATM    3  C   UNL     1     -42.531 -51.709  14.155  1.00  0.00     0.026 C 
HETATM    4  C   UNL     1     -42.849 -50.873  12.920  1.00  0.00     0.126 C 
HETATM    5  N   UNL     1     -41.667 -50.219  12.371  1.00  0.00    -0.344 N 
HETATM    6  C   UNL     1     -41.673 -48.973  11.725  1.00  0.00     0.327 C 
HETATM    7  C   UNL     1     -40.525 -51.110  12.124  1.00  0.00     0.126 C 
HETATM    8  O   UNL     1     -40.683 -48.634  11.056  1.00  0.00    -0.263 OA
HETATM    9  C   UNL     1     -40.160 -51.921  13.364  1.00  0.00     0.026 C 
BRANCH   6  10
HETATM   10  C   UNL     1     -42.873 -47.986  11.836  1.00  0.00     0.472 C 
HETATM   11  F   UNL     1     -44.027 -48.342  11.214  1.00  0.00    -0.162 F 
HETATM   12  F   UNL     1     -42.553 -46.761  11.323  1.00  0.00    -0.162 F 
HETATM   13  F   UNL     1     -43.220 -47.772  13.138  1.00  0.00    -0.162 F 
ENDBRANCH   6  10
ENDBRANCH   1   2
BRANCH   1  14
HETATM   14  N   UNL     1     -43.121 -54.264  13.178  1.00  0.00    -0.359 N 
HETATM   15  C   UNL     1     -43.805 -54.982  14.139  1.00  0.00     0.235 C 
HETATM   16  O   UNL     1     -43.263 -55.534  15.092  1.00  0.00    -0.272 OA
HETATM   17  H   UNL     1     -43.606 -54.079  12.301  1.00  0.00     0.162 HD
BRANCH  15  18
HETATM   18  C   UNL     1     -45.317 -54.992  13.939  1.00  0.00     0.234 C 
BRANCH  18  19
HETATM   19  N   UNL     1     -45.843 -53.702  14.331  1.00  0.00    -0.316 N 
HETATM   20  C   UNL     1     -46.216 -53.488  15.642  1.00  0.00     0.095 A 
HETATM   21  C   UNL     1     -46.769 -52.330  16.020  1.00  0.00     0.017 A 
HETATM   22  C   UNL     1     -46.971 -51.285  15.050  1.00  0.00     0.007 A 
HETATM   23  C   UNL     1     -46.644 -51.472  13.763  1.00  0.00     0.074 A 
HETATM   24  C   UNL     1     -46.064 -52.766  13.325  1.00  0.00     0.247 A 
HETATM   25  O   UNL     1     -45.826 -52.968  12.137  1.00  0.00    -0.268 OA
ENDBRANCH  18  19
ENDBRANCH  15  18
ENDBRANCH   1  14
TORSDOF 5
ENDMDL
MODEL 4
REMARK VINA RESULT:      -6.4      1.030      1.573
REMARK  5 active torsions:
REMARK  status: ('A' for Active; 'I' for Inactive)
REMARK    1  A    between atoms: C_2  and  C_5 
REMARK       I    between atoms: C_5  and  N_7 
REMARK    2  A    between atoms: C_10  and  C_11 
REMARK    3  A    between atoms: C_11  and  N_12 
REMARK       I    between atoms: N_12  and  C_13 
REMARK    4  A    between atoms: C_13  and  C_15 
REMARK    5  A    between atoms: C_15  and  N_16 
ROOT
HETATM    1  C   UNL     1     -41.373 -53.914  15.624  1.00  0.00     0.127 C 
ENDROOT
BRANCH   1   2
HETATM    2  C   UNL     1     -40.817 -54.084  14.194  1.00  0.00     0.006 C 
HETATM    3  C   UNL     1     -39.310 -53.831  14.071  1.00  0.00     0.026 C 
HETATM    4  C   UNL     1     -38.923 -52.360  13.971  1.00  0.00     0.126 C 
HETATM    5  N   UNL     1     -39.698 -51.649  12.960  1.00  0.00    -0.344 N 
HETATM    6  C   UNL     1     -39.214 -50.577  12.193  1.00  0.00     0.327 C 
HETATM    7  C   UNL     1     -41.154 -51.804  13.073  1.00  0.00     0.126 C 
HETATM    8  O   UNL     1     -40.021 -49.868  11.569  1.00  0.00    -0.263 OA
HETATM    9  C   UNL     1     -41.566 -53.273  13.126  1.00  0.00     0.026 C 
BRANCH   6  10
HETATM   10  C   UNL     1     -37.694 -50.257  12.079  1.00  0.00     0.472 C 
HETATM   11  F   UNL     1     -36.840 -51.314  12.037  1.00  0.00    -0.162 F 
HETATM   12  F   UNL     1     -37.269 -49.497  13.130  1.00  0.00    -0.162 F 
HETATM   13  F   UNL     1     -37.422 -49.535  10.953  1.00  0.00    -0.162 F 
ENDBRANCH   6  10
ENDBRANCH   1   2
BRANCH   1  14
HETATM   14  N   UNL     1     -42.796 -53.680  15.693  1.00  0.00    -0.359 N 
HETATM   15  C   UNL     1     -43.725 -54.693  15.557  1.00  0.00     0.235 C 
HETATM   16  O   UNL     1     -43.435 -55.850  15.268  1.00  0.00    -0.272 OA
HETATM   17  H   UNL     1     -43.143 -52.722  15.666  1.00  0.00     0.162 HD
BRANCH  15  18
HETATM   18  C   UNL     1     -45.158 -54.256  15.849  1.00  0.00     0.234 C 
BRANCH  18  19
HETATM   19  N   UNL     1     -45.601 -53.382  14.785  1.00  0.00    -0.316 N 
HETATM   20  C   UNL     1     -45.251 -53.665  13.481  1.00  0.00     0.095 A 
HETATM   21  C   UNL     1     -45.586 -52.839  12.484  1.00  0.00     0.017 A 
HETATM   22  C   UNL     1     -46.332 -51.641  12.768  1.00  0.00     0.007 A 
HETATM   23  C   UNL     1     -46.664 -51.324  14.028  1.00  0.00     0.074 A 
HETATM   24  C   UNL     1     -46.265 -52.215  15.148  1.00  0.00     0.247 A 
HETATM   25  O   UNL     1     -46.507 -51.896  16.309  1.00  0.00    -0.268 OA
ENDBRANCH  18  19
ENDBRANCH  15  18
ENDBRANCH   1  14
TORSDOF 5
ENDMDL
MODEL 5
REMARK VINA RESULT:      -6.0      3.788      4.805
REMARK  5 active torsions:
REMARK  status: ('A' for Active; 'I' for Inactive)
REMARK    1  A    between atoms: C_2  and  C_5 
REMARK       I    between atoms: C_5  and  N_7 
REMARK    2  A    between atoms: C_10  and  C_11 
REMARK    3  A    between atoms: C_11  and  N_12 
REMARK       I    between atoms: N_12  and  C_13 
REMARK    4  A    between atoms: C_13  and  C_15 
REMARK    5  A    between atoms: C_15  and  N_16 
ROOT
HETATM    1  C   UNL     1     -41.425 -50.638  12.081  1.00  0.00     0.127 C 
ENDROOT
BRANCH   1   2
HETATM    2  C   UNL     1     -42.105 -49.336  12.556  1.00  0.00     0.006 C 
HETATM    3  C   UNL     1     -42.444 -48.355  11.428  1.00  0.00     0.026 C 
HETATM    4  C   UNL     1     -41.273 -47.493  10.969  1.00  0.00     0.126 C 
HETATM    5  N   UNL     1     -40.583 -46.853  12.083  1.00  0.00    -0.344 N 
HETATM    6  C   UNL     1     -39.962 -45.596  12.019  1.00  0.00     0.327 C 
HETATM    7  C   UNL     1     -40.177 -47.761  13.163  1.00  0.00     0.126 C 
HETATM    8  O   UNL     1     -39.173 -45.265  12.920  1.00  0.00    -0.263 OA
HETATM    9  C   UNL     1     -41.347 -48.600  13.670  1.00  0.00     0.026 C 
BRANCH   6  10
HETATM   10  C   UNL     1     -40.243 -44.588  10.865  1.00  0.00     0.472 C 
HETATM   11  F   UNL     1     -39.678 -44.854   9.659  1.00  0.00    -0.162 F 
HETATM   12  F   UNL     1     -39.813 -43.333  11.191  1.00  0.00    -0.162 F 
HETATM   13  F   UNL     1     -41.580 -44.478  10.617  1.00  0.00    -0.162 F 
ENDBRANCH   6  10
ENDBRANCH   1   2
BRANCH   1  14
HETATM   14  N   UNL     1     -42.324 -51.749  11.882  1.00  0.00    -0.359 N 
HETATM   15  C   UNL     1     -42.658 -52.628  12.894  1.00  0.00     0.235 C 
HETATM   16  O   UNL     1     -42.152 -52.605  14.012  1.00  0.00    -0.272 OA
HETATM   17  H   UNL     1     -42.589 -52.009  10.933  1.00  0.00     0.162 HD
BRANCH  15  18
HETATM   18  C   UNL     1     -43.762 -53.611  12.515  1.00  0.00     0.234 C 
BRANCH  18  19
HETATM   19  N   UNL     1     -44.940 -53.307  13.298  1.00  0.00    -0.316 N 
HETATM   20  C   UNL     1     -45.503 -52.050  13.222  1.00  0.00     0.095 A 
HETATM   21  C   UNL     1     -46.550 -51.717  13.985  1.00  0.00     0.017 A 
HETATM   22  C   UNL     1     -47.108 -52.685  14.894  1.00  0.00     0.007 A 
HETATM   23  C   UNL     1     -46.567 -53.906  15.011  1.00  0.00     0.074 A 
HETATM   24  C   UNL     1     -45.381 -54.274  14.196  1.00  0.00     0.247 A 
HETATM   25  O   UNL     1     -44.840 -55.366  14.348  1.00  0.00    -0.268 OA
ENDBRANCH  18  19
ENDBRANCH  15  18
ENDBRANCH   1  14
TORSDOF 5
ENDMDL
MODEL 6
REMARK VINA RESULT:      -6.0      4.893      6.452
REMARK  5 active torsions:
REMARK  status: ('A' for Active; 'I' for Inactive)
REMARK    1  A    between atoms: C_2  and  C_5 
REMARK       I    between atoms: C_5  and  N_7 
REMARK    2  A    between atoms: C_10  and  C_11 
REMARK    3  A    between atoms: C_11  and  N_12 
REMARK       I    between atoms: N_12  and  C_13 
REMARK    4  A    between atoms: C_13  and  C_15 
REMARK    5  A    between atoms: C_15  and  N_16 
ROOT
HETATM    1  C   UNL     1     -42.022 -49.292  11.908  1.00  0.00     0.127 C 
ENDROOT
BRANCH   1   2
HETATM    2  C   UNL     1     -41.349 -48.405  10.838  1.00  0.00     0.006 C 
HETATM    3  C   UNL     1     -40.438 -47.313  11.409  1.00  0.00     0.026 C 
HETATM    4  C   UNL     1     -41.172 -46.063  11.882  1.00  0.00     0.126 C 
HETATM    5  N   UNL     1     -42.104 -45.553  10.883  1.00  0.00    -0.344 N 
HETATM    6  C   UNL     1     -42.417 -44.197  10.705  1.00  0.00     0.327 C 
HETATM    7  C   UNL     1     -43.045 -46.547  10.351  1.00  0.00     0.126 C 
HETATM    8  O   UNL     1     -43.414 -43.891  10.030  1.00  0.00    -0.263 OA
HETATM    9  C   UNL     1     -42.326 -47.787   9.827  1.00  0.00     0.026 C 
BRANCH   6  10
HETATM   10  C   UNL     1     -41.543 -43.056  11.307  1.00  0.00     0.472 C 
HETATM   11  F   UNL     1     -41.478 -42.976  12.661  1.00  0.00    -0.162 F 
HETATM   12  F   UNL     1     -41.983 -41.830  10.897  1.00  0.00    -0.162 F 
HETATM   13  F   UNL     1     -40.247 -43.153  10.892  1.00  0.00    -0.162 F 
ENDBRANCH   6  10
ENDBRANCH   1   2
BRANCH   1  14
HETATM   14  N   UNL     1     -41.880 -50.712  11.690  1.00  0.00    -0.359 N 
HETATM   15  C   UNL     1     -40.913 -51.469  12.320  1.00  0.00     0.235 C 
HETATM   16  O   UNL     1     -40.033 -50.996  13.034  1.00  0.00    -0.272 OA
HETATM   17  H   UNL     1     -42.387 -51.148  10.921  1.00  0.00     0.162 HD
BRANCH  15  18
HETATM   18  C   UNL     1     -41.061 -52.971  12.090  1.00  0.00     0.234 C 
BRANCH  18  19
HETATM   19  N   UNL     1     -41.776 -53.541  13.211  1.00  0.00    -0.316 N 
HETATM   20  C   UNL     1     -41.069 -54.084  14.264  1.00  0.00     0.095 A 
HETATM   21  C   UNL     1     -41.700 -54.680  15.282  1.00  0.00     0.017 A 
HETATM   22  C   UNL     1     -43.139 -54.751  15.288  1.00  0.00     0.007 A 
HETATM   23  C   UNL     1     -43.853 -54.256  14.266  1.00  0.00     0.074 A 
HETATM   24  C   UNL     1     -43.161 -53.626  13.113  1.00  0.00     0.247 A 
HETATM   25  O   UNL     1     -43.805 -53.233  12.144  1.00  0.00    -0.268 OA
ENDBRANCH  18  19
ENDBRANCH  15  18
ENDBRANCH   1  14
TORSDOF 5
ENDMDL
MODEL 7
REMARK VINA RESULT:      -6.0      4.492      5.546
REMARK  5 active torsions:
REMARK  status: ('A' for Active; 'I' for Inactive)
REMARK    1  A    between atoms: C_2  and  C_5 
REMARK       I    between atoms: C_5  and  N_7 
REMARK    2  A    between atoms: C_10  and  C_11 
REMARK    3  A    between atoms: C_11  and  N_12 
REMARK       I    between atoms: N_12  and  C_13 
REMARK    4  A    between atoms: C_13  and  C_15 
REMARK    5  A    between atoms: C_15  and  N_16 
ROOT
HETATM    1  C   UNL     1     -41.504 -49.577  12.446  1.00  0.00     0.127 C 
ENDROOT
BRANCH   1   2
HETATM    2  C   UNL     1     -41.120 -48.850  11.139  1.00  0.00     0.006 C 
HETATM    3  C   UNL     1     -39.976 -47.841  11.293  1.00  0.00     0.026 C 
HETATM    4  C   UNL     1     -40.404 -46.483  11.840  1.00  0.00     0.126 C 
HETATM    5  N   UNL     1     -41.550 -45.931  11.127  1.00  0.00    -0.344 N 
HETATM    6  C   UNL     1     -41.774 -44.561  10.918  1.00  0.00     0.327 C 
HETATM    7  C   UNL     1     -42.700 -46.837  11.009  1.00  0.00     0.126 C 
HETATM    8  O   UNL     1     -42.899 -44.182  10.552  1.00  0.00    -0.263 OA
HETATM    9  C   UNL     1     -42.302 -48.186  10.418  1.00  0.00     0.026 C 
BRANCH   6  10
HETATM   10  C   UNL     1     -40.652 -43.497  11.108  1.00  0.00     0.472 C 
HETATM   11  F   UNL     1     -40.049 -43.444  12.324  1.00  0.00    -0.162 F 
HETATM   12  F   UNL     1     -41.127 -42.236  10.890  1.00  0.00    -0.162 F 
HETATM   13  F   UNL     1     -39.638 -43.681  10.214  1.00  0.00    -0.162 F 
ENDBRANCH   6  10
ENDBRANCH   1   2
BRANCH   1  14
HETATM   14  N   UNL     1     -42.512 -50.598  12.294  1.00  0.00    -0.359 N 
HETATM   15  C   UNL     1     -42.244 -51.942  12.465  1.00  0.00     0.235 C 
HETATM   16  O   UNL     1     -41.119 -52.394  12.659  1.00  0.00    -0.272 OA
HETATM   17  H   UNL     1     -43.409 -50.351  11.877  1.00  0.00     0.162 HD
BRANCH  15  18
HETATM   18  C   UNL     1     -43.488 -52.825  12.441  1.00  0.00     0.234 C 
BRANCH  18  19
HETATM   19  N   UNL     1     -44.462 -52.276  13.359  1.00  0.00    -0.316 N 
HETATM   20  C   UNL     1     -44.077 -51.940  14.640  1.00  0.00     0.095 A 
HETATM   21  C   UNL     1     -44.968 -51.496  15.533  1.00  0.00     0.017 A 
HETATM   22  C   UNL     1     -46.350 -51.354  15.153  1.00  0.00     0.007 A 
HETATM   23  C   UNL     1     -46.761 -51.697  13.924  1.00  0.00     0.074 A 
HETATM   24  C   UNL     1     -45.787 -52.228  12.936  1.00  0.00     0.247 A 
HETATM   25  O   UNL     1     -46.169 -52.608  11.832  1.00  0.00    -0.268 OA
ENDBRANCH  18  19
ENDBRANCH  15  18
ENDBRANCH   1  14
TORSDOF 5
ENDMDL
MODEL 8
REMARK VINA RESULT:      -5.8      4.140      7.544
REMARK  5 active torsions:
REMARK  status: ('A' for Active; 'I' for Inactive)
REMARK    1  A    between atoms: C_2  and  C_5 
REMARK       I    between atoms: C_5  and  N_7 
REMARK    2  A    between atoms: C_10  and  C_11 
REMARK    3  A    between atoms: C_11  and  N_12 
REMARK       I    between atoms: N_12  and  C_13 
REMARK    4  A    between atoms: C_13  and  C_15 
REMARK    5  A    between atoms: C_15  and  N_16 
ROOT
HETATM    1  C   UNL     1     -40.028 -52.401  13.446  1.00  0.00     0.127 C 
ENDROOT
BRANCH   1   2
HETATM    2  C   UNL     1     -41.112 -53.169  12.660  1.00  0.00     0.006 C 
HETATM    3  C   UNL     1     -42.312 -52.312  12.242  1.00  0.00     0.026 C 
HETATM    4  C   UNL     1     -43.352 -52.106  13.338  1.00  0.00     0.126 C 
HETATM    5  N   UNL     1     -43.748 -53.359  13.971  1.00  0.00    -0.344 N 
HETATM    6  C   UNL     1     -45.027 -53.621  14.487  1.00  0.00     0.327 C 
HETATM    7  C   UNL     1     -42.635 -54.189  14.451  1.00  0.00     0.126 C 
HETATM    8  O   UNL     1     -45.185 -54.593  15.245  1.00  0.00    -0.263 OA
HETATM    9  C   UNL     1     -41.606 -54.447  13.353  1.00  0.00     0.026 C 
BRANCH   6  10
HETATM   10  C   UNL     1     -46.264 -52.747  14.125  1.00  0.00     0.472 C 
HETATM   11  F   UNL     1     -47.465 -53.136  14.628  1.00  0.00    -0.162 F 
HETATM   12  F   UNL     1     -46.446 -52.686  12.773  1.00  0.00    -0.162 F 
HETATM   13  F   UNL     1     -46.102 -51.459  14.545  1.00  0.00    -0.162 F 
ENDBRANCH   6  10
ENDBRANCH   1   2
BRANCH   1  14
HETATM   14  N   UNL     1     -39.662 -51.126  12.878  1.00  0.00    -0.359 N 
HETATM   15  C   UNL     1     -38.377 -50.835  12.463  1.00  0.00     0.235 C 
HETATM   16  O   UNL     1     -37.421 -51.586  12.630  1.00  0.00    -0.272 OA
HETATM   17  H   UNL     1     -40.319 -50.348  12.941  1.00  0.00     0.162 HD
BRANCH  15  18
HETATM   18  C   UNL     1     -38.256 -49.504  11.726  1.00  0.00     0.234 C 
BRANCH  18  19
HETATM   19  N   UNL     1     -38.474 -48.431  12.671  1.00  0.00    -0.316 N 
HETATM   20  C   UNL     1     -37.724 -48.378  13.827  1.00  0.00     0.095 A 
HETATM   21  C   UNL     1     -37.950 -47.438  14.752  1.00  0.00     0.017 A 
HETATM   22  C   UNL     1     -38.985 -46.459  14.538  1.00  0.00     0.007 A 
HETATM   23  C   UNL     1     -39.749 -46.500  13.438  1.00  0.00     0.074 A 
HETATM   24  C   UNL     1     -39.532 -47.562  12.422  1.00  0.00     0.247 A 
HETATM   25  O   UNL     1     -40.273 -47.645  11.446  1.00  0.00    -0.268 OA
ENDBRANCH  18  19
ENDBRANCH  15  18
ENDBRANCH   1  14
TORSDOF 5
ENDMDL
MODEL 9
REMARK VINA RESULT:      -5.8      4.064      5.745
REMARK  5 active torsions:
REMARK  status: ('A' for Active; 'I' for Inactive)
REMARK    1  A    between atoms: C_2  and  C_5 
REMARK       I    between atoms: C_5  and  N_7 
REMARK    2  A    between atoms: C_10  and  C_11 
REMARK    3  A    between atoms: C_11  and  N_12 
REMARK       I    between atoms: N_12  and  C_13 
REMARK    4  A    between atoms: C_13  and  C_15 
REMARK    5  A    between atoms: C_15  and  N_16 
ROOT
HETATM    1  C   UNL     1     -39.192 -49.557  13.121  1.00  0.00     0.127 C 
ENDROOT
BRANCH   1   2
HETATM    2  C   UNL     1     -40.529 -48.822  13.353  1.00  0.00     0.006 C 
HETATM    3  C   UNL     1     -41.698 -49.366  12.522  1.00  0.00     0.026 C 
HETATM    4  C   UNL     1     -41.745 -48.852  11.087  1.00  0.00     0.126 C 
HETATM    5  N   UNL     1     -41.628 -47.401  11.012  1.00  0.00    -0.344 N 
HETATM    6  C   UNL     1     -42.242 -46.601  10.035  1.00  0.00     0.327 C 
HETATM    7  C   UNL     1     -40.484 -46.833  11.738  1.00  0.00     0.126 C 
HETATM    8  O   UNL     1     -41.864 -45.427   9.889  1.00  0.00    -0.263 OA
HETATM    9  C   UNL     1     -40.447 -47.297  13.191  1.00  0.00     0.026 C 
BRANCH   6  10
HETATM   10  C   UNL     1     -43.402 -47.129   9.139  1.00  0.00     0.472 C 
HETATM   11  F   UNL     1     -44.047 -46.220   8.362  1.00  0.00    -0.162 F 
HETATM   12  F   UNL     1     -44.380 -47.715   9.891  1.00  0.00    -0.162 F 
HETATM   13  F   UNL     1     -42.962 -48.090   8.274  1.00  0.00    -0.162 F 
ENDBRANCH   6  10
ENDBRANCH   1   2
BRANCH   1  14
HETATM   14  N   UNL     1     -39.309 -50.987  12.967  1.00  0.00    -0.359 N 
HETATM   15  C   UNL     1     -39.371 -51.851  14.042  1.00  0.00     0.235 C 
HETATM   16  O   UNL     1     -39.234 -51.497  15.210  1.00  0.00    -0.272 OA
HETATM   17  H   UNL     1     -39.165 -51.400  12.045  1.00  0.00     0.162 HD
BRANCH  15  18
HETATM   18  C   UNL     1     -39.681 -53.294  13.656  1.00  0.00     0.234 C 
BRANCH  18  19
HETATM   19  N   UNL     1     -41.106 -53.509  13.777  1.00  0.00    -0.316 N 
HETATM   20  C   UNL     1     -41.604 -54.163  14.884  1.00  0.00     0.095 A 
HETATM   21  C   UNL     1     -42.909 -54.439  14.992  1.00  0.00     0.017 A 
HETATM   22  C   UNL     1     -43.812 -54.041  13.944  1.00  0.00     0.007 A 
HETATM   23  C   UNL     1     -43.355 -53.427  12.842  1.00  0.00     0.074 A 
HETATM   24  C   UNL     1     -41.904 -53.150  12.695  1.00  0.00     0.247 A 
HETATM   25  O   UNL     1     -41.471 -52.650  11.660  1.00  0.00    -0.268 OA
ENDBRANCH  18  19
ENDBRANCH  15  18
ENDBRANCH   1  14
TORSDOF 5
ENDMDL
