MODEL 1
REMARK VINA RESULT:      -6.5      0.000      0.000
REMARK  6 active torsions:
REMARK  status: ('A' for Active; 'I' for Inactive)
REMARK    1  A    between atoms: O_1  and  C_2 
REMARK    2  A    between atoms: C_2  and  C_3 
REMARK    3  A    between atoms: C_2  and  C_11 
REMARK    4  A    between atoms: C_3  and  O_4 
REMARK    5  A    between atoms: O_4  and  C_5 
REMARK    6  A    between atoms: C_11  and  N_12 
ROOT
HETATM    1  N   UNL     1     -41.643 -50.374  12.263  1.00  0.00    -0.271 N 
HETATM    2  N   UNL     1     -40.803 -51.170  11.571  1.00  0.00    -0.019 NA
HETATM    3  N   UNL     1     -41.328 -52.389  11.554  1.00  0.00    -0.282 N 
ATOM      4  HN  UNL     1     -40.920 -53.210  11.105  1.00  0.00     0.184 HD
HETATM    5  C   UNL     1     -42.510 -52.356  12.241  1.00  0.00     0.075 A 
HETATM    6  C   UNL     1     -43.438 -53.368  12.518  1.00  0.00     0.058 A 
HETATM    7  C   UNL     1     -44.588 -53.040  13.252  1.00  0.00     0.058 A 
HETATM    8 CL   UNL     1     -45.711 -54.317  13.571  1.00  0.00    -0.082 Cl
HETATM    9  C   UNL     1     -44.806 -51.727  13.700  1.00  0.00     0.058 A 
HETATM   10 CL   UNL     1     -46.219 -51.285  14.598  1.00  0.00    -0.082 Cl
HETATM   11  C   UNL     1     -43.881 -50.710  13.434  1.00  0.00     0.058 A 
HETATM   12  C   UNL     1     -42.742 -51.067  12.702  1.00  0.00     0.078 A 
ENDROOT
BRANCH   1  13
HETATM   13  C   UNL     1     -41.278 -49.002  12.545  1.00  0.00     0.180 C 
BRANCH  13  14
HETATM   14  C   UNL     1     -41.452 -48.080  11.334  1.00  0.00     0.161 C 
BRANCH  14  15
HETATM   15  O   UNL     1     -41.463 -48.852  10.126  1.00  0.00    -0.392 OA
HETATM   16  H   UNL     1     -41.155 -48.274   9.404  1.00  0.00     0.210 HD
ENDBRANCH  14  15
BRANCH  14  17
HETATM   17  C   UNL     1     -42.784 -47.323  11.422  1.00  0.00     0.201 C 
BRANCH  17  18
HETATM   18  O   UNL     1     -43.693 -47.811  10.444  1.00  0.00    -0.383 OA
BRANCH  18  19
HETATM   19  C   UNL     1     -44.188 -46.820   9.532  1.00  0.00     0.125 C 
HETATM   20  C   UNL     1     -45.672 -47.123   9.316  1.00  0.00     0.058 C 
HETATM   21  C   UNL     1     -45.842 -48.430   8.546  1.00  0.00     0.170 C 
HETATM   22  O   UNL     1     -45.133 -48.388   7.306  1.00  0.00    -0.391 OA
HETATM   23  C   UNL     1     -43.732 -48.191   7.491  1.00  0.00     0.170 C 
HETATM   24  C   UNL     1     -43.478 -46.855   8.175  1.00  0.00     0.058 C 
ENDBRANCH  18  19
ENDBRANCH  17  18
ENDBRANCH  14  17
ENDBRANCH  13  14
ENDBRANCH   1  13
TORSDOF 6
ENDMDL
MODEL 2
REMARK VINA RESULT:      -6.4      2.477      3.147
REMARK  6 active torsions:
REMARK  status: ('A' for Active; 'I' for Inactive)
REMARK    1  A    between atoms: O_1  and  C_2 
REMARK    2  A    between atoms: C_2  and  C_3 
REMARK    3  A    between atoms: C_2  and  C_11 
REMARK    4  A    between atoms: C_3  and  O_4 
REMARK    5  A    between atoms: O_4  and  C_5 
REMARK    6  A    between atoms: C_11  and  N_12 
ROOT
HETATM    1  N   UNL     1     -42.131 -51.565  12.415  1.00  0.00    -0.271 N 
HETATM    2  N   UNL     1     -41.332 -52.587  12.049  1.00  0.00    -0.019 NA
HETATM    3  N   UNL     1     -41.955 -53.716  12.366  1.00  0.00    -0.282 N 
ATOM      4  HN  UNL     1     -41.598 -54.660  12.212  1.00  0.00     0.184 HD
HETATM    5  C   UNL     1     -43.156 -53.396  12.937  1.00  0.00     0.075 A 
HETATM    6  C   UNL     1     -44.173 -54.212  13.449  1.00  0.00     0.058 A 
HETATM    7  C   UNL     1     -45.321 -53.600  13.976  1.00  0.00     0.058 A 
HETATM    8 CL   UNL     1     -46.557 -54.642  14.595  1.00  0.00    -0.082 Cl
HETATM    9  C   UNL     1     -45.448 -52.202  13.994  1.00  0.00     0.058 A 
HETATM   10 CL   UNL     1     -46.853 -51.413  14.628  1.00  0.00    -0.082 Cl
HETATM   11  C   UNL     1     -44.432 -51.378  13.491  1.00  0.00     0.058 A 
HETATM   12  C   UNL     1     -43.299 -52.016  12.973  1.00  0.00     0.078 A 
ENDROOT
BRANCH   1  13
HETATM   13  C   UNL     1     -41.666 -50.199  12.293  1.00  0.00     0.180 C 
BRANCH  13  14
HETATM   14  C   UNL     1     -40.283 -50.098  11.640  1.00  0.00     0.161 C 
BRANCH  14  15
HETATM   15  O   UNL     1     -40.418 -49.977  10.218  1.00  0.00    -0.392 OA
HETATM   16  H   UNL     1     -41.024 -49.235  10.042  1.00  0.00     0.210 HD
ENDBRANCH  14  15
BRANCH  14  17
HETATM   17  C   UNL     1     -39.539 -48.856  12.150  1.00  0.00     0.201 C 
BRANCH  17  18
HETATM   18  O   UNL     1     -39.885 -47.720  11.370  1.00  0.00    -0.383 OA
BRANCH  18  19
HETATM   19  C   UNL     1     -40.455 -46.630  12.109  1.00  0.00     0.125 C 
HETATM   20  C   UNL     1     -41.917 -46.517  11.671  1.00  0.00     0.058 C 
HETATM   21  C   UNL     1     -42.003 -46.045  10.222  1.00  0.00     0.170 C 
HETATM   22  O   UNL     1     -41.308 -44.809  10.045  1.00  0.00    -0.391 OA
HETATM   23  C   UNL     1     -39.923 -44.916  10.368  1.00  0.00     0.170 C 
HETATM   24  C   UNL     1     -39.756 -45.296  11.833  1.00  0.00     0.058 C 
ENDBRANCH  18  19
ENDBRANCH  17  18
ENDBRANCH  14  17
ENDBRANCH  13  14
ENDBRANCH   1  13
TORSDOF 6
ENDMDL
MODEL 3
REMARK VINA RESULT:      -5.9      3.182      5.486
REMARK  6 active torsions:
REMARK  status: ('A' for Active; 'I' for Inactive)
REMARK    1  A    between atoms: O_1  and  C_2 
REMARK    2  A    between atoms: C_2  and  C_3 
REMARK    3  A    between atoms: C_2  and  C_11 
REMARK    4  A    between atoms: C_3  and  O_4 
REMARK    5  A    between atoms: O_4  and  C_5 
REMARK    6  A    between atoms: C_11  and  N_12 
ROOT
HETATM    1  N   UNL     1     -42.173 -51.423  12.327  1.00  0.00    -0.271 N 
HETATM    2  N   UNL     1     -41.358 -52.429  11.953  1.00  0.00    -0.019 NA
HETATM    3  N   UNL     1     -41.938 -53.569  12.309  1.00  0.00    -0.282 N 
ATOM      4  HN  UNL     1     -41.560 -54.505  12.159  1.00  0.00     0.184 HD
HETATM    5  C   UNL     1     -43.130 -53.273  12.912  1.00  0.00     0.075 A 
HETATM    6  C   UNL     1     -44.107 -54.107  13.469  1.00  0.00     0.058 A 
HETATM    7  C   UNL     1     -45.254 -53.517  14.022  1.00  0.00     0.058 A 
HETATM    8 CL   UNL     1     -46.440 -54.582  14.697  1.00  0.00    -0.082 Cl
HETATM    9  C   UNL     1     -45.420 -52.123  14.020  1.00  0.00     0.058 A 
HETATM   10 CL   UNL     1     -46.827 -51.363  14.685  1.00  0.00    -0.082 Cl
HETATM   11  C   UNL     1     -44.444 -51.280  13.472  1.00  0.00     0.058 A 
HETATM   12  C   UNL     1     -43.310 -51.896  12.930  1.00  0.00     0.078 A 
ENDROOT
BRANCH   1  13
HETATM   13  C   UNL     1     -41.751 -50.047  12.167  1.00  0.00     0.180 C 
BRANCH  13  14
HETATM   14  C   UNL     1     -40.331 -49.923  11.604  1.00  0.00     0.161 C 
BRANCH  14  15
HETATM   15  O   UNL     1     -40.367 -49.950  10.171  1.00  0.00    -0.392 OA
HETATM   16  H   UNL     1     -40.508 -49.036   9.862  1.00  0.00     0.210 HD
ENDBRANCH  14  15
BRANCH  14  17
HETATM   17  C   UNL     1     -39.698 -48.593  12.035  1.00  0.00     0.201 C 
BRANCH  17  18
HETATM   18  O   UNL     1     -39.244 -48.677  13.378  1.00  0.00    -0.383 OA
BRANCH  18  19
HETATM   19  C   UNL     1     -37.819 -48.752  13.531  1.00  0.00     0.125 C 
HETATM   20  C   UNL     1     -37.508 -50.146  14.080  1.00  0.00     0.058 C 
HETATM   21  C   UNL     1     -38.025 -50.283  15.510  1.00  0.00     0.170 C 
HETATM   22  O   UNL     1     -37.484 -49.260  16.348  1.00  0.00    -0.391 OA
HETATM   23  C   UNL     1     -37.836 -47.952  15.900  1.00  0.00     0.170 C 
HETATM   24  C   UNL     1     -37.271 -47.707  14.508  1.00  0.00     0.058 C 
ENDBRANCH  18  19
ENDBRANCH  17  18
ENDBRANCH  14  17
ENDBRANCH  13  14
ENDBRANCH   1  13
TORSDOF 6
ENDMDL
MODEL 4
REMARK VINA RESULT:      -5.8      4.228      6.452
REMARK  6 active torsions:
REMARK  status: ('A' for Active; 'I' for Inactive)
REMARK    1  A    between atoms: O_1  and  C_2 
REMARK    2  A    between atoms: C_2  and  C_3 
REMARK    3  A    between atoms: C_2  and  C_11 
REMARK    4  A    between atoms: C_3  and  O_4 
REMARK    5  A    between atoms: O_4  and  C_5 
REMARK    6  A    between atoms: C_11  and  N_12 
ROOT
HETATM    1  N   UNL     1     -39.900 -51.055  13.025  1.00  0.00    -0.271 N 
HETATM    2  N   UNL     1     -38.660 -51.247  12.531  1.00  0.00    -0.019 NA
HETATM    3  N   UNL     1     -38.281 -50.116  11.948  1.00  0.00    -0.282 N 
ATOM      4  HN  UNL     1     -37.388 -49.953  11.483  1.00  0.00     0.184 HD
HETATM    5  C   UNL     1     -39.295 -49.207  12.078  1.00  0.00     0.075 A 
HETATM    6  C   UNL     1     -39.401 -47.882  11.635  1.00  0.00     0.058 A 
HETATM    7  C   UNL     1     -40.576 -47.171  11.923  1.00  0.00     0.058 A 
HETATM    8 CL   UNL     1     -40.666 -45.537  11.362  1.00  0.00    -0.082 Cl
HETATM    9  C   UNL     1     -41.624 -47.772  12.638  1.00  0.00     0.058 A 
HETATM   10 CL   UNL     1     -43.083 -46.921  13.020  1.00  0.00    -0.082 Cl
HETATM   11  C   UNL     1     -41.531 -49.098  13.079  1.00  0.00     0.058 A 
HETATM   12  C   UNL     1     -40.348 -49.783  12.775  1.00  0.00     0.078 A 
ENDROOT
BRANCH   1  13
HETATM   13  C   UNL     1     -40.623 -52.157  13.624  1.00  0.00     0.180 C 
BRANCH  13  14
HETATM   14  C   UNL     1     -41.472 -52.932  12.611  1.00  0.00     0.161 C 
BRANCH  14  15
HETATM   15  O   UNL     1     -40.640 -53.447  11.563  1.00  0.00    -0.392 OA
HETATM   16  H   UNL     1     -40.602 -52.774  10.859  1.00  0.00     0.210 HD
ENDBRANCH  14  15
BRANCH  14  17
HETATM   17  C   UNL     1     -42.165 -54.122  13.290  1.00  0.00     0.201 C 
BRANCH  17  18
HETATM   18  O   UNL     1     -43.441 -53.733  13.781  1.00  0.00    -0.383 OA
BRANCH  18  19
HETATM   19  C   UNL     1     -44.554 -54.186  12.997  1.00  0.00     0.125 C 
HETATM   20  C   UNL     1     -45.332 -52.937  12.575  1.00  0.00     0.058 C 
HETATM   21  C   UNL     1     -45.994 -52.288  13.788  1.00  0.00     0.170 C 
HETATM   22  O   UNL     1     -46.834 -53.220  14.471  1.00  0.00    -0.391 OA
HETATM   23  C   UNL     1     -46.109 -54.353  14.947  1.00  0.00     0.170 C 
HETATM   24  C   UNL     1     -45.494 -55.108  13.778  1.00  0.00     0.058 C 
ENDBRANCH  18  19
ENDBRANCH  17  18
ENDBRANCH  14  17
ENDBRANCH  13  14
ENDBRANCH   1  13
TORSDOF 6
ENDMDL
MODEL 5
REMARK VINA RESULT:      -5.7      4.773      6.764
REMARK  6 active torsions:
REMARK  status: ('A' for Active; 'I' for Inactive)
REMARK    1  A    between atoms: O_1  and  C_2 
REMARK    2  A    between atoms: C_2  and  C_3 
REMARK    3  A    between atoms: C_2  and  C_11 
REMARK    4  A    between atoms: C_3  and  O_4 
REMARK    5  A    between atoms: O_4  and  C_5 
REMARK    6  A    between atoms: C_11  and  N_12 
ROOT
HETATM    1  N   UNL     1     -40.388 -50.279  12.406  1.00  0.00    -0.271 N 
HETATM    2  N   UNL     1     -40.698 -50.145  11.100  1.00  0.00    -0.019 NA
HETATM    3  N   UNL     1     -40.520 -48.871  10.774  1.00  0.00    -0.282 N 
ATOM      4  HN  UNL     1     -40.675 -48.462   9.852  1.00  0.00     0.184 HD
HETATM    5  C   UNL     1     -40.094 -48.200  11.888  1.00  0.00     0.075 A 
HETATM    6  C   UNL     1     -39.775 -46.849  12.078  1.00  0.00     0.058 A 
HETATM    7  C   UNL     1     -39.348 -46.434  13.349  1.00  0.00     0.058 A 
HETATM    8 CL   UNL     1     -38.961 -44.759  13.542  1.00  0.00    -0.082 Cl
HETATM    9  C   UNL     1     -39.244 -47.350  14.408  1.00  0.00     0.058 A 
HETATM   10 CL   UNL     1     -38.712 -46.874  15.986  1.00  0.00    -0.082 Cl
HETATM   11  C   UNL     1     -39.567 -48.701  14.229  1.00  0.00     0.058 A 
HETATM   12  C   UNL     1     -39.992 -49.085  12.952  1.00  0.00     0.078 A 
ENDROOT
BRANCH   1  13
HETATM   13  C   UNL     1     -40.594 -51.546  13.076  1.00  0.00     0.180 C 
BRANCH  13  14
HETATM   14  C   UNL     1     -41.465 -52.512  12.266  1.00  0.00     0.161 C 
BRANCH  14  15
HETATM   15  O   UNL     1     -40.643 -53.325  11.420  1.00  0.00    -0.392 OA
HETATM   16  H   UNL     1     -41.222 -53.733  10.750  1.00  0.00     0.210 HD
ENDBRANCH  14  15
BRANCH  14  17
HETATM   17  C   UNL     1     -42.245 -53.445  13.204  1.00  0.00     0.201 C 
BRANCH  17  18
HETATM   18  O   UNL     1     -43.551 -52.934  13.432  1.00  0.00    -0.383 OA
BRANCH  18  19
HETATM   19  C   UNL     1     -44.605 -53.654  12.776  1.00  0.00     0.125 C 
HETATM   20  C   UNL     1     -45.734 -52.651  12.526  1.00  0.00     0.058 C 
HETATM   21  C   UNL     1     -46.366 -52.222  13.846  1.00  0.00     0.170 C 
HETATM   22  O   UNL     1     -46.830 -53.355  14.583  1.00  0.00    -0.391 OA
HETATM   23  C   UNL     1     -45.775 -54.261  14.901  1.00  0.00     0.170 C 
HETATM   24  C   UNL     1     -45.152 -54.806  13.623  1.00  0.00     0.058 C 
ENDBRANCH  18  19
ENDBRANCH  17  18
ENDBRANCH  14  17
ENDBRANCH  13  14
ENDBRANCH   1  13
TORSDOF 6
ENDMDL
MODEL 6
REMARK VINA RESULT:      -5.4      3.333      4.223
REMARK  6 active torsions:
REMARK  status: ('A' for Active; 'I' for Inactive)
REMARK    1  A    between atoms: O_1  and  C_2 
REMARK    2  A    between atoms: C_2  and  C_3 
REMARK    3  A    between atoms: C_2  and  C_11 
REMARK    4  A    between atoms: C_3  and  O_4 
REMARK    5  A    between atoms: O_4  and  C_5 
REMARK    6  A    between atoms: C_11  and  N_12 
ROOT
HETATM    1  N   UNL     1     -39.369 -52.063  13.552  1.00  0.00    -0.271 N 
HETATM    2  N   UNL     1     -38.730 -53.250  13.541  1.00  0.00    -0.019 NA
HETATM    3  N   UNL     1     -39.651 -54.201  13.441  1.00  0.00    -0.282 N 
ATOM      4  HN  UNL     1     -39.473 -55.205  13.409  1.00  0.00     0.184 HD
HETATM    5  C   UNL     1     -40.880 -53.602  13.389  1.00  0.00     0.075 A 
HETATM    6  C   UNL     1     -42.164 -54.153  13.292  1.00  0.00     0.058 A 
HETATM    7  C   UNL     1     -43.265 -53.283  13.249  1.00  0.00     0.058 A 
HETATM    8 CL   UNL     1     -44.834 -54.002  13.125  1.00  0.00    -0.082 Cl
HETATM    9  C   UNL     1     -43.085 -51.892  13.303  1.00  0.00     0.058 A 
HETATM   10 CL   UNL     1     -44.419 -50.789  13.242  1.00  0.00    -0.082 Cl
HETATM   11  C   UNL     1     -41.805 -51.332  13.407  1.00  0.00     0.058 A 
HETATM   12  C   UNL     1     -40.727 -52.224  13.450  1.00  0.00     0.078 A 
ENDROOT
BRANCH   1  13
HETATM   13  C   UNL     1     -38.626 -50.839  13.765  1.00  0.00     0.180 C 
BRANCH  13  14
HETATM   14  C   UNL     1     -37.971 -50.312  12.484  1.00  0.00     0.161 C 
BRANCH  14  15
HETATM   15  O   UNL     1     -37.615 -51.405  11.628  1.00  0.00    -0.392 OA
HETATM   16  H   UNL     1     -38.123 -52.184  11.919  1.00  0.00     0.210 HD
ENDBRANCH  14  15
BRANCH  14  17
HETATM   17  C   UNL     1     -38.945 -49.408  11.715  1.00  0.00     0.201 C 
BRANCH  17  18
HETATM   18  O   UNL     1     -39.391 -48.346  12.547  1.00  0.00    -0.383 OA
BRANCH  18  19
HETATM   19  C   UNL     1     -40.753 -47.945  12.338  1.00  0.00     0.125 C 
HETATM   20  C   UNL     1     -40.794 -47.209  10.997  1.00  0.00     0.058 C 
HETATM   21  C   UNL     1     -40.046 -45.883  11.094  1.00  0.00     0.170 C 
HETATM   22  O   UNL     1     -40.574 -45.075  12.149  1.00  0.00    -0.391 OA
HETATM   23  C   UNL     1     -40.466 -45.710  13.421  1.00  0.00     0.170 C 
HETATM   24  C   UNL     1     -41.269 -47.003  13.430  1.00  0.00     0.058 C 
ENDBRANCH  18  19
ENDBRANCH  17  18
ENDBRANCH  14  17
ENDBRANCH  13  14
ENDBRANCH   1  13
TORSDOF 6
ENDMDL
MODEL 7
REMARK VINA RESULT:      -5.4      4.765      7.091
REMARK  6 active torsions:
REMARK  status: ('A' for Active; 'I' for Inactive)
REMARK    1  A    between atoms: O_1  and  C_2 
REMARK    2  A    between atoms: C_2  and  C_3 
REMARK    3  A    between atoms: C_2  and  C_11 
REMARK    4  A    between atoms: C_3  and  O_4 
REMARK    5  A    between atoms: O_4  and  C_5 
REMARK    6  A    between atoms: C_11  and  N_12 
ROOT
HETATM    1  N   UNL     1     -39.744 -51.721  12.950  1.00  0.00    -0.271 N 
HETATM    2  N   UNL     1     -40.520 -52.173  11.944  1.00  0.00    -0.019 NA
HETATM    3  N   UNL     1     -40.897 -51.122  11.225  1.00  0.00    -0.282 N 
ATOM      4  HN  UNL     1     -41.492 -51.146  10.396  1.00  0.00     0.184 HD
HETATM    5  C   UNL     1     -40.350 -50.001  11.787  1.00  0.00     0.075 A 
HETATM    6  C   UNL     1     -40.447 -48.652  11.421  1.00  0.00     0.058 A 
HETATM    7  C   UNL     1     -39.761 -47.699  12.190  1.00  0.00     0.058 A 
HETATM    8 CL   UNL     1     -39.902 -46.044  11.703  1.00  0.00    -0.082 Cl
HETATM    9  C   UNL     1     -38.995 -48.086  13.302  1.00  0.00     0.058 A 
HETATM   10 CL   UNL     1     -38.129 -46.938  14.266  1.00  0.00    -0.082 Cl
HETATM   11  C   UNL     1     -38.899 -49.431  13.680  1.00  0.00     0.058 A 
HETATM   12  C   UNL     1     -39.595 -50.359  12.896  1.00  0.00     0.078 A 
ENDROOT
BRANCH   1  13
HETATM   13  C   UNL     1     -39.273 -52.633  13.971  1.00  0.00     0.180 C 
BRANCH  13  14
HETATM   14  C   UNL     1     -39.756 -54.071  13.752  1.00  0.00     0.161 C 
BRANCH  14  15
HETATM   15  O   UNL     1     -38.634 -54.941  13.553  1.00  0.00    -0.392 OA
HETATM   16  H   UNL     1     -38.042 -54.516  12.907  1.00  0.00     0.210 HD
ENDBRANCH  14  15
BRANCH  14  17
HETATM   17  C   UNL     1     -40.528 -54.570  14.981  1.00  0.00     0.201 C 
BRANCH  17  18
HETATM   18  O   UNL     1     -41.723 -53.820  15.150  1.00  0.00    -0.383 OA
BRANCH  18  19
HETATM   19  C   UNL     1     -42.929 -54.518  14.807  1.00  0.00     0.125 C 
HETATM   20  C   UNL     1     -43.347 -54.021  13.421  1.00  0.00     0.058 C 
HETATM   21  C   UNL     1     -43.790 -52.563  13.490  1.00  0.00     0.170 C 
HETATM   22  O   UNL     1     -44.841 -52.392  14.443  1.00  0.00    -0.391 OA
HETATM   23  C   UNL     1     -44.442 -52.770  15.760  1.00  0.00     0.170 C 
HETATM   24  C   UNL     1     -44.071 -54.246  15.790  1.00  0.00     0.058 C 
ENDBRANCH  18  19
ENDBRANCH  17  18
ENDBRANCH  14  17
ENDBRANCH  13  14
ENDBRANCH   1  13
TORSDOF 6
ENDMDL
MODEL 8
REMARK VINA RESULT:      -5.3      4.762      7.531
REMARK  6 active torsions:
REMARK  status: ('A' for Active; 'I' for Inactive)
REMARK    1  A    between atoms: O_1  and  C_2 
REMARK    2  A    between atoms: C_2  and  C_3 
REMARK    3  A    between atoms: C_2  and  C_11 
REMARK    4  A    between atoms: C_3  and  O_4 
REMARK    5  A    between atoms: O_4  and  C_5 
REMARK    6  A    between atoms: C_11  and  N_12 
ROOT
HETATM    1  N   UNL     1     -41.946 -48.120  11.882  1.00  0.00    -0.271 N 
HETATM    2  N   UNL     1     -43.132 -48.180  11.243  1.00  0.00    -0.019 NA
HETATM    3  N   UNL     1     -43.435 -46.950  10.842  1.00  0.00    -0.282 N 
ATOM      4  HN  UNL     1     -44.274 -46.678  10.330  1.00  0.00     0.184 HD
HETATM    5  C   UNL     1     -42.427 -46.113  11.234  1.00  0.00     0.075 A 
HETATM    6  C   UNL     1     -42.267 -44.731  11.067  1.00  0.00     0.058 A 
HETATM    7  C   UNL     1     -41.107 -44.125  11.574  1.00  0.00     0.058 A 
HETATM    8 CL   UNL     1     -40.945 -42.418  11.345  1.00  0.00    -0.082 Cl
HETATM    9  C   UNL     1     -40.128 -44.884  12.235  1.00  0.00     0.058 A 
HETATM   10 CL   UNL     1     -38.681 -44.171  12.864  1.00  0.00    -0.082 Cl
HETATM   11  C   UNL     1     -40.283 -46.265  12.413  1.00  0.00     0.058 A 
HETATM   12  C   UNL     1     -41.450 -46.841  11.899  1.00  0.00     0.078 A 
ENDROOT
BRANCH   1  13
HETATM   13  C   UNL     1     -41.409 -49.297  12.531  1.00  0.00     0.180 C 
BRANCH  13  14
HETATM   14  C   UNL     1     -41.237 -50.479  11.570  1.00  0.00     0.161 C 
BRANCH  14  15
HETATM   15  O   UNL     1     -40.529 -50.059  10.396  1.00  0.00    -0.392 OA
HETATM   16  H   UNL     1     -39.722 -50.600  10.330  1.00  0.00     0.210 HD
ENDBRANCH  14  15
BRANCH  14  17
HETATM   17  C   UNL     1     -40.423 -51.597  12.236  1.00  0.00     0.201 C 
BRANCH  17  18
HETATM   18  O   UNL     1     -39.888 -51.146  13.473  1.00  0.00    -0.383 OA
BRANCH  18  19
HETATM   19  C   UNL     1     -38.478 -51.362  13.635  1.00  0.00     0.125 C 
HETATM   20  C   UNL     1     -38.105 -50.810  15.014  1.00  0.00     0.058 C 
HETATM   21  C   UNL     1     -38.235 -49.290  15.031  1.00  0.00     0.170 C 
HETATM   22  O   UNL     1     -37.442 -48.698  14.000  1.00  0.00    -0.391 OA
HETATM   23  C   UNL     1     -37.832 -49.135  12.700  1.00  0.00     0.170 C 
HETATM   24  C   UNL     1     -37.641 -50.640  12.576  1.00  0.00     0.058 C 
ENDBRANCH  18  19
ENDBRANCH  17  18
ENDBRANCH  14  17
ENDBRANCH  13  14
ENDBRANCH   1  13
TORSDOF 6
ENDMDL
MODEL 9
REMARK VINA RESULT:      -5.2      4.891      6.486
REMARK  6 active torsions:
REMARK  status: ('A' for Active; 'I' for Inactive)
REMARK    1  A    between atoms: O_1  and  C_2 
REMARK    2  A    between atoms: C_2  and  C_3 
REMARK    3  A    between atoms: C_2  and  C_11 
REMARK    4  A    between atoms: C_3  and  O_4 
REMARK    5  A    between atoms: O_4  and  C_5 
REMARK    6  A    between atoms: C_11  and  N_12 
ROOT
HETATM    1  N   UNL     1     -38.984 -51.746  13.636  1.00  0.00    -0.271 N 
HETATM    2  N   UNL     1     -37.894 -51.820  12.845  1.00  0.00    -0.019 NA
HETATM    3  N   UNL     1     -37.382 -50.599  12.751  1.00  0.00    -0.282 N 
ATOM      4  HN  UNL     1     -36.552 -50.337  12.218  1.00  0.00     0.184 HD
HETATM    5  C   UNL     1     -38.160 -49.751  13.492  1.00  0.00     0.075 A 
HETATM    6  C   UNL     1     -38.057 -48.372  13.713  1.00  0.00     0.058 A 
HETATM    7  C   UNL     1     -39.008 -47.754  14.540  1.00  0.00     0.058 A 
HETATM    8 CL   UNL     1     -38.844 -46.049  14.792  1.00  0.00    -0.082 Cl
HETATM    9  C   UNL     1     -40.040 -48.498  15.133  1.00  0.00     0.058 A 
HETATM   10 CL   UNL     1     -41.224 -47.770  16.166  1.00  0.00    -0.082 Cl
HETATM   11  C   UNL     1     -40.155 -49.877  14.911  1.00  0.00     0.058 A 
HETATM   12  C   UNL     1     -39.194 -50.466  14.080  1.00  0.00     0.078 A 
ENDROOT
BRANCH   1  13
HETATM   13  C   UNL     1     -39.820 -52.911  13.834  1.00  0.00     0.180 C 
BRANCH  13  14
HETATM   14  C   UNL     1     -41.008 -52.960  12.867  1.00  0.00     0.161 C 
BRANCH  14  15
HETATM   15  O   UNL     1     -40.546 -53.201  11.532  1.00  0.00    -0.392 OA
HETATM   16  H   UNL     1     -40.723 -52.398  11.010  1.00  0.00     0.210 HD
ENDBRANCH  14  15
BRANCH  14  17
HETATM   17  C   UNL     1     -41.962 -54.101  13.249  1.00  0.00     0.201 C 
BRANCH  17  18
HETATM   18  O   UNL     1     -43.312 -53.694  13.068  1.00  0.00    -0.383 OA
BRANCH  18  19
HETATM   19  C   UNL     1     -43.760 -52.672  13.971  1.00  0.00     0.125 C 
HETATM   20  C   UNL     1     -44.572 -53.375  15.062  1.00  0.00     0.058 C 
HETATM   21  C   UNL     1     -45.870 -53.932  14.484  1.00  0.00     0.170 C 
HETATM   22  O   UNL     1     -46.631 -52.901  13.851  1.00  0.00    -0.391 OA
HETATM   23  C   UNL     1     -45.922 -52.291  12.773  1.00  0.00     0.170 C 
HETATM   24  C   UNL     1     -44.653 -51.630  13.292  1.00  0.00     0.058 C 
ENDBRANCH  18  19
ENDBRANCH  17  18
ENDBRANCH  14  17
ENDBRANCH  13  14
ENDBRANCH   1  13
TORSDOF 6
ENDMDL
