MODEL 1
REMARK VINA RESULT:      -6.6      0.000      0.000
REMARK  6 active torsions:
REMARK  status: ('A' for Active; 'I' for Inactive)
REMARK    1  A    between atoms: C_2  and  N_3 
REMARK    2  A    between atoms: C_2  and  C_21 
REMARK       I    between atoms: N_3  and  C_4 
REMARK    3  A    between atoms: C_4  and  C_6 
REMARK    4  A    between atoms: C_6  and  N_7 
REMARK    5  A    between atoms: C_14  and  C_15 
REMARK    6  A    between atoms: C_15  and  N_16 
ROOT
HETATM    1  N   UNL     1     -42.168 -50.051  12.197  1.00  0.00    -0.247 N 
HETATM    2  N   UNL     1     -43.467 -50.133  12.630  1.00  0.00    -0.299 N 
ATOM      3  HN  UNL     1     -44.096 -49.336  12.534  1.00  0.00     0.187 HD
HETATM    4  C   UNL     1     -43.881 -51.237  13.162  1.00  0.00     0.029 A 
HETATM    5  C   UNL     1     -45.328 -51.281  13.599  1.00  0.00     0.070 C 
HETATM    6  C   UNL     1     -43.031 -52.437  13.365  1.00  0.00    -0.013 A 
HETATM    7  C   UNL     1     -43.570 -53.675  14.023  1.00  0.00     0.052 C 
HETATM    8  C   UNL     1     -41.765 -52.327  12.920  1.00  0.00     0.103 A 
HETATM    9  C   UNL     1     -41.265 -51.102  12.261  1.00  0.00     0.282 A 
HETATM   10  O   UNL     1     -40.133 -51.049  11.789  1.00  0.00    -0.265 OA
ENDROOT
BRANCH   1  11
HETATM   11  C   UNL     1     -41.755 -48.754  11.664  1.00  0.00     0.255 C 
BRANCH  11  12
HETATM   12  C   UNL     1     -42.912 -47.968  11.052  1.00  0.00     0.237 C 
HETATM   13  N   UNL     1     -43.116 -48.185   9.707  1.00  0.00    -0.355 N 
HETATM   14  H   UNL     1     -42.506 -48.832   9.213  1.00  0.00     0.162 HD
HETATM   15  O   UNL     1     -43.531 -47.120  11.692  1.00  0.00    -0.272 OA
BRANCH  13  16
HETATM   16  C   UNL     1     -44.090 -47.427   8.945  1.00  0.00     0.084 C 
HETATM   17  C   UNL     1     -43.737 -45.943   8.948  1.00  0.00     0.032 C 
BRANCH  16  18
HETATM   18  C   UNL     1     -45.451 -47.675   9.542  1.00  0.00     0.008 A 
HETATM   19  C   UNL     1     -46.514 -48.362   8.715  1.00  0.00     0.007 A 
HETATM   20  C   UNL     1     -46.659 -46.907   9.060  1.00  0.00     0.007 A 
ENDBRANCH  16  18
ENDBRANCH  13  16
ENDBRANCH  11  12
ENDBRANCH   1  11
BRANCH   8  21
HETATM   21  C   UNL     1     -40.831 -53.516  13.072  1.00  0.00    -0.031 C 
BRANCH  21  22
HETATM   22  N   UNL     1     -40.055 -54.503  13.197  1.00  0.00    -0.365 N 
ATOM     23  HN2 UNL     1     -40.704 -53.727  13.065  1.00  0.00     0.165 HD
ATOM     24  HN1 UNL     1     -39.427 -55.300  13.298  1.00  0.00     0.165 HD
ENDBRANCH  21  22
ENDBRANCH   8  21
TORSDOF 6
ENDMDL
MODEL 2
REMARK VINA RESULT:      -6.3      1.849      2.535
REMARK  6 active torsions:
REMARK  status: ('A' for Active; 'I' for Inactive)
REMARK    1  A    between atoms: C_2  and  N_3 
REMARK    2  A    between atoms: C_2  and  C_21 
REMARK       I    between atoms: N_3  and  C_4 
REMARK    3  A    between atoms: C_4  and  C_6 
REMARK    4  A    between atoms: C_6  and  N_7 
REMARK    5  A    between atoms: C_14  and  C_15 
REMARK    6  A    between atoms: C_15  and  N_16 
ROOT
HETATM    1  N   UNL     1     -41.110 -51.472  12.163  1.00  0.00    -0.247 N 
HETATM    2  N   UNL     1     -42.434 -51.815  12.046  1.00  0.00    -0.299 N 
ATOM      3  HN  UNL     1     -43.060 -51.268  11.456  1.00  0.00     0.187 HD
HETATM    4  C   UNL     1     -42.874 -52.843  12.696  1.00  0.00     0.029 A 
HETATM    5  C   UNL     1     -44.334 -53.191  12.511  1.00  0.00     0.070 C 
HETATM    6  C   UNL     1     -42.042 -53.680  13.597  1.00  0.00    -0.013 A 
HETATM    7  C   UNL     1     -42.630 -54.841  14.348  1.00  0.00     0.052 C 
HETATM    8  C   UNL     1     -40.747 -53.324  13.682  1.00  0.00     0.103 A 
HETATM    9  C   UNL     1     -40.192 -52.187  12.917  1.00  0.00     0.282 A 
HETATM   10  O   UNL     1     -38.992 -51.926  12.944  1.00  0.00    -0.265 OA
ENDROOT
BRANCH   1  11
HETATM   11  C   UNL     1     -40.700 -50.264  11.450  1.00  0.00     0.255 C 
BRANCH  11  12
HETATM   12  C   UNL     1     -41.781 -49.185  11.439  1.00  0.00     0.237 C 
HETATM   13  N   UNL     1     -41.974 -48.567  10.223  1.00  0.00    -0.355 N 
HETATM   14  H   UNL     1     -41.405 -48.851   9.429  1.00  0.00     0.162 HD
HETATM   15  O   UNL     1     -42.346 -48.822  12.469  1.00  0.00    -0.272 OA
BRANCH  13  16
HETATM   16  C   UNL     1     -42.870 -47.437  10.068  1.00  0.00     0.084 C 
HETATM   17  C   UNL     1     -43.501 -47.437   8.679  1.00  0.00     0.032 C 
BRANCH  16  18
HETATM   18  C   UNL     1     -42.084 -46.176  10.320  1.00  0.00     0.008 A 
HETATM   19  C   UNL     1     -42.250 -45.442  11.631  1.00  0.00     0.007 A 
HETATM   20  C   UNL     1     -42.770 -44.831  10.361  1.00  0.00     0.007 A 
ENDBRANCH  16  18
ENDBRANCH  13  16
ENDBRANCH  11  12
ENDBRANCH   1  11
BRANCH   8  21
HETATM   21  C   UNL     1     -39.820 -54.139  14.568  1.00  0.00    -0.031 C 
BRANCH  21  22
HETATM   22  N   UNL     1     -39.051 -54.815  15.304  1.00  0.00    -0.365 N 
ATOM     23  HN2 UNL     1     -39.682 -54.305  14.686  1.00  0.00     0.165 HD
ATOM     24  HN1 UNL     1     -38.428 -55.361  15.899  1.00  0.00     0.165 HD
ENDBRANCH  21  22
ENDBRANCH   8  21
TORSDOF 6
ENDMDL
MODEL 3
REMARK VINA RESULT:      -6.2      2.438      4.378
REMARK  6 active torsions:
REMARK  status: ('A' for Active; 'I' for Inactive)
REMARK    1  A    between atoms: C_2  and  N_3 
REMARK    2  A    between atoms: C_2  and  C_21 
REMARK       I    between atoms: N_3  and  C_4 
REMARK    3  A    between atoms: C_4  and  C_6 
REMARK    4  A    between atoms: C_6  and  N_7 
REMARK    5  A    between atoms: C_14  and  C_15 
REMARK    6  A    between atoms: C_15  and  N_16 
ROOT
HETATM    1  N   UNL     1     -41.678 -52.855  12.901  1.00  0.00    -0.247 N 
HETATM    2  N   UNL     1     -40.772 -53.223  13.864  1.00  0.00    -0.299 N 
ATOM      3  HN  UNL     1     -39.829 -52.837  13.862  1.00  0.00     0.187 HD
HETATM    4  C   UNL     1     -41.135 -54.068  14.774  1.00  0.00     0.029 A 
HETATM    5  C   UNL     1     -40.106 -54.420  15.825  1.00  0.00     0.070 C 
HETATM    6  C   UNL     1     -42.476 -54.700  14.840  1.00  0.00    -0.013 A 
HETATM    7  C   UNL     1     -42.817 -55.701  15.907  1.00  0.00     0.052 C 
HETATM    8  C   UNL     1     -43.344 -54.310  13.888  1.00  0.00     0.103 A 
HETATM    9  C   UNL     1     -42.987 -53.309  12.859  1.00  0.00     0.282 A 
HETATM   10  O   UNL     1     -43.816 -52.906  12.048  1.00  0.00    -0.265 OA
ENDROOT
BRANCH   1  11
HETATM   11  C   UNL     1     -41.178 -51.946  11.871  1.00  0.00     0.255 C 
BRANCH  11  12
HETATM   12  C   UNL     1     -41.451 -50.478  12.193  1.00  0.00     0.237 C 
HETATM   13  N   UNL     1     -41.596 -49.659  11.094  1.00  0.00    -0.355 N 
HETATM   14  H   UNL     1     -41.515 -50.062  10.164  1.00  0.00     0.162 HD
HETATM   15  O   UNL     1     -41.422 -50.050  13.345  1.00  0.00    -0.272 OA
BRANCH  13  16
HETATM   16  C   UNL     1     -41.734 -48.221  11.221  1.00  0.00     0.084 C 
HETATM   17  C   UNL     1     -42.612 -47.665  10.104  1.00  0.00     0.032 C 
BRANCH  16  18
HETATM   18  C   UNL     1     -40.355 -47.613  11.196  1.00  0.00     0.008 A 
HETATM   19  C   UNL     1     -39.899 -46.752  12.352  1.00  0.00     0.007 A 
HETATM   20  C   UNL     1     -40.167 -46.125  11.013  1.00  0.00     0.007 A 
ENDBRANCH  16  18
ENDBRANCH  13  16
ENDBRANCH  11  12
ENDBRANCH   1  11
BRANCH   8  21
HETATM   21  C   UNL     1     -44.747 -54.894  13.893  1.00  0.00    -0.031 C 
BRANCH  21  22
HETATM   22  N   UNL     1     -45.911 -55.380  13.897  1.00  0.00    -0.365 N 
ATOM     23  HN2 UNL     1     -44.955 -55.024  13.877  1.00  0.00     0.165 HD
ATOM     24  HN1 UNL     1     -46.852 -55.772  13.900  1.00  0.00     0.165 HD
ENDBRANCH  21  22
ENDBRANCH   8  21
TORSDOF 6
ENDMDL
MODEL 4
REMARK VINA RESULT:      -6.1      2.292      5.892
REMARK  6 active torsions:
REMARK  status: ('A' for Active; 'I' for Inactive)
REMARK    1  A    between atoms: C_2  and  N_3 
REMARK    2  A    between atoms: C_2  and  C_21 
REMARK       I    between atoms: N_3  and  C_4 
REMARK    3  A    between atoms: C_4  and  C_6 
REMARK    4  A    between atoms: C_6  and  N_7 
REMARK    5  A    between atoms: C_14  and  C_15 
REMARK    6  A    between atoms: C_15  and  N_16 
ROOT
HETATM    1  N   UNL     1     -40.934 -49.329  11.613  1.00  0.00    -0.247 N 
HETATM    2  N   UNL     1     -41.863 -48.993  10.661  1.00  0.00    -0.299 N 
ATOM      3  HN  UNL     1     -42.389 -49.718  10.173  1.00  0.00     0.187 HD
HETATM    4  C   UNL     1     -42.060 -47.744  10.391  1.00  0.00     0.029 A 
HETATM    5  C   UNL     1     -43.113 -47.430   9.351  1.00  0.00     0.070 C 
HETATM    6  C   UNL     1     -41.324 -46.625  11.031  1.00  0.00    -0.013 A 
HETATM    7  C   UNL     1     -41.581 -45.197  10.643  1.00  0.00     0.052 C 
HETATM    8  C   UNL     1     -40.428 -46.987  11.968  1.00  0.00     0.103 A 
HETATM    9  C   UNL     1     -40.207 -48.400  12.342  1.00  0.00     0.282 A 
HETATM   10  O   UNL     1     -39.444 -48.705  13.255  1.00  0.00    -0.265 OA
ENDROOT
BRANCH   1  11
HETATM   11  C   UNL     1     -40.721 -50.760  11.820  1.00  0.00     0.255 C 
BRANCH  11  12
HETATM   12  C   UNL     1     -41.682 -51.361  12.842  1.00  0.00     0.237 C 
HETATM   13  N   UNL     1     -42.830 -51.909  12.312  1.00  0.00    -0.355 N 
HETATM   14  H   UNL     1     -42.970 -51.883  11.305  1.00  0.00     0.162 HD
HETATM   15  O   UNL     1     -41.493 -51.253  14.053  1.00  0.00    -0.272 OA
BRANCH  13  16
HETATM   16  C   UNL     1     -43.903 -52.408  13.150  1.00  0.00     0.084 C 
HETATM   17  C   UNL     1     -44.446 -53.725  12.602  1.00  0.00     0.032 C 
BRANCH  16  18
HETATM   18  C   UNL     1     -44.976 -51.351  13.218  1.00  0.00     0.008 A 
HETATM   19  C   UNL     1     -45.824 -51.230  14.463  1.00  0.00     0.007 A 
HETATM   20  C   UNL     1     -46.438 -51.729  13.186  1.00  0.00     0.007 A 
ENDBRANCH  16  18
ENDBRANCH  13  16
ENDBRANCH  11  12
ENDBRANCH   1  11
BRANCH   8  21
HETATM   21  C   UNL     1     -39.642 -45.902  12.687  1.00  0.00    -0.031 C 
BRANCH  21  22
HETATM   22  N   UNL     1     -38.990 -45.003  13.284  1.00  0.00    -0.365 N 
ATOM     23  HN2 UNL     1     -39.554 -45.711  12.813  1.00  0.00     0.165 HD
ATOM     24  HN1 UNL     1     -38.462 -44.276  13.766  1.00  0.00     0.165 HD
ENDBRANCH  21  22
ENDBRANCH   8  21
TORSDOF 6
ENDMDL
MODEL 5
REMARK VINA RESULT:      -6.1      2.792      5.742
REMARK  6 active torsions:
REMARK  status: ('A' for Active; 'I' for Inactive)
REMARK    1  A    between atoms: C_2  and  N_3 
REMARK    2  A    between atoms: C_2  and  C_21 
REMARK       I    between atoms: N_3  and  C_4 
REMARK    3  A    between atoms: C_4  and  C_6 
REMARK    4  A    between atoms: C_6  and  N_7 
REMARK    5  A    between atoms: C_14  and  C_15 
REMARK    6  A    between atoms: C_15  and  N_16 
ROOT
HETATM    1  N   UNL     1     -41.974 -51.399  12.185  1.00  0.00    -0.247 N 
HETATM    2  N   UNL     1     -42.766 -50.284  12.074  1.00  0.00    -0.299 N 
ATOM      3  HN  UNL     1     -43.780 -50.358  12.160  1.00  0.00     0.187 HD
HETATM    4  C   UNL     1     -42.208 -49.137  11.860  1.00  0.00     0.029 A 
HETATM    5  C   UNL     1     -43.126 -47.939  11.771  1.00  0.00     0.070 C 
HETATM    6  C   UNL     1     -40.746 -48.938  11.697  1.00  0.00    -0.013 A 
HETATM    7  C   UNL     1     -40.168 -47.581  11.415  1.00  0.00     0.052 C 
HETATM    8  C   UNL     1     -39.996 -50.049  11.822  1.00  0.00     0.103 A 
HETATM    9  C   UNL     1     -40.590 -51.371  12.117  1.00  0.00     0.282 A 
HETATM   10  O   UNL     1     -39.884 -52.358  12.307  1.00  0.00    -0.265 OA
ENDROOT
BRANCH   1  11
HETATM   11  C   UNL     1     -42.680 -52.666  12.366  1.00  0.00     0.255 C 
BRANCH  11  12
HETATM   12  C   UNL     1     -43.353 -52.782  13.731  1.00  0.00     0.237 C 
HETATM   13  N   UNL     1     -44.708 -53.027  13.694  1.00  0.00    -0.355 N 
HETATM   14  H   UNL     1     -45.170 -53.113  12.791  1.00  0.00     0.162 HD
HETATM   15  O   UNL     1     -42.745 -52.553  14.776  1.00  0.00    -0.272 OA
BRANCH  13  16
HETATM   16  C   UNL     1     -45.521 -53.040  14.895  1.00  0.00     0.084 C 
HETATM   17  C   UNL     1     -46.528 -54.185  14.850  1.00  0.00     0.032 C 
BRANCH  16  18
HETATM   18  C   UNL     1     -46.206 -51.703  15.013  1.00  0.00     0.008 A 
HETATM   19  C   UNL     1     -45.973 -50.852  16.240  1.00  0.00     0.007 A 
HETATM   20  C   UNL     1     -47.315 -51.487  16.015  1.00  0.00     0.007 A 
ENDBRANCH  16  18
ENDBRANCH  13  16
ENDBRANCH  11  12
ENDBRANCH   1  11
BRANCH   8  21
HETATM   21  C   UNL     1     -38.486 -49.932  11.687  1.00  0.00    -0.031 C 
BRANCH  21  22
HETATM   22  N   UNL     1     -37.234 -49.836  11.576  1.00  0.00    -0.365 N 
ATOM     23  HN2 UNL     1     -38.250 -49.919  11.623  1.00  0.00     0.165 HD
ATOM     24  HN1 UNL     1     -36.221 -49.758  11.488  1.00  0.00     0.165 HD
ENDBRANCH  21  22
ENDBRANCH   8  21
TORSDOF 6
ENDMDL
MODEL 6
REMARK VINA RESULT:      -6.0      2.670      4.172
REMARK  6 active torsions:
REMARK  status: ('A' for Active; 'I' for Inactive)
REMARK    1  A    between atoms: C_2  and  N_3 
REMARK    2  A    between atoms: C_2  and  C_21 
REMARK       I    between atoms: N_3  and  C_4 
REMARK    3  A    between atoms: C_4  and  C_6 
REMARK    4  A    between atoms: C_6  and  N_7 
REMARK    5  A    between atoms: C_14  and  C_15 
REMARK    6  A    between atoms: C_15  and  N_16 
ROOT
HETATM    1  N   UNL     1     -41.298 -53.275  12.942  1.00  0.00    -0.247 N 
HETATM    2  N   UNL     1     -42.596 -53.646  13.189  1.00  0.00    -0.299 N 
ATOM      3  HN  UNL     1     -43.350 -53.327  12.580  1.00  0.00     0.187 HD
HETATM    4  C   UNL     1     -42.849 -54.407  14.204  1.00  0.00     0.029 A 
HETATM    5  C   UNL     1     -44.293 -54.804  14.414  1.00  0.00     0.070 C 
HETATM    6  C   UNL     1     -41.820 -54.897  15.156  1.00  0.00    -0.013 A 
HETATM    7  C   UNL     1     -42.191 -55.750  16.336  1.00  0.00     0.052 C 
HETATM    8  C   UNL     1     -40.556 -54.525  14.880  1.00  0.00     0.103 A 
HETATM    9  C   UNL     1     -40.218 -53.698  13.702  1.00  0.00     0.282 A 
HETATM   10  O   UNL     1     -39.052 -53.436  13.422  1.00  0.00    -0.265 OA
ENDROOT
BRANCH   1  11
HETATM   11  C   UNL     1     -41.099 -52.366  11.815  1.00  0.00     0.255 C 
BRANCH  11  12
HETATM   12  C   UNL     1     -41.561 -50.942  12.113  1.00  0.00     0.237 C 
HETATM   13  N   UNL     1     -41.176 -49.999  11.185  1.00  0.00    -0.355 N 
HETATM   14  H   UNL     1     -40.623 -50.292  10.383  1.00  0.00     0.162 HD
HETATM   15  O   UNL     1     -42.131 -50.650  13.163  1.00  0.00    -0.272 OA
BRANCH  13  16
HETATM   16  C   UNL     1     -41.422 -48.583  11.379  1.00  0.00     0.084 C 
HETATM   17  C   UNL     1     -42.215 -48.010  10.209  1.00  0.00     0.032 C 
BRANCH  16  18
HETATM   18  C   UNL     1     -40.093 -47.892  11.540  1.00  0.00     0.008 A 
HETATM   19  C   UNL     1     -39.866 -46.977  12.722  1.00  0.00     0.007 A 
HETATM   20  C   UNL     1     -39.966 -46.401  11.339  1.00  0.00     0.007 A 
ENDBRANCH  16  18
ENDBRANCH  13  16
ENDBRANCH  11  12
ENDBRANCH   1  11
BRANCH   8  21
HETATM   21  C   UNL     1     -39.438 -54.999  15.794  1.00  0.00    -0.031 C 
BRANCH  21  22
HETATM   22  N   UNL     1     -38.511 -55.393  16.552  1.00  0.00    -0.365 N 
ATOM     23  HN2 UNL     1     -39.281 -55.112  15.945  1.00  0.00     0.165 HD
ATOM     24  HN1 UNL     1     -37.760 -55.711  17.164  1.00  0.00     0.165 HD
ENDBRANCH  21  22
ENDBRANCH   8  21
TORSDOF 6
ENDMDL
MODEL 7
REMARK VINA RESULT:      -6.0      3.834      5.450
REMARK  6 active torsions:
REMARK  status: ('A' for Active; 'I' for Inactive)
REMARK    1  A    between atoms: C_2  and  N_3 
REMARK    2  A    between atoms: C_2  and  C_21 
REMARK       I    between atoms: N_3  and  C_4 
REMARK    3  A    between atoms: C_4  and  C_6 
REMARK    4  A    between atoms: C_6  and  N_7 
REMARK    5  A    between atoms: C_14  and  C_15 
REMARK    6  A    between atoms: C_15  and  N_16 
ROOT
HETATM    1  N   UNL     1     -42.482 -52.869  12.515  1.00  0.00    -0.247 N 
HETATM    2  N   UNL     1     -43.753 -52.356  12.460  1.00  0.00    -0.299 N 
ATOM      3  HN  UNL     1     -44.000 -51.658  11.758  1.00  0.00     0.187 HD
HETATM    4  C   UNL     1     -44.634 -52.772  13.311  1.00  0.00     0.029 A 
HETATM    5  C   UNL     1     -46.025 -52.192  13.189  1.00  0.00     0.070 C 
HETATM    6  C   UNL     1     -44.359 -53.764  14.381  1.00  0.00    -0.013 A 
HETATM    7  C   UNL     1     -45.422 -54.175  15.358  1.00  0.00     0.052 C 
HETATM    8  C   UNL     1     -43.105 -54.255  14.401  1.00  0.00     0.103 A 
HETATM    9  C   UNL     1     -42.082 -53.845  13.415  1.00  0.00     0.282 A 
HETATM   10  O   UNL     1     -40.969 -54.364  13.400  1.00  0.00    -0.265 OA
ENDROOT
BRANCH   1  11
HETATM   11  C   UNL     1     -41.527 -52.307  11.562  1.00  0.00     0.255 C 
BRANCH  11  12
HETATM   12  C   UNL     1     -40.780 -51.096  12.115  1.00  0.00     0.237 C 
HETATM   13  N   UNL     1     -39.413 -51.126  11.945  1.00  0.00    -0.355 N 
HETATM   14  H   UNL     1     -38.991 -51.926  11.479  1.00  0.00     0.162 HD
HETATM   15  O   UNL     1     -41.351 -50.222  12.766  1.00  0.00    -0.272 OA
BRANCH  13  16
HETATM   16  C   UNL     1     -38.543 -50.119  12.521  1.00  0.00     0.084 C 
HETATM   17  C   UNL     1     -37.461 -49.711  11.526  1.00  0.00     0.032 C 
BRANCH  16  18
HETATM   18  C   UNL     1     -37.950 -50.678  13.788  1.00  0.00     0.008 A 
HETATM   19  C   UNL     1     -38.543 -50.292  15.124  1.00  0.00     0.007 A 
HETATM   20  C   UNL     1     -37.179 -49.793  14.739  1.00  0.00     0.007 A 
ENDBRANCH  16  18
ENDBRANCH  13  16
ENDBRANCH  11  12
ENDBRANCH   1  11
BRANCH   8  21
HETATM   21  C   UNL     1     -42.743 -55.291  15.453  1.00  0.00    -0.031 C 
BRANCH  21  22
HETATM   22  N   UNL     1     -42.442 -56.150  16.325  1.00  0.00    -0.365 N 
ATOM     23  HN2 UNL     1     -42.670 -55.482  15.589  1.00  0.00     0.165 HD
ATOM     24  HN1 UNL     1     -42.198 -56.845  17.031  1.00  0.00     0.165 HD
ENDBRANCH  21  22
ENDBRANCH   8  21
TORSDOF 6
ENDMDL
MODEL 8
REMARK VINA RESULT:      -5.9      3.523      5.365
REMARK  6 active torsions:
REMARK  status: ('A' for Active; 'I' for Inactive)
REMARK    1  A    between atoms: C_2  and  N_3 
REMARK    2  A    between atoms: C_2  and  C_21 
REMARK       I    between atoms: N_3  and  C_4 
REMARK    3  A    between atoms: C_4  and  C_6 
REMARK    4  A    between atoms: C_6  and  N_7 
REMARK    5  A    between atoms: C_14  and  C_15 
REMARK    6  A    between atoms: C_15  and  N_16 
ROOT
HETATM    1  N   UNL     1     -43.180 -52.223  13.098  1.00  0.00    -0.247 N 
HETATM    2  N   UNL     1     -44.338 -52.076  12.378  1.00  0.00    -0.299 N 
ATOM      3  HN  UNL     1     -44.328 -52.146  11.361  1.00  0.00     0.187 HD
HETATM    4  C   UNL     1     -45.444 -51.848  13.010  1.00  0.00     0.029 A 
HETATM    5  C   UNL     1     -46.694 -51.719  12.169  1.00  0.00     0.070 C 
HETATM    6  C   UNL     1     -45.549 -51.706  14.484  1.00  0.00    -0.013 A 
HETATM    7  C   UNL     1     -46.863 -51.407  15.148  1.00  0.00     0.052 C 
HETATM    8  C   UNL     1     -44.397 -51.867  15.162  1.00  0.00     0.103 A 
HETATM    9  C   UNL     1     -43.121 -52.178  14.483  1.00  0.00     0.282 A 
HETATM   10  O   UNL     1     -42.097 -52.400  15.123  1.00  0.00    -0.265 OA
ENDROOT
BRANCH   1  11
HETATM   11  C   UNL     1     -41.962 -52.416  12.313  1.00  0.00     0.255 C 
BRANCH  11  12
HETATM   12  C   UNL     1     -41.212 -51.113  12.052  1.00  0.00     0.237 C 
HETATM   13  N   UNL     1     -39.841 -51.196  12.168  1.00  0.00    -0.355 N 
HETATM   14  H   UNL     1     -39.420 -52.089  12.414  1.00  0.00     0.162 HD
HETATM   15  O   UNL     1     -41.801 -50.049  11.870  1.00  0.00    -0.272 OA
BRANCH  13  16
HETATM   16  C   UNL     1     -38.989 -50.027  12.076  1.00  0.00     0.084 C 
HETATM   17  C   UNL     1     -37.634 -50.394  11.478  1.00  0.00     0.032 C 
BRANCH  16  18
HETATM   18  C   UNL     1     -38.845 -49.441  13.457  1.00  0.00     0.008 A 
HETATM   19  C   UNL     1     -39.204 -47.992  13.693  1.00  0.00     0.007 A 
HETATM   20  C   UNL     1     -37.768 -48.426  13.759  1.00  0.00     0.007 A 
ENDBRANCH  16  18
ENDBRANCH  13  16
ENDBRANCH  11  12
ENDBRANCH   1  11
BRANCH   8  21
HETATM   21  C   UNL     1     -44.419 -51.756  16.677  1.00  0.00    -0.031 C 
BRANCH  21  22
HETATM   22  N   UNL     1     -44.438 -51.663  17.935  1.00  0.00    -0.365 N 
ATOM     23  HN2 UNL     1     -44.464 -51.750  16.919  1.00  0.00     0.165 HD
ATOM     24  HN1 UNL     1     -44.452 -51.588  18.952  1.00  0.00     0.165 HD
ENDBRANCH  21  22
ENDBRANCH   8  21
TORSDOF 6
ENDMDL
MODEL 9
REMARK VINA RESULT:      -5.8      3.814      5.531
REMARK  6 active torsions:
REMARK  status: ('A' for Active; 'I' for Inactive)
REMARK    1  A    between atoms: C_2  and  N_3 
REMARK    2  A    between atoms: C_2  and  C_21 
REMARK       I    between atoms: N_3  and  C_4 
REMARK    3  A    between atoms: C_4  and  C_6 
REMARK    4  A    between atoms: C_6  and  N_7 
REMARK    5  A    between atoms: C_14  and  C_15 
REMARK    6  A    between atoms: C_15  and  N_16 
ROOT
HETATM    1  N   UNL     1     -42.947 -51.842  12.968  1.00  0.00    -0.247 N 
HETATM    2  N   UNL     1     -42.773 -50.762  13.796  1.00  0.00    -0.299 N 
ATOM      3  HN  UNL     1     -41.948 -50.169  13.707  1.00  0.00     0.187 HD
HETATM    4  C   UNL     1     -43.672 -50.508  14.690  1.00  0.00     0.029 A 
HETATM    5  C   UNL     1     -43.443 -49.291  15.560  1.00  0.00     0.070 C 
HETATM    6  C   UNL     1     -44.889 -51.329  14.908  1.00  0.00    -0.013 A 
HETATM    7  C   UNL     1     -45.875 -50.994  15.991  1.00  0.00     0.052 C 
HETATM    8  C   UNL     1     -45.036 -52.374  14.073  1.00  0.00     0.103 A 
HETATM    9  C   UNL     1     -44.058 -52.671  13.004  1.00  0.00     0.282 A 
HETATM   10  O   UNL     1     -44.249 -53.580  12.201  1.00  0.00    -0.265 OA
ENDROOT
BRANCH   1  11
HETATM   11  C   UNL     1     -41.861 -52.102  12.024  1.00  0.00     0.255 C 
BRANCH  11  12
HETATM   12  C   UNL     1     -40.950 -50.895  11.821  1.00  0.00     0.237 C 
HETATM   13  N   UNL     1     -39.633 -51.093  12.175  1.00  0.00    -0.355 N 
HETATM   14  H   UNL     1     -39.351 -51.999  12.541  1.00  0.00     0.162 HD
HETATM   15  O   UNL     1     -41.390 -49.798  11.480  1.00  0.00    -0.272 OA
BRANCH  13  16
HETATM   16  C   UNL     1     -38.663 -50.015  12.164  1.00  0.00     0.084 C 
HETATM   17  C   UNL     1     -37.349 -50.480  11.541  1.00  0.00     0.032 C 
BRANCH  16  18
HETATM   18  C   UNL     1     -38.468 -49.543  13.582  1.00  0.00     0.008 A 
HETATM   19  C   UNL     1     -39.105 -48.248  14.031  1.00  0.00     0.007 A 
HETATM   20  C   UNL     1     -37.612 -48.336  13.886  1.00  0.00     0.007 A 
ENDBRANCH  16  18
ENDBRANCH  13  16
ENDBRANCH  11  12
ENDBRANCH   1  11
BRANCH   8  21
HETATM   21  C   UNL     1     -46.264 -53.258  14.214  1.00  0.00    -0.031 C 
BRANCH  21  22
HETATM   22  N   UNL     1     -47.284 -53.990  14.331  1.00  0.00    -0.365 N 
ATOM     23  HN2 UNL     1     -46.474 -53.374  14.270  1.00  0.00     0.165 HD
ATOM     24  HN1 UNL     1     -48.109 -54.583  14.425  1.00  0.00     0.165 HD
ENDBRANCH  21  22
ENDBRANCH   8  21
TORSDOF 6
ENDMDL
