MODEL 1
REMARK VINA RESULT:      -6.0      0.000      0.000
REMARK  5 active torsions:
REMARK  status: ('A' for Active; 'I' for Inactive)
REMARK       I    between atoms: N_1  and  C_2 
REMARK    1  A    between atoms: C_2  and  C_4 
REMARK    2  A    between atoms: C_4  and  C_5 
REMARK    3  A    between atoms: C_8  and  N_9 
REMARK       I    between atoms: N_9  and  C_10 
REMARK    4  A    between atoms: C_10  and  C_12 
REMARK    5  A    between atoms: C_12  and  C_13 
ROOT
HETATM    1  C   UNL     1     -39.599 -49.650  12.233  1.00  0.00     0.026 A 
HETATM    2  C   UNL     1     -40.535 -48.633  12.325  1.00  0.00     0.078 A 
HETATM    3  S   UNL     1     -42.120 -49.273  12.104  1.00  0.00    -0.064 SA
HETATM    4  C   UNL     1     -41.447 -50.831  11.994  1.00  0.00     0.151 A 
HETATM    5  N   UNL     1     -40.145 -50.904  12.024  1.00  0.00    -0.339 N 
ATOM      6  HN  UNL     1     -39.606 -51.763  11.910  1.00  0.00     0.168 HD
ENDROOT
BRANCH   4   7
HETATM    7  N   UNL     1     -42.337 -51.858  11.883  1.00  0.00    -0.307 N 
HETATM    8  C   UNL     1     -42.905 -52.422  13.006  1.00  0.00     0.224 C 
HETATM    9  O   UNL     1     -42.785 -52.009  14.159  1.00  0.00    -0.273 OA
HETATM   10  H   UNL     1     -42.614 -52.143  10.955  1.00  0.00     0.171 HD
BRANCH   8  11
HETATM   11  C   UNL     1     -43.776 -53.625  12.713  1.00  0.00     0.111 C 
BRANCH  11  12
HETATM   12  C   UNL     1     -45.272 -53.435  12.969  1.00  0.00     0.017 A 
HETATM   13  C   UNL     1     -45.789 -52.015  12.673  1.00  0.00     0.012 A 
HETATM   14  C   UNL     1     -46.427 -51.489  13.960  1.00  0.00     0.027 A 
HETATM   15  C   UNL     1     -46.381 -52.651  14.890  1.00  0.00    -0.030 A 
HETATM   16  C   UNL     1     -45.735 -53.699  14.369  1.00  0.00    -0.026 A 
ENDBRANCH  11  12
ENDBRANCH   8  11
ENDBRANCH   4   7
BRANCH   1  17
HETATM   17  C   UNL     1     -38.112 -49.537  12.314  1.00  0.00     0.160 C 
BRANCH  17  18
HETATM   18  C   UNL     1     -37.372 -50.576  11.487  1.00  0.00     0.221 C 
HETATM   19  N   UNL     1     -37.142 -50.287  10.176  1.00  0.00    -0.370 N 
HETATM   20  H   UNL     1     -36.660 -50.952   9.589  1.00  0.00     0.159 HD
HETATM   21  H   UNL     1     -37.543 -49.452   9.738  1.00  0.00     0.159 HD
HETATM   22  O   UNL     1     -36.918 -51.606  11.984  1.00  0.00    -0.273 OA
ENDBRANCH  17  18
ENDBRANCH   1  17
TORSDOF 5
ENDMDL
MODEL 2
REMARK VINA RESULT:      -5.8      2.347      6.892
REMARK  5 active torsions:
REMARK  status: ('A' for Active; 'I' for Inactive)
REMARK       I    between atoms: N_1  and  C_2 
REMARK    1  A    between atoms: C_2  and  C_4 
REMARK    2  A    between atoms: C_4  and  C_5 
REMARK    3  A    between atoms: C_8  and  N_9 
REMARK       I    between atoms: N_9  and  C_10 
REMARK    4  A    between atoms: C_10  and  C_12 
REMARK    5  A    between atoms: C_12  and  C_13 
ROOT
HETATM    1  C   UNL     1     -43.829 -53.461  12.869  1.00  0.00     0.026 A 
HETATM    2  C   UNL     1     -42.908 -54.288  13.490  1.00  0.00     0.078 A 
HETATM    3  S   UNL     1     -41.308 -53.790  13.089  1.00  0.00    -0.064 SA
HETATM    4  C   UNL     1     -41.962 -52.488  12.211  1.00  0.00     0.151 A 
HETATM    5  N   UNL     1     -43.263 -52.443  12.124  1.00  0.00    -0.339 N 
ATOM      6  HN  UNL     1     -43.788 -51.755  11.583  1.00  0.00     0.168 HD
ENDROOT
BRANCH   4   7
HETATM    7  N   UNL     1     -41.059 -51.614  11.680  1.00  0.00    -0.307 N 
HETATM    8  C   UNL     1     -41.198 -50.256  11.873  1.00  0.00     0.224 C 
HETATM    9  O   UNL     1     -42.023 -49.712  12.606  1.00  0.00    -0.273 OA
HETATM   10  H   UNL     1     -40.257 -51.997  11.203  1.00  0.00     0.171 HD
BRANCH   8  11
HETATM   11  C   UNL     1     -40.183 -49.424  11.118  1.00  0.00     0.111 C 
BRANCH  11  12
HETATM   12  C   UNL     1     -38.842 -49.218  11.825  1.00  0.00     0.017 A 
HETATM   13  C   UNL     1     -37.715 -50.139  11.325  1.00  0.00     0.012 A 
HETATM   14  C   UNL     1     -37.200 -50.923  12.535  1.00  0.00     0.027 A 
HETATM   15  C   UNL     1     -37.938 -50.336  13.687  1.00  0.00    -0.030 A 
HETATM   16  C   UNL     1     -38.846 -49.431  13.308  1.00  0.00    -0.026 A 
ENDBRANCH  11  12
ENDBRANCH   8  11
ENDBRANCH   4   7
BRANCH   1  17
HETATM   17  C   UNL     1     -45.320 -53.559  12.904  1.00  0.00     0.160 C 
BRANCH  17  18
HETATM   18  C   UNL     1     -46.027 -52.242  12.629  1.00  0.00     0.221 C 
HETATM   19  N   UNL     1     -46.842 -52.183  11.538  1.00  0.00    -0.370 N 
HETATM   20  H   UNL     1     -47.326 -51.326  11.316  1.00  0.00     0.159 HD
HETATM   21  H   UNL     1     -46.894 -52.959  10.872  1.00  0.00     0.159 HD
HETATM   22  O   UNL     1     -45.945 -51.283  13.395  1.00  0.00    -0.273 OA
ENDBRANCH  17  18
ENDBRANCH   1  17
TORSDOF 5
ENDMDL
MODEL 3
REMARK VINA RESULT:      -5.8      2.513      2.827
REMARK  5 active torsions:
REMARK  status: ('A' for Active; 'I' for Inactive)
REMARK       I    between atoms: N_1  and  C_2 
REMARK    1  A    between atoms: C_2  and  C_4 
REMARK    2  A    between atoms: C_4  and  C_5 
REMARK    3  A    between atoms: C_8  and  N_9 
REMARK       I    between atoms: N_9  and  C_10 
REMARK    4  A    between atoms: C_10  and  C_12 
REMARK    5  A    between atoms: C_12  and  C_13 
ROOT
HETATM    1  C   UNL     1     -40.666 -50.286  11.785  1.00  0.00     0.026 A 
HETATM    2  C   UNL     1     -39.735 -51.185  12.278  1.00  0.00     0.078 A 
HETATM    3  S   UNL     1     -40.522 -52.641  12.756  1.00  0.00    -0.064 SA
HETATM    4  C   UNL     1     -41.994 -51.999  12.194  1.00  0.00     0.151 A 
HETATM    5  N   UNL     1     -41.961 -50.768  11.762  1.00  0.00    -0.339 N 
ATOM      6  HN  UNL     1     -42.776 -50.237  11.452  1.00  0.00     0.168 HD
ENDROOT
BRANCH   4   7
HETATM    7  N   UNL     1     -43.070 -52.835  12.252  1.00  0.00    -0.307 N 
HETATM    8  C   UNL     1     -43.640 -53.165  13.463  1.00  0.00     0.224 C 
HETATM    9  O   UNL     1     -43.349 -52.677  14.554  1.00  0.00    -0.273 OA
HETATM   10  H   UNL     1     -43.472 -53.145  11.380  1.00  0.00     0.171 HD
BRANCH   8  11
HETATM   11  C   UNL     1     -44.746 -54.194  13.358  1.00  0.00     0.111 C 
BRANCH  11  12
HETATM   12  C   UNL     1     -46.160 -53.671  13.622  1.00  0.00     0.017 A 
HETATM   13  C   UNL     1     -46.424 -52.256  13.078  1.00  0.00     0.012 A 
HETATM   14  C   UNL     1     -46.862 -51.390  14.261  1.00  0.00     0.027 A 
HETATM   15  C   UNL     1     -46.968 -52.351  15.394  1.00  0.00    -0.030 A 
HETATM   16  C   UNL     1     -46.566 -53.582  15.062  1.00  0.00    -0.026 A 
ENDBRANCH  11  12
ENDBRANCH   8  11
ENDBRANCH   4   7
BRANCH   1  17
HETATM   17  C   UNL     1     -40.428 -48.890  11.307  1.00  0.00     0.160 C 
BRANCH  17  18
HETATM   18  C   UNL     1     -41.688 -48.181  10.837  1.00  0.00     0.221 C 
HETATM   19  N   UNL     1     -41.920 -48.138   9.495  1.00  0.00    -0.370 N 
HETATM   20  H   UNL     1     -42.742 -47.672   9.140  1.00  0.00     0.159 HD
HETATM   21  H   UNL     1     -41.224 -48.475   8.825  1.00  0.00     0.159 HD
HETATM   22  O   UNL     1     -42.519 -47.732  11.625  1.00  0.00    -0.273 OA
ENDBRANCH  17  18
ENDBRANCH   1  17
TORSDOF 5
ENDMDL
MODEL 4
REMARK VINA RESULT:      -5.7      3.698      5.237
REMARK  5 active torsions:
REMARK  status: ('A' for Active; 'I' for Inactive)
REMARK       I    between atoms: N_1  and  C_2 
REMARK    1  A    between atoms: C_2  and  C_4 
REMARK    2  A    between atoms: C_4  and  C_5 
REMARK    3  A    between atoms: C_8  and  N_9 
REMARK       I    between atoms: N_9  and  C_10 
REMARK    4  A    between atoms: C_10  and  C_12 
REMARK    5  A    between atoms: C_12  and  C_13 
ROOT
HETATM    1  C   UNL     1     -42.008 -47.258  10.152  1.00  0.00     0.026 A 
HETATM    2  C   UNL     1     -40.972 -46.679  10.865  1.00  0.00     0.078 A 
HETATM    3  S   UNL     1     -40.084 -47.896  11.701  1.00  0.00    -0.064 SA
HETATM    4  C   UNL     1     -41.078 -49.076  10.986  1.00  0.00     0.151 A 
HETATM    5  N   UNL     1     -42.062 -48.637  10.249  1.00  0.00    -0.339 N 
ATOM      6  HN  UNL     1     -42.769 -49.225   9.808  1.00  0.00     0.168 HD
ENDROOT
BRANCH   4   7
HETATM    7  N   UNL     1     -40.752 -50.373  11.253  1.00  0.00    -0.307 N 
HETATM    8  C   UNL     1     -41.514 -51.125  12.122  1.00  0.00     0.224 C 
HETATM    9  O   UNL     1     -42.582 -50.781  12.628  1.00  0.00    -0.273 OA
HETATM   10  H   UNL     1     -39.981 -50.779  10.745  1.00  0.00     0.171 HD
BRANCH   8  11
HETATM   11  C   UNL     1     -40.947 -52.501  12.399  1.00  0.00     0.111 C 
BRANCH  11  12
HETATM   12  C   UNL     1     -40.582 -52.783  13.858  1.00  0.00     0.017 A 
HETATM   13  C   UNL     1     -39.162 -53.342  14.060  1.00  0.00     0.012 A 
HETATM   14  C   UNL     1     -39.301 -54.682  14.784  1.00  0.00     0.027 A 
HETATM   15  C   UNL     1     -40.754 -54.778  15.092  1.00  0.00    -0.030 A 
HETATM   16  C   UNL     1     -41.457 -53.767  14.573  1.00  0.00    -0.026 A 
ENDBRANCH  11  12
ENDBRANCH   8  11
ENDBRANCH   4   7
BRANCH   1  17
HETATM   17  C   UNL     1     -43.050 -46.572   9.329  1.00  0.00     0.160 C 
BRANCH  17  18
HETATM   18  C   UNL     1     -43.730 -47.483   8.319  1.00  0.00     0.221 C 
HETATM   19  N   UNL     1     -43.036 -47.795   7.188  1.00  0.00    -0.370 N 
HETATM   20  H   UNL     1     -43.453 -48.391   6.489  1.00  0.00     0.159 HD
HETATM   21  H   UNL     1     -42.138 -47.351   6.977  1.00  0.00     0.159 HD
HETATM   22  O   UNL     1     -44.828 -47.995   8.534  1.00  0.00    -0.273 OA
ENDBRANCH  17  18
ENDBRANCH   1  17
TORSDOF 5
ENDMDL
MODEL 5
REMARK VINA RESULT:      -5.6      2.036      2.175
REMARK  5 active torsions:
REMARK  status: ('A' for Active; 'I' for Inactive)
REMARK       I    between atoms: N_1  and  C_2 
REMARK    1  A    between atoms: C_2  and  C_4 
REMARK    2  A    between atoms: C_4  and  C_5 
REMARK    3  A    between atoms: C_8  and  N_9 
REMARK       I    between atoms: N_9  and  C_10 
REMARK    4  A    between atoms: C_10  and  C_12 
REMARK    5  A    between atoms: C_12  and  C_13 
ROOT
HETATM    1  C   UNL     1     -39.104 -51.499  13.953  1.00  0.00     0.026 A 
HETATM    2  C   UNL     1     -38.937 -52.154  15.162  1.00  0.00     0.078 A 
HETATM    3  S   UNL     1     -40.224 -53.274  15.404  1.00  0.00    -0.064 SA
HETATM    4  C   UNL     1     -40.834 -52.865  13.870  1.00  0.00     0.151 A 
HETATM    5  N   UNL     1     -40.211 -51.911  13.234  1.00  0.00    -0.339 N 
ATOM      6  HN  UNL     1     -40.500 -51.524  12.335  1.00  0.00     0.168 HD
ENDROOT
BRANCH   4   7
HETATM    7  N   UNL     1     -41.921 -53.575  13.451  1.00  0.00    -0.307 N 
HETATM    8  C   UNL     1     -42.996 -52.937  12.871  1.00  0.00     0.224 C 
HETATM    9  O   UNL     1     -43.049 -51.748  12.562  1.00  0.00    -0.273 OA
HETATM   10  H   UNL     1     -41.880 -54.581  13.519  1.00  0.00     0.171 HD
BRANCH   8  11
HETATM   11  C   UNL     1     -44.164 -53.855  12.574  1.00  0.00     0.111 C 
BRANCH  11  12
HETATM   12  C   UNL     1     -45.448 -53.559  13.351  1.00  0.00     0.017 A 
HETATM   13  C   UNL     1     -46.316 -52.444  12.740  1.00  0.00     0.012 A 
HETATM   14  C   UNL     1     -46.497 -51.370  13.814  1.00  0.00     0.027 A 
HETATM   15  C   UNL     1     -45.857 -51.956  15.024  1.00  0.00    -0.030 A 
HETATM   16  C   UNL     1     -45.267 -53.130  14.775  1.00  0.00    -0.026 A 
ENDBRANCH  11  12
ENDBRANCH   8  11
ENDBRANCH   4   7
BRANCH   1  17
HETATM   17  C   UNL     1     -38.251 -50.419  13.370  1.00  0.00     0.160 C 
BRANCH  17  18
HETATM   18  C   UNL     1     -37.549 -50.821  12.083  1.00  0.00     0.221 C 
HETATM   19  N   UNL     1     -37.789 -50.065  10.975  1.00  0.00    -0.370 N 
HETATM   20  H   UNL     1     -37.349 -50.300  10.098  1.00  0.00     0.159 HD
HETATM   21  H   UNL     1     -38.495 -49.323  10.982  1.00  0.00     0.159 HD
HETATM   22  O   UNL     1     -36.728 -51.736  12.043  1.00  0.00    -0.273 OA
ENDBRANCH  17  18
ENDBRANCH   1  17
TORSDOF 5
ENDMDL
MODEL 6
REMARK VINA RESULT:      -5.6      2.134      2.478
REMARK  5 active torsions:
REMARK  status: ('A' for Active; 'I' for Inactive)
REMARK       I    between atoms: N_1  and  C_2 
REMARK    1  A    between atoms: C_2  and  C_4 
REMARK    2  A    between atoms: C_4  and  C_5 
REMARK    3  A    between atoms: C_8  and  N_9 
REMARK       I    between atoms: N_9  and  C_10 
REMARK    4  A    between atoms: C_10  and  C_12 
REMARK    5  A    between atoms: C_12  and  C_13 
ROOT
HETATM    1  C   UNL     1     -38.324 -51.177  13.564  1.00  0.00     0.026 A 
HETATM    2  C   UNL     1     -38.217 -51.137  14.944  1.00  0.00     0.078 A 
HETATM    3  S   UNL     1     -39.745 -51.483  15.661  1.00  0.00    -0.064 SA
HETATM    4  C   UNL     1     -40.387 -51.739  14.107  1.00  0.00     0.151 A 
HETATM    5  N   UNL     1     -39.585 -51.508  13.103  1.00  0.00    -0.339 N 
ATOM      6  HN  UNL     1     -39.851 -51.563  12.120  1.00  0.00     0.168 HD
ENDROOT
BRANCH   4   7
HETATM    7  N   UNL     1     -41.683 -52.161  14.059  1.00  0.00    -0.307 N 
HETATM    8  C   UNL     1     -42.558 -51.638  13.131  1.00  0.00     0.224 C 
HETATM    9  O   UNL     1     -42.265 -50.875  12.212  1.00  0.00    -0.273 OA
HETATM   10  H   UNL     1     -41.957 -52.911  14.676  1.00  0.00     0.171 HD
BRANCH   8  11
HETATM   11  C   UNL     1     -43.983 -52.126  13.292  1.00  0.00     0.111 C 
BRANCH  11  12
HETATM   12  C   UNL     1     -44.969 -51.106  13.864  1.00  0.00     0.017 A 
HETATM   13  C   UNL     1     -44.744 -50.771  15.349  1.00  0.00     0.012 A 
HETATM   14  C   UNL     1     -46.046 -51.087  16.087  1.00  0.00     0.027 A 
HETATM   15  C   UNL     1     -46.998 -51.452  15.002  1.00  0.00    -0.030 A 
HETATM   16  C   UNL     1     -46.416 -51.488  13.799  1.00  0.00    -0.026 A 
ENDBRANCH  11  12
ENDBRANCH   8  11
ENDBRANCH   4   7
BRANCH   1  17
HETATM   17  C   UNL     1     -37.260 -50.893  12.554  1.00  0.00     0.160 C 
BRANCH  17  18
HETATM   18  C   UNL     1     -37.693 -49.925  11.465  1.00  0.00     0.221 C 
HETATM   19  N   UNL     1     -37.187 -50.119  10.214  1.00  0.00    -0.370 N 
HETATM   20  H   UNL     1     -37.443 -49.496   9.463  1.00  0.00     0.159 HD
HETATM   21  H   UNL     1     -36.463 -50.821  10.038  1.00  0.00     0.159 HD
HETATM   22  O   UNL     1     -38.531 -49.047  11.664  1.00  0.00    -0.273 OA
ENDBRANCH  17  18
ENDBRANCH   1  17
TORSDOF 5
ENDMDL
MODEL 7
REMARK VINA RESULT:      -5.5      2.422      6.853
REMARK  5 active torsions:
REMARK  status: ('A' for Active; 'I' for Inactive)
REMARK       I    between atoms: N_1  and  C_2 
REMARK    1  A    between atoms: C_2  and  C_4 
REMARK    2  A    between atoms: C_4  and  C_5 
REMARK    3  A    between atoms: C_8  and  N_9 
REMARK       I    between atoms: N_9  and  C_10 
REMARK    4  A    between atoms: C_10  and  C_12 
REMARK    5  A    between atoms: C_12  and  C_13 
ROOT
HETATM    1  C   UNL     1     -44.868 -50.938  13.970  1.00  0.00     0.026 A 
HETATM    2  C   UNL     1     -44.330 -50.600  15.201  1.00  0.00     0.078 A 
HETATM    3  S   UNL     1     -42.806 -49.826  14.983  1.00  0.00    -0.064 SA
HETATM    4  C   UNL     1     -43.027 -49.923  13.299  1.00  0.00     0.151 A 
HETATM    5  N   UNL     1     -44.093 -50.555  12.890  1.00  0.00    -0.339 N 
ATOM      6  HN  UNL     1     -44.323 -50.740  11.913  1.00  0.00     0.168 HD
ENDROOT
BRANCH   4   7
HETATM    7  N   UNL     1     -42.064 -49.331  12.536  1.00  0.00    -0.307 N 
HETATM    8  C   UNL     1     -41.098 -50.090  11.910  1.00  0.00     0.224 C 
HETATM    9  O   UNL     1     -41.066 -51.319  11.860  1.00  0.00    -0.273 OA
HETATM   10  H   UNL     1     -42.124 -48.334  12.392  1.00  0.00     0.171 HD
BRANCH   8  11
HETATM   11  C   UNL     1     -40.039 -49.270  11.203  1.00  0.00     0.111 C 
BRANCH  11  12
HETATM   12  C   UNL     1     -38.694 -49.168  11.925  1.00  0.00     0.017 A 
HETATM   13  C   UNL     1     -37.638 -50.180  11.443  1.00  0.00     0.012 A 
HETATM   14  C   UNL     1     -37.202 -50.995  12.662  1.00  0.00     0.027 A 
HETATM   15  C   UNL     1     -37.903 -50.344  13.803  1.00  0.00    -0.030 A 
HETATM   16  C   UNL     1     -38.731 -49.371  13.409  1.00  0.00    -0.026 A 
ENDBRANCH  11  12
ENDBRANCH   8  11
ENDBRANCH   4   7
BRANCH   1  17
HETATM   17  C   UNL     1     -46.145 -51.663  13.696  1.00  0.00     0.160 C 
BRANCH  17  18
HETATM   18  C   UNL     1     -46.120 -52.484  12.416  1.00  0.00     0.221 C 
HETATM   19  N   UNL     1     -46.959 -52.106  11.411  1.00  0.00    -0.370 N 
HETATM   20  H   UNL     1     -46.979 -52.627  10.548  1.00  0.00     0.159 HD
HETATM   21  H   UNL     1     -47.653 -51.366  11.550  1.00  0.00     0.159 HD
HETATM   22  O   UNL     1     -45.322 -53.404  12.244  1.00  0.00    -0.273 OA
ENDBRANCH  17  18
ENDBRANCH   1  17
TORSDOF 5
ENDMDL
MODEL 8
REMARK VINA RESULT:      -5.5      3.284      6.575
REMARK  5 active torsions:
REMARK  status: ('A' for Active; 'I' for Inactive)
REMARK       I    between atoms: N_1  and  C_2 
REMARK    1  A    between atoms: C_2  and  C_4 
REMARK    2  A    between atoms: C_4  and  C_5 
REMARK    3  A    between atoms: C_8  and  N_9 
REMARK       I    between atoms: N_9  and  C_10 
REMARK    4  A    between atoms: C_10  and  C_12 
REMARK    5  A    between atoms: C_12  and  C_13 
ROOT
HETATM    1  C   UNL     1     -43.133 -53.185  13.377  1.00  0.00     0.026 A 
HETATM    2  C   UNL     1     -41.817 -53.564  13.577  1.00  0.00     0.078 A 
HETATM    3  S   UNL     1     -40.762 -52.473  12.761  1.00  0.00    -0.064 SA
HETATM    4  C   UNL     1     -42.115 -51.555  12.294  1.00  0.00     0.151 A 
HETATM    5  N   UNL     1     -43.283 -52.036  12.622  1.00  0.00    -0.339 N 
ATOM      6  HN  UNL     1     -44.179 -51.624  12.358  1.00  0.00     0.168 HD
ENDROOT
BRANCH   4   7
HETATM    7  N   UNL     1     -41.849 -50.400  11.619  1.00  0.00    -0.307 N 
HETATM    8  C   UNL     1     -42.392 -49.202  12.033  1.00  0.00     0.224 C 
HETATM    9  O   UNL     1     -43.033 -49.020  13.066  1.00  0.00    -0.273 OA
HETATM   10  H   UNL     1     -41.193 -50.443  10.853  1.00  0.00     0.171 HD
BRANCH   8  11
HETATM   11  C   UNL     1     -42.094 -48.043  11.105  1.00  0.00     0.111 C 
BRANCH  11  12
HETATM   12  C   UNL     1     -43.245 -47.060  10.887  1.00  0.00     0.017 A 
HETATM   13  C   UNL     1     -44.453 -47.654  10.139  1.00  0.00     0.012 A 
HETATM   14  C   UNL     1     -44.684 -46.794   8.896  1.00  0.00     0.027 A 
HETATM   15  C   UNL     1     -43.711 -45.676   9.043  1.00  0.00    -0.030 A 
HETATM   16  C   UNL     1     -42.913 -45.826  10.104  1.00  0.00    -0.026 A 
ENDBRANCH  11  12
ENDBRANCH   8  11
ENDBRANCH   4   7
BRANCH   1  17
HETATM   17  C   UNL     1     -44.369 -53.872  13.862  1.00  0.00     0.160 C 
BRANCH  17  18
HETATM   18  C   UNL     1     -45.645 -53.375  13.202  1.00  0.00     0.221 C 
HETATM   19  N   UNL     1     -46.703 -53.096  14.014  1.00  0.00    -0.370 N 
HETATM   20  H   UNL     1     -47.571 -52.769  13.616  1.00  0.00     0.159 HD
HETATM   21  H   UNL     1     -46.677 -53.313  15.014  1.00  0.00     0.159 HD
HETATM   22  O   UNL     1     -45.712 -53.147  11.995  1.00  0.00    -0.273 OA
ENDBRANCH  17  18
ENDBRANCH   1  17
TORSDOF 5
ENDMDL
MODEL 9
REMARK VINA RESULT:      -5.5      2.406      7.005
REMARK  5 active torsions:
REMARK  status: ('A' for Active; 'I' for Inactive)
REMARK       I    between atoms: N_1  and  C_2 
REMARK    1  A    between atoms: C_2  and  C_4 
REMARK    2  A    between atoms: C_4  and  C_5 
REMARK    3  A    between atoms: C_8  and  N_9 
REMARK       I    between atoms: N_9  and  C_10 
REMARK    4  A    between atoms: C_10  and  C_12 
REMARK    5  A    between atoms: C_12  and  C_13 
ROOT
HETATM    1  C   UNL     1     -44.225 -52.610  13.322  1.00  0.00     0.026 A 
HETATM    2  C   UNL     1     -44.612 -51.284  13.423  1.00  0.00     0.078 A 
HETATM    3  S   UNL     1     -43.304 -50.335  14.020  1.00  0.00    -0.064 SA
HETATM    4  C   UNL     1     -42.324 -51.725  14.008  1.00  0.00     0.151 A 
HETATM    5  N   UNL     1     -42.910 -52.844  13.680  1.00  0.00    -0.339 N 
ATOM      6  HN  UNL     1     -42.462 -53.761  13.687  1.00  0.00     0.168 HD
ENDROOT
BRANCH   4   7
HETATM    7  N   UNL     1     -41.016 -51.537  14.346  1.00  0.00    -0.307 N 
HETATM    8  C   UNL     1     -40.006 -51.999  13.530  1.00  0.00     0.224 C 
HETATM    9  O   UNL     1     -40.149 -52.489  12.411  1.00  0.00    -0.273 OA
HETATM   10  H   UNL     1     -40.817 -50.993  15.172  1.00  0.00     0.171 HD
BRANCH   8  11
HETATM   11  C   UNL     1     -38.619 -51.814  14.109  1.00  0.00     0.111 C 
BRANCH  11  12
HETATM   12  C   UNL     1     -37.809 -50.656  13.523  1.00  0.00     0.017 A 
HETATM   13  C   UNL     1     -38.616 -49.363  13.307  1.00  0.00     0.012 A 
HETATM   14  C   UNL     1     -38.500 -48.999  11.825  1.00  0.00     0.027 A 
HETATM   15  C   UNL     1     -37.537 -49.995  11.281  1.00  0.00    -0.030 A 
HETATM   16  C   UNL     1     -37.177 -50.910  12.188  1.00  0.00    -0.026 A 
ENDBRANCH  11  12
ENDBRANCH   8  11
ENDBRANCH   4   7
BRANCH   1  17
HETATM   17  C   UNL     1     -45.055 -53.777  12.896  1.00  0.00     0.160 C 
BRANCH  17  18
HETATM   18  C   UNL     1     -45.350 -54.760  14.018  1.00  0.00     0.221 C 
HETATM   19  N   UNL     1     -46.657 -54.961  14.349  1.00  0.00    -0.370 N 
HETATM   20  H   UNL     1     -46.897 -55.600  15.092  1.00  0.00     0.159 HD
HETATM   21  H   UNL     1     -47.403 -54.396  13.933  1.00  0.00     0.159 HD
HETATM   22  O   UNL     1     -44.465 -55.419  14.561  1.00  0.00    -0.273 OA
ENDBRANCH  17  18
ENDBRANCH   1  17
TORSDOF 5
ENDMDL
