MODEL 1
REMARK VINA RESULT:      -6.8      0.000      0.000
REMARK  6 active torsions:
REMARK  status: ('A' for Active; 'I' for Inactive)
REMARK    1  A    between atoms: O_1  and  C_2 
REMARK    2  A    between atoms: C_2  and  C_3 
REMARK    3  A    between atoms: C_2  and  C_19 
REMARK    4  A    between atoms: C_3  and  N_4 
REMARK    5  A    between atoms: C_7  and  C_16 
REMARK    6  A    between atoms: C_9  and  C_12 
ROOT
HETATM    1  N   UNL     1     -41.593 -49.561  12.078  1.00  0.00    -0.254 N 
HETATM    2  N   UNL     1     -40.280 -49.872  12.325  1.00  0.00    -0.299 N 
ATOM      3  HN  UNL     1     -40.018 -50.741  12.790  1.00  0.00     0.187 HD
HETATM    4  C   UNL     1     -39.391 -49.018  11.944  1.00  0.00     0.031 A 
HETATM    5  C   UNL     1     -39.672 -47.737  11.287  1.00  0.00     0.049 A 
HETATM    6  C   UNL     1     -40.963 -47.408  11.121  1.00  0.00     0.119 A 
HETATM    7  C   UNL     1     -42.025 -48.347  11.540  1.00  0.00     0.277 A 
HETATM    8  O   UNL     1     -43.214 -48.061  11.434  1.00  0.00    -0.266 OA
ENDROOT
BRANCH   1   9
HETATM    9  C   UNL     1     -42.584 -50.499  12.626  1.00  0.00     0.189 C 
BRANCH   9  10
HETATM   10  C   UNL     1     -42.016 -51.930  12.602  1.00  0.00     0.171 C 
BRANCH  10  11
HETATM   11  O   UNL     1     -41.497 -52.234  11.299  1.00  0.00    -0.389 OA
HETATM   12  H   UNL     1     -40.731 -51.638  11.177  1.00  0.00     0.210 HD
ENDBRANCH  10  11
BRANCH  10  13
HETATM   13  C   UNL     1     -43.028 -52.998  12.949  1.00  0.00    -0.028 A 
HETATM   14  C   UNL     1     -44.316 -52.949  12.390  1.00  0.00     0.013 A 
HETATM   15  C   UNL     1     -45.287 -53.879  12.765  1.00  0.00     0.043 A 
HETATM   16  C   UNL     1     -44.972 -54.864  13.691  1.00  0.00     0.116 A 
HETATM   17  F   UNL     1     -45.912 -55.740  14.069  1.00  0.00    -0.206 F 
HETATM   18  C   UNL     1     -43.699 -54.947  14.241  1.00  0.00     0.043 A 
HETATM   19  C   UNL     1     -42.728 -54.015  13.871  1.00  0.00     0.013 A 
ENDBRANCH  10  13
ENDBRANCH   9  10
ENDBRANCH   1   9
BRANCH   4  20
HETATM   20  C   UNL     1     -37.975 -49.370  12.193  1.00  0.00     0.037 A 
HETATM   21  C   UNL     1     -37.207 -50.077  11.094  1.00  0.00     0.011 A 
HETATM   22  C   UNL     1     -37.503 -50.793  12.376  1.00  0.00     0.011 A 
ENDBRANCH   4  20
BRANCH   6  23
HETATM   23  C   UNL     1     -41.368 -46.104  10.545  1.00  0.00     0.422 C 
HETATM   24  F   UNL     1     -42.250 -46.136   9.520  1.00  0.00    -0.166 F 
HETATM   25  F   UNL     1     -41.939 -45.322  11.506  1.00  0.00    -0.166 F 
HETATM   26  F   UNL     1     -40.284 -45.411  10.104  1.00  0.00    -0.166 F 
ENDBRANCH   6  23
TORSDOF 6
ENDMDL
MODEL 2
REMARK VINA RESULT:      -6.6      2.534      3.892
REMARK  6 active torsions:
REMARK  status: ('A' for Active; 'I' for Inactive)
REMARK    1  A    between atoms: O_1  and  C_2 
REMARK    2  A    between atoms: C_2  and  C_3 
REMARK    3  A    between atoms: C_2  and  C_19 
REMARK    4  A    between atoms: C_3  and  N_4 
REMARK    5  A    between atoms: C_7  and  C_16 
REMARK    6  A    between atoms: C_9  and  C_12 
ROOT
HETATM    1  N   UNL     1     -41.033 -51.086  12.050  1.00  0.00    -0.254 N 
HETATM    2  N   UNL     1     -42.082 -50.217  11.890  1.00  0.00    -0.299 N 
ATOM      3  HN  UNL     1     -42.982 -50.530  11.524  1.00  0.00     0.187 HD
HETATM    4  C   UNL     1     -41.882 -48.986  12.220  1.00  0.00     0.031 A 
HETATM    5  C   UNL     1     -40.622 -48.439  12.734  1.00  0.00     0.049 A 
HETATM    6  C   UNL     1     -39.580 -49.282  12.813  1.00  0.00     0.119 A 
HETATM    7  C   UNL     1     -39.750 -50.704  12.447  1.00  0.00     0.277 A 
HETATM    8  O   UNL     1     -38.810 -51.492  12.476  1.00  0.00    -0.266 OA
ENDROOT
BRANCH   1   9
HETATM    9  C   UNL     1     -41.259 -52.454  11.559  1.00  0.00     0.189 C 
BRANCH   9  10
HETATM   10  C   UNL     1     -41.240 -53.442  12.740  1.00  0.00     0.171 C 
BRANCH  10  11
HETATM   11  O   UNL     1     -40.535 -54.637  12.373  1.00  0.00    -0.389 OA
HETATM   12  H   UNL     1     -40.892 -54.894  11.499  1.00  0.00     0.210 HD
ENDBRANCH  10  11
BRANCH  10  13
HETATM   13  C   UNL     1     -42.615 -53.853  13.216  1.00  0.00    -0.028 A 
HETATM   14  C   UNL     1     -42.748 -54.655  14.361  1.00  0.00     0.013 A 
HETATM   15  C   UNL     1     -44.003 -55.112  14.765  1.00  0.00     0.043 A 
HETATM   16  C   UNL     1     -45.129 -54.762  14.031  1.00  0.00     0.116 A 
HETATM   17  F   UNL     1     -46.331 -55.222  14.405  1.00  0.00    -0.206 F 
HETATM   18  C   UNL     1     -45.026 -53.951  12.908  1.00  0.00     0.043 A 
HETATM   19  C   UNL     1     -43.771 -53.497  12.500  1.00  0.00     0.013 A 
ENDBRANCH  10  13
ENDBRANCH   9  10
ENDBRANCH   1   9
BRANCH   4  20
HETATM   20  C   UNL     1     -43.024 -48.057  12.065  1.00  0.00     0.037 A 
HETATM   21  C   UNL     1     -43.285 -47.463  10.696  1.00  0.00     0.011 A 
HETATM   22  C   UNL     1     -42.850 -46.576  11.822  1.00  0.00     0.011 A 
ENDBRANCH   4  20
BRANCH   6  23
HETATM   23  C   UNL     1     -38.237 -48.825  13.239  1.00  0.00     0.422 C 
HETATM   24  F   UNL     1     -37.698 -49.433  14.320  1.00  0.00    -0.166 F 
HETATM   25  F   UNL     1     -37.338 -48.995  12.227  1.00  0.00    -0.166 F 
HETATM   26  F   UNL     1     -38.240 -47.490  13.505  1.00  0.00    -0.166 F 
ENDBRANCH   6  23
TORSDOF 6
ENDMDL
MODEL 3
REMARK VINA RESULT:      -6.6      2.751      4.120
REMARK  6 active torsions:
REMARK  status: ('A' for Active; 'I' for Inactive)
REMARK    1  A    between atoms: O_1  and  C_2 
REMARK    2  A    between atoms: C_2  and  C_3 
REMARK    3  A    between atoms: C_2  and  C_19 
REMARK    4  A    between atoms: C_3  and  N_4 
REMARK    5  A    between atoms: C_7  and  C_16 
REMARK    6  A    between atoms: C_9  and  C_12 
ROOT
HETATM    1  N   UNL     1     -41.357 -51.056  12.211  1.00  0.00    -0.254 N 
HETATM    2  N   UNL     1     -41.882 -49.965  11.565  1.00  0.00    -0.299 N 
ATOM      3  HN  UNL     1     -42.883 -49.888  11.380  1.00  0.00     0.187 HD
HETATM    4  C   UNL     1     -41.057 -49.042  11.203  1.00  0.00     0.031 A 
HETATM    5  C   UNL     1     -39.605 -49.074  11.408  1.00  0.00     0.049 A 
HETATM    6  C   UNL     1     -39.093 -50.180  11.970  1.00  0.00     0.119 A 
HETATM    7  C   UNL     1     -39.991 -51.272  12.404  1.00  0.00     0.277 A 
HETATM    8  O   UNL     1     -39.552 -52.310  12.890  1.00  0.00    -0.266 OA
ENDROOT
BRANCH   1   9
HETATM    9  C   UNL     1     -42.307 -52.139  12.508  1.00  0.00     0.189 C 
BRANCH   9  10
HETATM   10  C   UNL     1     -43.580 -51.554  13.148  1.00  0.00     0.171 C 
BRANCH  10  11
HETATM   11  O   UNL     1     -43.235 -50.743  14.280  1.00  0.00    -0.389 OA
HETATM   12  H   UNL     1     -43.287 -49.818  13.965  1.00  0.00     0.210 HD
ENDBRANCH  10  11
BRANCH  10  13
HETATM   13  C   UNL     1     -44.563 -52.600  13.621  1.00  0.00    -0.028 A 
HETATM   14  C   UNL     1     -44.287 -53.963  13.421  1.00  0.00     0.013 A 
HETATM   15  C   UNL     1     -45.222 -54.936  13.776  1.00  0.00     0.043 A 
HETATM   16  C   UNL     1     -46.432 -54.551  14.340  1.00  0.00     0.116 A 
HETATM   17  F   UNL     1     -47.339 -55.484  14.658  1.00  0.00    -0.206 F 
HETATM   18  C   UNL     1     -46.719 -53.211  14.570  1.00  0.00     0.043 A 
HETATM   19  C   UNL     1     -45.787 -52.236  14.211  1.00  0.00     0.013 A 
ENDBRANCH  10  13
ENDBRANCH   9  10
ENDBRANCH   1   9
BRANCH   4  20
HETATM   20  C   UNL     1     -41.632 -47.858  10.526  1.00  0.00     0.037 A 
HETATM   21  C   UNL     1     -42.354 -46.829  11.372  1.00  0.00     0.011 A 
HETATM   22  C   UNL     1     -43.120 -47.642  10.375  1.00  0.00     0.011 A 
ENDBRANCH   4  20
BRANCH   6  23
HETATM   23  C   UNL     1     -37.634 -50.361  12.151  1.00  0.00     0.422 C 
HETATM   24  F   UNL     1     -37.101 -51.521  11.705  1.00  0.00    -0.166 F 
HETATM   25  F   UNL     1     -36.953 -49.366  11.512  1.00  0.00    -0.166 F 
HETATM   26  F   UNL     1     -37.292 -50.254  13.464  1.00  0.00    -0.166 F 
ENDBRANCH   6  23
TORSDOF 6
ENDMDL
MODEL 4
REMARK VINA RESULT:      -6.6      1.628      2.269
REMARK  6 active torsions:
REMARK  status: ('A' for Active; 'I' for Inactive)
REMARK    1  A    between atoms: O_1  and  C_2 
REMARK    2  A    between atoms: C_2  and  C_3 
REMARK    3  A    between atoms: C_2  and  C_19 
REMARK    4  A    between atoms: C_3  and  N_4 
REMARK    5  A    between atoms: C_7  and  C_16 
REMARK    6  A    between atoms: C_9  and  C_12 
ROOT
HETATM    1  N   UNL     1     -40.432 -50.642  12.155  1.00  0.00    -0.254 N 
HETATM    2  N   UNL     1     -39.429 -51.031  13.007  1.00  0.00    -0.299 N 
ATOM      3  HN  UNL     1     -39.313 -52.007  13.281  1.00  0.00     0.187 HD
HETATM    4  C   UNL     1     -38.641 -50.111  13.448  1.00  0.00     0.031 A 
HETATM    5  C   UNL     1     -38.740 -48.683  13.127  1.00  0.00     0.049 A 
HETATM    6  C   UNL     1     -39.771 -48.302  12.356  1.00  0.00     0.119 A 
HETATM    7  C   UNL     1     -40.708 -49.314  11.823  1.00  0.00     0.277 A 
HETATM    8  O   UNL     1     -41.679 -48.995  11.143  1.00  0.00    -0.266 OA
ENDROOT
BRANCH   1   9
HETATM    9  C   UNL     1     -41.380 -51.695  11.762  1.00  0.00     0.189 C 
BRANCH   9  10
HETATM   10  C   UNL     1     -41.233 -52.905  12.703  1.00  0.00     0.171 C 
BRANCH  10  11
HETATM   11  O   UNL     1     -40.474 -53.940  12.062  1.00  0.00    -0.389 OA
HETATM   12  H   UNL     1     -39.751 -54.158  12.684  1.00  0.00     0.210 HD
ENDBRANCH  10  11
BRANCH  10  13
HETATM   13  C   UNL     1     -42.550 -53.508  13.135  1.00  0.00    -0.028 A 
HETATM   14  C   UNL     1     -42.587 -54.421  14.203  1.00  0.00     0.013 A 
HETATM   15  C   UNL     1     -43.780 -55.049  14.558  1.00  0.00     0.043 A 
HETATM   16  C   UNL     1     -44.943 -54.762  13.855  1.00  0.00     0.116 A 
HETATM   17  F   UNL     1     -46.083 -55.385  14.181  1.00  0.00    -0.206 F 
HETATM   18  C   UNL     1     -44.938 -53.847  12.810  1.00  0.00     0.043 A 
HETATM   19  C   UNL     1     -43.743 -53.220  12.450  1.00  0.00     0.013 A 
ENDBRANCH  10  13
ENDBRANCH   9  10
ENDBRANCH   1   9
BRANCH   4  20
HETATM   20  C   UNL     1     -37.548 -50.540  14.350  1.00  0.00     0.037 A 
HETATM   21  C   UNL     1     -37.853 -50.688  15.826  1.00  0.00     0.011 A 
HETATM   22  C   UNL     1     -36.912 -49.619  15.364  1.00  0.00     0.011 A 
ENDBRANCH   4  20
BRANCH   6  23
HETATM   23  C   UNL     1     -40.021 -46.878  12.034  1.00  0.00     0.422 C 
HETATM   24  F   UNL     1     -41.261 -46.402  12.289  1.00  0.00    -0.166 F 
HETATM   25  F   UNL     1     -39.163 -46.079  12.731  1.00  0.00    -0.166 F 
HETATM   26  F   UNL     1     -39.770 -46.627  10.720  1.00  0.00    -0.166 F 
ENDBRANCH   6  23
TORSDOF 6
ENDMDL
MODEL 5
REMARK VINA RESULT:      -6.5      4.700      6.901
REMARK  6 active torsions:
REMARK  status: ('A' for Active; 'I' for Inactive)
REMARK    1  A    between atoms: O_1  and  C_2 
REMARK    2  A    between atoms: C_2  and  C_3 
REMARK    3  A    between atoms: C_2  and  C_19 
REMARK    4  A    between atoms: C_3  and  N_4 
REMARK    5  A    between atoms: C_7  and  C_16 
REMARK    6  A    between atoms: C_9  and  C_12 
ROOT
HETATM    1  N   UNL     1     -44.157 -53.522  13.439  1.00  0.00    -0.254 N 
HETATM    2  N   UNL     1     -43.125 -52.991  12.706  1.00  0.00    -0.299 N 
ATOM      3  HN  UNL     1     -43.298 -52.408  11.887  1.00  0.00     0.187 HD
HETATM    4  C   UNL     1     -41.926 -53.262  13.098  1.00  0.00     0.031 A 
HETATM    5  C   UNL     1     -41.578 -54.103  14.247  1.00  0.00     0.049 A 
HETATM    6  C   UNL     1     -42.593 -54.680  14.909  1.00  0.00     0.119 A 
HETATM    7  C   UNL     1     -43.988 -54.408  14.505  1.00  0.00     0.277 A 
HETATM    8  O   UNL     1     -44.937 -54.946  15.067  1.00  0.00    -0.266 OA
ENDROOT
BRANCH   1   9
HETATM    9  C   UNL     1     -45.505 -53.289  12.901  1.00  0.00     0.189 C 
BRANCH   9  10
HETATM   10  C   UNL     1     -45.920 -51.827  13.149  1.00  0.00     0.171 C 
BRANCH  10  11
HETATM   11  O   UNL     1     -44.989 -50.936  12.517  1.00  0.00    -0.389 OA
HETATM   12  H   UNL     1     -45.224 -50.042  12.838  1.00  0.00     0.210 HD
ENDBRANCH  10  11
BRANCH  10  13
HETATM   13  C   UNL     1     -45.991 -51.450  14.611  1.00  0.00    -0.028 A 
HETATM   14  C   UNL     1     -47.165 -51.694  15.341  1.00  0.00     0.013 A 
HETATM   15  C   UNL     1     -47.275 -51.276  16.668  1.00  0.00     0.043 A 
HETATM   16  C   UNL     1     -46.210 -50.620  17.271  1.00  0.00     0.116 A 
HETATM   17  F   UNL     1     -46.326 -50.197  18.537  1.00  0.00    -0.206 F 
HETATM   18  C   UNL     1     -45.029 -50.387  16.577  1.00  0.00     0.043 A 
HETATM   19  C   UNL     1     -44.919 -50.801  15.248  1.00  0.00     0.013 A 
ENDBRANCH  10  13
ENDBRANCH   9  10
ENDBRANCH   1   9
BRANCH   4  20
HETATM   20  C   UNL     1     -40.817 -52.668  12.317  1.00  0.00     0.037 A 
HETATM   21  C   UNL     1     -39.952 -51.617  12.983  1.00  0.00     0.011 A 
HETATM   22  C   UNL     1     -40.830 -51.238  11.830  1.00  0.00     0.011 A 
ENDBRANCH   4  20
BRANCH   6  23
HETATM   23  C   UNL     1     -42.360 -55.616  16.034  1.00  0.00     0.422 C 
HETATM   24  F   UNL     1     -42.753 -56.898  15.855  1.00  0.00    -0.166 F 
HETATM   25  F   UNL     1     -41.031 -55.670  16.335  1.00  0.00    -0.166 F 
HETATM   26  F   UNL     1     -42.974 -55.175  17.166  1.00  0.00    -0.166 F 
ENDBRANCH   6  23
TORSDOF 6
ENDMDL
MODEL 6
REMARK VINA RESULT:      -6.5      2.933      7.808
REMARK  6 active torsions:
REMARK  status: ('A' for Active; 'I' for Inactive)
REMARK    1  A    between atoms: O_1  and  C_2 
REMARK    2  A    between atoms: C_2  and  C_3 
REMARK    3  A    between atoms: C_2  and  C_19 
REMARK    4  A    between atoms: C_3  and  N_4 
REMARK    5  A    between atoms: C_7  and  C_16 
REMARK    6  A    between atoms: C_9  and  C_12 
ROOT
HETATM    1  N   UNL     1     -41.025 -51.561  12.053  1.00  0.00    -0.254 N 
HETATM    2  N   UNL     1     -42.364 -51.831  11.925  1.00  0.00    -0.299 N 
ATOM      3  HN  UNL     1     -42.978 -51.230  11.375  1.00  0.00     0.187 HD
HETATM    4  C   UNL     1     -42.814 -52.879  12.529  1.00  0.00     0.031 A 
HETATM    5  C   UNL     1     -42.015 -53.790  13.355  1.00  0.00     0.049 A 
HETATM    6  C   UNL     1     -40.723 -53.472  13.538  1.00  0.00     0.119 A 
HETATM    7  C   UNL     1     -40.153 -52.283  12.871  1.00  0.00     0.277 A 
HETATM    8  O   UNL     1     -38.986 -51.947  13.044  1.00  0.00    -0.266 OA
ENDROOT
BRANCH   1   9
HETATM    9  C   UNL     1     -40.569 -50.301  11.447  1.00  0.00     0.189 C 
BRANCH   9  10
HETATM   10  C   UNL     1     -41.479 -49.145  11.901  1.00  0.00     0.171 C 
BRANCH  10  11
HETATM   11  O   UNL     1     -42.558 -48.972  10.970  1.00  0.00    -0.389 OA
HETATM   12  H   UNL     1     -43.003 -49.842  10.920  1.00  0.00     0.210 HD
ENDBRANCH  10  11
BRANCH  10  13
HETATM   13  C   UNL     1     -40.767 -47.817  12.024  1.00  0.00    -0.028 A 
HETATM   14  C   UNL     1     -40.167 -47.455  13.241  1.00  0.00     0.013 A 
HETATM   15  C   UNL     1     -39.579 -46.198  13.396  1.00  0.00     0.043 A 
HETATM   16  C   UNL     1     -39.583 -45.304  12.333  1.00  0.00     0.116 A 
HETATM   17  F   UNL     1     -39.041 -44.089  12.491  1.00  0.00    -0.206 F 
HETATM   18  C   UNL     1     -40.150 -45.647  11.113  1.00  0.00     0.043 A 
HETATM   19  C   UNL     1     -40.742 -46.902  10.957  1.00  0.00     0.013 A 
ENDBRANCH  10  13
ENDBRANCH   9  10
ENDBRANCH   1   9
BRANCH   4  20
HETATM   20  C   UNL     1     -44.255 -53.177  12.369  1.00  0.00     0.037 A 
HETATM   21  C   UNL     1     -45.229 -52.563  13.354  1.00  0.00     0.011 A 
HETATM   22  C   UNL     1     -45.025 -54.046  13.336  1.00  0.00     0.011 A 
ENDBRANCH   4  20
BRANCH   6  23
HETATM   23  C   UNL     1     -39.840 -54.272  14.418  1.00  0.00     0.422 C 
HETATM   24  F   UNL     1     -39.071 -53.589  15.297  1.00  0.00    -0.166 F 
HETATM   25  F   UNL     1     -40.580 -55.141  15.165  1.00  0.00    -0.166 F 
HETATM   26  F   UNL     1     -38.995 -55.046  13.684  1.00  0.00    -0.166 F 
ENDBRANCH   6  23
TORSDOF 6
ENDMDL
MODEL 7
REMARK VINA RESULT:      -6.5      2.746      4.443
REMARK  6 active torsions:
REMARK  status: ('A' for Active; 'I' for Inactive)
REMARK    1  A    between atoms: O_1  and  C_2 
REMARK    2  A    between atoms: C_2  and  C_3 
REMARK    3  A    between atoms: C_2  and  C_19 
REMARK    4  A    between atoms: C_3  and  N_4 
REMARK    5  A    between atoms: C_7  and  C_16 
REMARK    6  A    between atoms: C_9  and  C_12 
ROOT
HETATM    1  N   UNL     1     -41.301 -48.585  11.132  1.00  0.00    -0.254 N 
HETATM    2  N   UNL     1     -42.592 -48.564  10.666  1.00  0.00    -0.299 N 
ATOM      3  HN  UNL     1     -43.131 -49.422  10.556  1.00  0.00     0.187 HD
HETATM    4  C   UNL     1     -43.093 -47.412  10.373  1.00  0.00     0.031 A 
HETATM    5  C   UNL     1     -42.390 -46.129  10.479  1.00  0.00     0.049 A 
HETATM    6  C   UNL     1     -41.104 -46.168  10.861  1.00  0.00     0.119 A 
HETATM    7  C   UNL     1     -40.476 -47.460  11.209  1.00  0.00     0.277 A 
HETATM    8  O   UNL     1     -39.293 -47.535  11.529  1.00  0.00    -0.266 OA
ENDROOT
BRANCH   1   9
HETATM    9  C   UNL     1     -40.723 -49.919  11.348  1.00  0.00     0.189 C 
BRANCH   9  10
HETATM   10  C   UNL     1     -41.634 -50.736  12.283  1.00  0.00     0.171 C 
BRANCH  10  11
HETATM   11  O   UNL     1     -42.126 -49.904  13.344  1.00  0.00    -0.389 OA
HETATM   12  H   UNL     1     -41.543 -50.082  14.109  1.00  0.00     0.210 HD
ENDBRANCH  10  11
BRANCH  10  13
HETATM   13  C   UNL     1     -40.950 -51.925  12.919  1.00  0.00    -0.028 A 
HETATM   14  C   UNL     1     -39.761 -51.745  13.644  1.00  0.00     0.013 A 
HETATM   15  C   UNL     1     -39.074 -52.842  14.165  1.00  0.00     0.043 A 
HETATM   16  C   UNL     1     -39.577 -54.122  13.970  1.00  0.00     0.116 A 
HETATM   17  F   UNL     1     -38.904 -55.176  14.449  1.00  0.00    -0.206 F 
HETATM   18  C   UNL     1     -40.763 -54.325  13.275  1.00  0.00     0.043 A 
HETATM   19  C   UNL     1     -41.449 -53.229  12.750  1.00  0.00     0.013 A 
ENDBRANCH  10  13
ENDBRANCH   9  10
ENDBRANCH   1   9
BRANCH   4  20
HETATM   20  C   UNL     1     -44.493 -47.394   9.891  1.00  0.00     0.037 A 
HETATM   21  C   UNL     1     -44.755 -47.722   8.436  1.00  0.00     0.011 A 
HETATM   22  C   UNL     1     -45.021 -46.340   8.947  1.00  0.00     0.011 A 
ENDBRANCH   4  20
BRANCH   6  23
HETATM   23  C   UNL     1     -40.270 -44.945  10.925  1.00  0.00     0.422 C 
HETATM   24  F   UNL     1     -39.277 -44.834  10.013  1.00  0.00    -0.166 F 
HETATM   25  F   UNL     1     -41.048 -43.836  10.768  1.00  0.00    -0.166 F 
HETATM   26  F   UNL     1     -39.691 -44.817  12.149  1.00  0.00    -0.166 F 
ENDBRANCH   6  23
TORSDOF 6
ENDMDL
MODEL 8
REMARK VINA RESULT:      -6.5      2.398      7.922
REMARK  6 active torsions:
REMARK  status: ('A' for Active; 'I' for Inactive)
REMARK    1  A    between atoms: O_1  and  C_2 
REMARK    2  A    between atoms: C_2  and  C_3 
REMARK    3  A    between atoms: C_2  and  C_19 
REMARK    4  A    between atoms: C_3  and  N_4 
REMARK    5  A    between atoms: C_7  and  C_16 
REMARK    6  A    between atoms: C_9  and  C_12 
ROOT
HETATM    1  N   UNL     1     -42.233 -50.503  12.889  1.00  0.00    -0.254 N 
HETATM    2  N   UNL     1     -43.600 -50.403  12.940  1.00  0.00    -0.299 N 
ATOM      3  HN  UNL     1     -44.073 -49.509  12.808  1.00  0.00     0.187 HD
HETATM    4  C   UNL     1     -44.262 -51.488  13.163  1.00  0.00     0.031 A 
HETATM    5  C   UNL     1     -43.671 -52.812  13.384  1.00  0.00     0.049 A 
HETATM    6  C   UNL     1     -42.331 -52.884  13.409  1.00  0.00     0.119 A 
HETATM    7  C   UNL     1     -41.520 -51.673  13.162  1.00  0.00     0.277 A 
HETATM    8  O   UNL     1     -40.294 -51.698  13.213  1.00  0.00    -0.266 OA
ENDROOT
BRANCH   1   9
HETATM    9  C   UNL     1     -41.506 -49.232  12.748  1.00  0.00     0.189 C 
BRANCH   9  10
HETATM   10  C   UNL     1     -41.782 -48.626  11.360  1.00  0.00     0.171 C 
BRANCH  10  11
HETATM   11  O   UNL     1     -41.017 -49.314  10.359  1.00  0.00    -0.389 OA
HETATM   12  H   UNL     1     -41.153 -50.267  10.535  1.00  0.00     0.210 HD
ENDBRANCH  10  11
BRANCH  10  13
HETATM   13  C   UNL     1     -41.447 -47.155  11.256  1.00  0.00    -0.028 A 
HETATM   14  C   UNL     1     -42.478 -46.201  11.247  1.00  0.00     0.013 A 
HETATM   15  C   UNL     1     -42.191 -44.848  11.068  1.00  0.00     0.043 A 
HETATM   16  C   UNL     1     -40.872 -44.442  10.906  1.00  0.00     0.116 A 
HETATM   17  F   UNL     1     -40.600 -43.145  10.709  1.00  0.00    -0.206 F 
HETATM   18  C   UNL     1     -39.833 -45.363  10.935  1.00  0.00     0.043 A 
HETATM   19  C   UNL     1     -40.119 -46.718  11.109  1.00  0.00     0.013 A 
ENDBRANCH  10  13
ENDBRANCH   9  10
ENDBRANCH   1   9
BRANCH   4  20
HETATM   20  C   UNL     1     -45.738 -51.377  13.195  1.00  0.00     0.037 A 
HETATM   21  C   UNL     1     -46.423 -51.312  14.544  1.00  0.00     0.011 A 
HETATM   22  C   UNL     1     -46.634 -52.501  13.658  1.00  0.00     0.011 A 
ENDBRANCH   4  20
BRANCH   6  23
HETATM   23  C   UNL     1     -41.623 -54.151  13.706  1.00  0.00     0.422 C 
HETATM   24  F   UNL     1     -40.623 -54.095  14.615  1.00  0.00    -0.166 F 
HETATM   25  F   UNL     1     -42.501 -55.084  14.173  1.00  0.00    -0.166 F 
HETATM   26  F   UNL     1     -41.089 -54.685  12.574  1.00  0.00    -0.166 F 
ENDBRANCH   6  23
TORSDOF 6
ENDMDL
MODEL 9
REMARK VINA RESULT:      -6.3      2.973      4.324
REMARK  6 active torsions:
REMARK  status: ('A' for Active; 'I' for Inactive)
REMARK    1  A    between atoms: O_1  and  C_2 
REMARK    2  A    between atoms: C_2  and  C_3 
REMARK    3  A    between atoms: C_2  and  C_19 
REMARK    4  A    between atoms: C_3  and  N_4 
REMARK    5  A    between atoms: C_7  and  C_16 
REMARK    6  A    between atoms: C_9  and  C_12 
ROOT
HETATM    1  N   UNL     1     -41.342 -51.071  12.054  1.00  0.00    -0.254 N 
HETATM    2  N   UNL     1     -42.035 -50.002  11.545  1.00  0.00    -0.299 N 
ATOM      3  HN  UNL     1     -43.035 -50.060  11.352  1.00  0.00     0.187 HD
HETATM    4  C   UNL     1     -41.368 -48.921  11.321  1.00  0.00     0.031 A 
HETATM    5  C   UNL     1     -39.929 -48.750  11.548  1.00  0.00     0.049 A 
HETATM    6  C   UNL     1     -39.247 -49.825  11.972  1.00  0.00     0.119 A 
HETATM    7  C   UNL     1     -39.958 -51.092  12.244  1.00  0.00     0.277 A 
HETATM    8  O   UNL     1     -39.359 -52.102  12.600  1.00  0.00    -0.266 OA
ENDROOT
BRANCH   1   9
HETATM    9  C   UNL     1     -42.107 -52.320  12.191  1.00  0.00     0.189 C 
BRANCH   9  10
HETATM   10  C   UNL     1     -42.453 -52.559  13.672  1.00  0.00     0.171 C 
BRANCH  10  11
HETATM   11  O   UNL     1     -42.369 -53.959  13.979  1.00  0.00    -0.389 OA
HETATM   12  H   UNL     1     -41.618 -54.297  13.451  1.00  0.00     0.210 HD
ENDBRANCH  10  11
BRANCH  10  13
HETATM   13  C   UNL     1     -43.837 -52.091  14.061  1.00  0.00    -0.028 A 
HETATM   14  C   UNL     1     -44.081 -51.633  15.366  1.00  0.00     0.013 A 
HETATM   15  C   UNL     1     -45.370 -51.277  15.764  1.00  0.00     0.043 A 
HETATM   16  C   UNL     1     -46.418 -51.369  14.857  1.00  0.00     0.116 A 
HETATM   17  F   UNL     1     -47.659 -51.051  15.247  1.00  0.00    -0.206 F 
HETATM   18  C   UNL     1     -46.199 -51.798  13.554  1.00  0.00     0.043 A 
HETATM   19  C   UNL     1     -44.911 -52.159  13.155  1.00  0.00     0.013 A 
ENDBRANCH  10  13
ENDBRANCH   9  10
ENDBRANCH   1   9
BRANCH   4  20
HETATM   20  C   UNL     1     -42.125 -47.764  10.792  1.00  0.00     0.037 A 
HETATM   21  C   UNL     1     -42.783 -46.825  11.782  1.00  0.00     0.011 A 
HETATM   22  C   UNL     1     -43.630 -47.663  10.875  1.00  0.00     0.011 A 
ENDBRANCH   4  20
BRANCH   6  23
HETATM   23  C   UNL     1     -37.777 -49.795  12.156  1.00  0.00     0.422 C 
HETATM   24  F   UNL     1     -37.291 -48.906  13.053  1.00  0.00    -0.166 F 
HETATM   25  F   UNL     1     -37.327 -51.017  12.560  1.00  0.00    -0.166 F 
HETATM   26  F   UNL     1     -37.145 -49.543  10.978  1.00  0.00    -0.166 F 
ENDBRANCH   6  23
TORSDOF 6
ENDMDL
