MODEL 1
REMARK VINA RESULT:      -4.3      0.000      0.000
REMARK  4 active torsions:
REMARK  status: ('A' for Active; 'I' for Inactive)
REMARK    1  A    between atoms: C_4  and  C_8 
REMARK    2  A    between atoms: C_8  and  O_9 
REMARK    3  A    between atoms: C_8  and  C_10 
REMARK    4  A    between atoms: C_10  and  N_11 
ROOT
HETATM    1  C   UNL     1     -41.627 -48.002  11.218  1.00  0.00     0.177 C 
HETATM    2  N   UNL     1     -42.717 -47.599  10.364  1.00  0.00    -0.307 N 
HETATM    3  C   UNL     1     -44.043 -47.852  10.554  1.00  0.00     0.120 A 
HETATM    4  C   UNL     1     -44.705 -47.303   9.469  1.00  0.00     0.006 A 
HETATM    5  C   UNL     1     -43.666 -46.738   8.694  1.00  0.00     0.118 A 
HETATM    6  N   UNL     1     -42.462 -46.899   9.245  1.00  0.00    -0.310 N 
ATOM      7  HN  UNL     1     -41.561 -46.568   8.900  1.00  0.00     0.186 HD
ENDROOT
BRANCH   4   8
HETATM    8  C   UNL     1     -46.166 -47.296   9.167  1.00  0.00     0.181 C 
BRANCH   8   9
HETATM    9  O   UNL     1     -46.501 -46.184   8.328  1.00  0.00    -0.389 OA
HETATM   10  H   UNL     1     -46.370 -46.481   7.413  1.00  0.00     0.210 HD
ENDBRANCH   8   9
BRANCH   8  11
HETATM   11  C   UNL     1     -46.611 -48.636   8.517  1.00  0.00     0.303 C 
BRANCH  11  12
HETATM   12  N   UNL     1     -46.045 -48.856   7.179  1.00  0.00     0.081 N 
HETATM   13  H   UNL     1     -45.109 -49.252   7.262  1.00  0.00     0.312 HD
HETATM   14  H   UNL     1     -45.938 -47.959   6.704  1.00  0.00     0.312 HD
ENDBRANCH  11  12
ENDBRANCH   8  11
ENDBRANCH   4   8
TORSDOF 4
ENDMDL
MODEL 2
REMARK VINA RESULT:      -4.2      2.297      4.203
REMARK  4 active torsions:
REMARK  status: ('A' for Active; 'I' for Inactive)
REMARK    1  A    between atoms: C_4  and  C_8 
REMARK    2  A    between atoms: C_8  and  O_9 
REMARK    3  A    between atoms: C_8  and  C_10 
REMARK    4  A    between atoms: C_10  and  N_11 
ROOT
HETATM    1  C   UNL     1     -46.826 -48.172   8.821  1.00  0.00     0.177 C 
HETATM    2  N   UNL     1     -45.414 -47.881   8.832  1.00  0.00    -0.307 N 
HETATM    3  C   UNL     1     -44.680 -47.418   9.884  1.00  0.00     0.120 A 
HETATM    4  C   UNL     1     -43.387 -47.259   9.418  1.00  0.00     0.006 A 
HETATM    5  C   UNL     1     -43.465 -47.667   8.066  1.00  0.00     0.118 A 
HETATM    6  N   UNL     1     -44.689 -48.064   7.715  1.00  0.00    -0.310 N 
ATOM      7  HN  UNL     1     -45.001 -48.422   6.812  1.00  0.00     0.186 HD
ENDROOT
BRANCH   4   8
HETATM    8  C   UNL     1     -42.179 -46.773  10.148  1.00  0.00     0.181 C 
BRANCH   8   9
HETATM    9  O   UNL     1     -41.597 -45.654   9.469  1.00  0.00    -0.389 OA
HETATM   10  H   UNL     1     -40.818 -45.994   8.998  1.00  0.00     0.210 HD
ENDBRANCH   8   9
BRANCH   8  11
HETATM   11  C   UNL     1     -42.520 -46.414  11.621  1.00  0.00     0.303 C 
BRANCH  11  12
HETATM   12  N   UNL     1     -42.778 -44.983  11.832  1.00  0.00     0.081 N 
HETATM   13  H   UNL     1     -43.100 -44.828  12.786  1.00  0.00     0.312 HD
HETATM   14  H   UNL     1     -43.536 -44.681  11.219  1.00  0.00     0.312 HD
ENDBRANCH  11  12
ENDBRANCH   8  11
ENDBRANCH   4   8
TORSDOF 4
ENDMDL
MODEL 3
REMARK VINA RESULT:      -4.0     22.513     23.877
REMARK  4 active torsions:
REMARK  status: ('A' for Active; 'I' for Inactive)
REMARK    1  A    between atoms: C_4  and  C_8 
REMARK    2  A    between atoms: C_8  and  O_9 
REMARK    3  A    between atoms: C_8  and  C_10 
REMARK    4  A    between atoms: C_10  and  N_11 
ROOT
HETATM    1  C   UNL     1     -30.450 -63.383  15.569  1.00  0.00     0.177 C 
HETATM    2  N   UNL     1     -29.018 -63.224  15.490  1.00  0.00    -0.307 N 
HETATM    3  C   UNL     1     -28.319 -62.056  15.551  1.00  0.00     0.120 A 
HETATM    4  C   UNL     1     -26.985 -62.391  15.401  1.00  0.00     0.006 A 
HETATM    5  C   UNL     1     -27.006 -63.798  15.263  1.00  0.00     0.118 A 
HETATM    6  N   UNL     1     -28.237 -64.307  15.338  1.00  0.00    -0.310 N 
ATOM      7  HN  UNL     1     -28.518 -65.286  15.290  1.00  0.00     0.186 HD
ENDROOT
BRANCH   4   8
HETATM    8  C   UNL     1     -25.788 -61.499  15.384  1.00  0.00     0.181 C 
BRANCH   8   9
HETATM    9  O   UNL     1     -26.138 -60.198  14.897  1.00  0.00    -0.389 OA
HETATM   10  H   UNL     1     -26.798 -60.335  14.197  1.00  0.00     0.210 HD
ENDBRANCH   8   9
BRANCH   8  11
HETATM   11  C   UNL     1     -25.135 -61.409  16.791  1.00  0.00     0.303 C 
BRANCH  11  12
HETATM   12  N   UNL     1     -25.901 -60.591  17.742  1.00  0.00     0.081 N 
HETATM   13  H   UNL     1     -26.858 -60.938  17.801  1.00  0.00     0.312 HD
HETATM   14  H   UNL     1     -25.961 -59.634  17.395  1.00  0.00     0.312 HD
ENDBRANCH  11  12
ENDBRANCH   8  11
ENDBRANCH   4   8
TORSDOF 4
ENDMDL
MODEL 4
REMARK VINA RESULT:      -3.8      6.962      8.401
REMARK  4 active torsions:
REMARK  status: ('A' for Active; 'I' for Inactive)
REMARK    1  A    between atoms: C_4  and  C_8 
REMARK    2  A    between atoms: C_8  and  O_9 
REMARK    3  A    between atoms: C_8  and  C_10 
REMARK    4  A    between atoms: C_10  and  N_11 
ROOT
HETATM    1  C   UNL     1     -45.884 -53.374  14.003  1.00  0.00     0.177 C 
HETATM    2  N   UNL     1     -44.549 -53.221  13.478  1.00  0.00    -0.307 N 
HETATM    3  C   UNL     1     -43.562 -54.160  13.462  1.00  0.00     0.120 A 
HETATM    4  C   UNL     1     -42.455 -53.554  12.893  1.00  0.00     0.006 A 
HETATM    5  C   UNL     1     -42.904 -52.245  12.601  1.00  0.00     0.118 A 
HETATM    6  N   UNL     1     -44.179 -52.048  12.936  1.00  0.00    -0.310 N 
ATOM      7  HN  UNL     1     -44.741 -51.206  12.810  1.00  0.00     0.186 HD
ENDROOT
BRANCH   4   8
HETATM    8  C   UNL     1     -41.100 -54.124  12.639  1.00  0.00     0.181 C 
BRANCH   8   9
HETATM    9  O   UNL     1     -40.464 -53.445  11.550  1.00  0.00    -0.389 OA
HETATM   10  H   UNL     1     -41.110 -53.424  10.825  1.00  0.00     0.210 HD
ENDBRANCH   8   9
BRANCH   8  11
HETATM   11  C   UNL     1     -40.219 -54.071  13.918  1.00  0.00     0.303 C 
BRANCH  11  12
HETATM   12  N   UNL     1     -38.945 -54.792  13.785  1.00  0.00     0.081 N 
HETATM   13  H   UNL     1     -38.333 -54.294  13.140  1.00  0.00     0.312 HD
HETATM   14  H   UNL     1     -39.117 -55.709  13.370  1.00  0.00     0.312 HD
ENDBRANCH  11  12
ENDBRANCH   8  11
ENDBRANCH   4   8
TORSDOF 4
ENDMDL
MODEL 5
REMARK VINA RESULT:      -3.8      7.733      9.079
REMARK  4 active torsions:
REMARK  status: ('A' for Active; 'I' for Inactive)
REMARK    1  A    between atoms: C_4  and  C_8 
REMARK    2  A    between atoms: C_8  and  O_9 
REMARK    3  A    between atoms: C_8  and  C_10 
REMARK    4  A    between atoms: C_10  and  N_11 
ROOT
HETATM    1  C   UNL     1     -38.206 -55.594  16.093  1.00  0.00     0.177 C 
HETATM    2  N   UNL     1     -39.235 -54.935  15.328  1.00  0.00    -0.307 N 
HETATM    3  C   UNL     1     -39.066 -54.185  14.202  1.00  0.00     0.120 A 
HETATM    4  C   UNL     1     -40.324 -53.734  13.841  1.00  0.00     0.006 A 
HETATM    5  C   UNL     1     -41.174 -54.286  14.827  1.00  0.00     0.118 A 
HETATM    6  N   UNL     1     -40.518 -55.032  15.717  1.00  0.00    -0.310 N 
ATOM      7  HN  UNL     1     -40.900 -55.552  16.507  1.00  0.00     0.186 HD
ENDROOT
BRANCH   4   8
HETATM    8  C   UNL     1     -40.716 -52.868  12.690  1.00  0.00     0.181 C 
BRANCH   8   9
HETATM    9  O   UNL     1     -40.498 -53.551  11.450  1.00  0.00    -0.389 OA
HETATM   10  H   UNL     1     -40.441 -52.865  10.765  1.00  0.00     0.210 HD
ENDBRANCH   8   9
BRANCH   8  11
HETATM   11  C   UNL     1     -42.193 -52.402  12.816  1.00  0.00     0.303 C 
BRANCH  11  12
HETATM   12  N   UNL     1     -43.030 -52.789  11.671  1.00  0.00     0.081 N 
HETATM   13  H   UNL     1     -42.631 -52.416  10.811  1.00  0.00     0.312 HD
HETATM   14  H   UNL     1     -43.954 -52.366  11.769  1.00  0.00     0.312 HD
ENDBRANCH  11  12
ENDBRANCH   8  11
ENDBRANCH   4   8
TORSDOF 4
ENDMDL
MODEL 6
REMARK VINA RESULT:      -3.8      5.616      6.757
REMARK  4 active torsions:
REMARK  status: ('A' for Active; 'I' for Inactive)
REMARK    1  A    between atoms: C_4  and  C_8 
REMARK    2  A    between atoms: C_8  and  O_9 
REMARK    3  A    between atoms: C_8  and  C_10 
REMARK    4  A    between atoms: C_10  and  N_11 
ROOT
HETATM    1  C   UNL     1     -45.478 -51.252  14.804  1.00  0.00     0.177 C 
HETATM    2  N   UNL     1     -44.462 -51.741  13.905  1.00  0.00    -0.307 N 
HETATM    3  C   UNL     1     -43.236 -51.192  13.675  1.00  0.00     0.120 A 
HETATM    4  C   UNL     1     -42.626 -51.983  12.718  1.00  0.00     0.006 A 
HETATM    5  C   UNL     1     -43.585 -52.988  12.453  1.00  0.00     0.118 A 
HETATM    6  N   UNL     1     -44.691 -52.855  13.187  1.00  0.00    -0.310 N 
ATOM      7  HN  UNL     1     -45.515 -53.455  13.200  1.00  0.00     0.186 HD
ENDROOT
BRANCH   4   8
HETATM    8  C   UNL     1     -41.278 -51.834  12.096  1.00  0.00     0.181 C 
BRANCH   8   9
HETATM    9  O   UNL     1     -41.185 -52.617  10.901  1.00  0.00    -0.389 OA
HETATM   10  H   UNL     1     -41.857 -52.269  10.292  1.00  0.00     0.210 HD
ENDBRANCH   8   9
BRANCH   8  11
HETATM   11  C   UNL     1     -40.954 -50.341  11.809  1.00  0.00     0.303 C 
BRANCH  11  12
HETATM   12  N   UNL     1     -40.489 -50.095  10.437  1.00  0.00     0.081 N 
HETATM   13  H   UNL     1     -40.926 -49.249  10.072  1.00  0.00     0.312 HD
HETATM   14  H   UNL     1     -40.792 -50.860   9.834  1.00  0.00     0.312 HD
ENDBRANCH  11  12
ENDBRANCH   8  11
ENDBRANCH   4   8
TORSDOF 4
ENDMDL
MODEL 7
REMARK VINA RESULT:      -3.7      2.255      2.788
REMARK  4 active torsions:
REMARK  status: ('A' for Active; 'I' for Inactive)
REMARK    1  A    between atoms: C_4  and  C_8 
REMARK    2  A    between atoms: C_8  and  O_9 
REMARK    3  A    between atoms: C_8  and  C_10 
REMARK    4  A    between atoms: C_10  and  N_11 
ROOT
HETATM    1  C   UNL     1     -40.744 -49.056  12.388  1.00  0.00     0.177 C 
HETATM    2  N   UNL     1     -41.178 -47.969  11.544  1.00  0.00    -0.307 N 
HETATM    3  C   UNL     1     -42.312 -47.920  10.789  1.00  0.00     0.120 A 
HETATM    4  C   UNL     1     -42.289 -46.704  10.130  1.00  0.00     0.006 A 
HETATM    5  C   UNL     1     -41.090 -46.103  10.576  1.00  0.00     0.118 A 
HETATM    6  N   UNL     1     -40.425 -46.860  11.450  1.00  0.00    -0.310 N 
ATOM      7  HN  UNL     1     -39.551 -46.647  11.932  1.00  0.00     0.186 HD
ENDROOT
BRANCH   4   8
HETATM    8  C   UNL     1     -43.282 -46.138   9.170  1.00  0.00     0.181 C 
BRANCH   8   9
HETATM    9  O   UNL     1     -42.717 -46.044   7.858  1.00  0.00    -0.389 OA
HETATM   10  H   UNL     1     -42.198 -46.854   7.724  1.00  0.00     0.210 HD
ENDBRANCH   8   9
BRANCH   8  11
HETATM   11  C   UNL     1     -44.589 -46.979   9.153  1.00  0.00     0.303 C 
BRANCH  11  12
HETATM   12  N   UNL     1     -45.787 -46.195   8.820  1.00  0.00     0.081 N 
HETATM   13  H   UNL     1     -45.577 -45.200   8.889  1.00  0.00     0.312 HD
HETATM   14  H   UNL     1     -46.518 -46.384   9.507  1.00  0.00     0.312 HD
ENDBRANCH  11  12
ENDBRANCH   8  11
ENDBRANCH   4   8
TORSDOF 4
ENDMDL
MODEL 8
REMARK VINA RESULT:      -3.7      5.111      6.235
REMARK  4 active torsions:
REMARK  status: ('A' for Active; 'I' for Inactive)
REMARK    1  A    between atoms: C_4  and  C_8 
REMARK    2  A    between atoms: C_8  and  O_9 
REMARK    3  A    between atoms: C_8  and  C_10 
REMARK    4  A    between atoms: C_10  and  N_11 
ROOT
HETATM    1  C   UNL     1     -39.327 -45.010  13.465  1.00  0.00     0.177 C 
HETATM    2  N   UNL     1     -39.710 -46.145  12.662  1.00  0.00    -0.307 N 
HETATM    3  C   UNL     1     -39.356 -47.446  12.859  1.00  0.00     0.120 A 
HETATM    4  C   UNL     1     -39.929 -48.168  11.827  1.00  0.00     0.006 A 
HETATM    5  C   UNL     1     -40.613 -47.187  11.072  1.00  0.00     0.118 A 
HETATM    6  N   UNL     1     -40.498 -45.963  11.588  1.00  0.00    -0.310 N 
ATOM      7  HN  UNL     1     -40.911 -45.094  11.248  1.00  0.00     0.186 HD
ENDROOT
BRANCH   4   8
HETATM    8  C   UNL     1     -39.857 -49.633  11.553  1.00  0.00     0.181 C 
BRANCH   8   9
HETATM    9  O   UNL     1     -40.344 -49.924  10.238  1.00  0.00    -0.389 OA
HETATM   10  H   UNL     1     -39.822 -50.676   9.912  1.00  0.00     0.210 HD
ENDBRANCH   8   9
BRANCH   8  11
HETATM   11  C   UNL     1     -38.411 -50.170  11.742  1.00  0.00     0.303 C 
BRANCH  11  12
HETATM   12  N   UNL     1     -37.569 -50.020  10.546  1.00  0.00     0.081 N 
HETATM   13  H   UNL     1     -38.110 -49.591   9.796  1.00  0.00     0.312 HD
HETATM   14  H   UNL     1     -37.290 -50.943  10.211  1.00  0.00     0.312 HD
ENDBRANCH  11  12
ENDBRANCH   8  11
ENDBRANCH   4   8
TORSDOF 4
ENDMDL
MODEL 9
REMARK VINA RESULT:      -3.7      2.205      2.699
REMARK  4 active torsions:
REMARK  status: ('A' for Active; 'I' for Inactive)
REMARK    1  A    between atoms: C_4  and  C_8 
REMARK    2  A    between atoms: C_8  and  O_9 
REMARK    3  A    between atoms: C_8  and  C_10 
REMARK    4  A    between atoms: C_10  and  N_11 
ROOT
HETATM    1  C   UNL     1     -42.582 -47.852  13.684  1.00  0.00     0.177 C 
HETATM    2  N   UNL     1     -42.475 -47.864  12.246  1.00  0.00    -0.307 N 
HETATM    3  C   UNL     1     -43.399 -47.410  11.352  1.00  0.00     0.120 A 
HETATM    4  C   UNL     1     -42.878 -47.656  10.094  1.00  0.00     0.006 A 
HETATM    5  C   UNL     1     -41.626 -48.258  10.361  1.00  0.00     0.118 A 
HETATM    6  N   UNL     1     -41.371 -48.366  11.666  1.00  0.00    -0.310 N 
ATOM      7  HN  UNL     1     -40.537 -48.741  12.116  1.00  0.00     0.186 HD
ENDROOT
BRANCH   4   8
HETATM    8  C   UNL     1     -43.475 -47.365   8.757  1.00  0.00     0.181 C 
BRANCH   8   9
HETATM    9  O   UNL     1     -42.914 -48.225   7.758  1.00  0.00    -0.389 OA
HETATM   10  H   UNL     1     -43.333 -47.977   6.917  1.00  0.00     0.210 HD
ENDBRANCH   8   9
BRANCH   8  11
HETATM   11  C   UNL     1     -45.023 -47.492   8.794  1.00  0.00     0.303 C 
BRANCH  11  12
HETATM   12  N   UNL     1     -45.717 -46.197   8.833  1.00  0.00     0.081 N 
HETATM   13  H   UNL     1     -45.110 -45.493   9.250  1.00  0.00     0.312 HD
HETATM   14  H   UNL     1     -46.535 -46.268   9.438  1.00  0.00     0.312 HD
ENDBRANCH  11  12
ENDBRANCH   8  11
ENDBRANCH   4   8
TORSDOF 4
ENDMDL
