MODEL 1
REMARK VINA RESULT:      -4.5      0.000      0.000
REMARK  2 active torsions:
REMARK  status: ('A' for Active; 'I' for Inactive)
REMARK    1  A    between atoms: C_1  and  C_2 
REMARK    2  A    between atoms: C_1  and  N_7 
ROOT
HETATM    1  C   UNL     1     -42.646 -46.472  10.586  1.00  0.00     0.183 C 
ENDROOT
BRANCH   1   2
HETATM    2  C   UNL     1     -43.272 -46.667   9.202  1.00  0.00     0.240 C 
HETATM    3  C   UNL     1     -44.792 -46.855   9.227  1.00  0.00     0.039 C 
HETATM    4  C   UNL     1     -45.079 -47.949   8.202  1.00  0.00     0.032 C 
HETATM    5  C   UNL     1     -43.756 -48.184   7.502  1.00  0.00     0.270 C 
HETATM    6  N   UNL     1     -42.778 -47.896   8.549  1.00  0.00     0.089 N 
HETATM    7  H   UNL     1     -41.860 -47.730   8.135  1.00  0.00     0.316 HD
ENDBRANCH   1   2
BRANCH   1   8
HETATM    8  N   UNL     1     -41.530 -45.545  10.596  1.00  0.00    -0.302 N 
HETATM    9  C   UNL     1     -41.499 -44.310  11.179  1.00  0.00     0.111 A 
HETATM   10  C   UNL     1     -40.224 -43.830  10.993  1.00  0.00     0.037 A 
HETATM   11  C   UNL     1     -39.560 -44.853  10.293  1.00  0.00     0.108 A 
HETATM   12  N   UNL     1     -40.348 -45.904  10.054  1.00  0.00    -0.310 N 
ATOM     13  HN  UNL     1     -40.111 -46.772   9.575  1.00  0.00     0.186 HD
ENDBRANCH   1   8
TORSDOF 2
ENDMDL
MODEL 2
REMARK VINA RESULT:      -4.4      4.262      4.876
REMARK  2 active torsions:
REMARK  status: ('A' for Active; 'I' for Inactive)
REMARK    1  A    between atoms: C_1  and  C_2 
REMARK    2  A    between atoms: C_1  and  N_7 
ROOT
HETATM    1  C   UNL     1     -40.905 -50.195  11.687  1.00  0.00     0.183 C 
ENDROOT
BRANCH   1   2
HETATM    2  C   UNL     1     -41.389 -48.774  11.386  1.00  0.00     0.240 C 
HETATM    3  C   UNL     1     -42.712 -48.409  12.066  1.00  0.00     0.039 C 
HETATM    4  C   UNL     1     -43.500 -47.625  11.021  1.00  0.00     0.032 C 
HETATM    5  C   UNL     1     -42.525 -47.402   9.883  1.00  0.00     0.270 C 
HETATM    6  N   UNL     1     -41.672 -48.587   9.948  1.00  0.00     0.089 N 
HETATM    7  H   UNL     1     -40.805 -48.424   9.436  1.00  0.00     0.316 HD
ENDBRANCH   1   2
BRANCH   1   8
HETATM    8  N   UNL     1     -39.471 -50.291  11.892  1.00  0.00    -0.302 N 
HETATM    9  C   UNL     1     -38.834 -50.953  12.903  1.00  0.00     0.111 A 
HETATM   10  C   UNL     1     -37.488 -50.829  12.653  1.00  0.00     0.037 A 
HETATM   11  C   UNL     1     -37.416 -50.082  11.464  1.00  0.00     0.108 A 
HETATM   12  N   UNL     1     -38.622 -49.757  10.991  1.00  0.00    -0.310 N 
ATOM     13  HN  UNL     1     -38.847 -49.229  10.148  1.00  0.00     0.186 HD
ENDBRANCH   1   8
TORSDOF 2
ENDMDL
MODEL 3
REMARK VINA RESULT:      -4.4      2.589      4.787
REMARK  2 active torsions:
REMARK  status: ('A' for Active; 'I' for Inactive)
REMARK    1  A    between atoms: C_1  and  C_2 
REMARK    2  A    between atoms: C_1  and  N_7 
ROOT
HETATM    1  C   UNL     1     -41.652 -47.003  10.292  1.00  0.00     0.183 C 
ENDROOT
BRANCH   1   2
HETATM    2  C   UNL     1     -41.127 -48.098  11.226  1.00  0.00     0.240 C 
HETATM    3  C   UNL     1     -39.810 -47.744  11.922  1.00  0.00     0.039 C 
HETATM    4  C   UNL     1     -38.982 -49.026  11.894  1.00  0.00     0.032 C 
HETATM    5  C   UNL     1     -39.929 -50.090  11.377  1.00  0.00     0.270 C 
HETATM    6  N   UNL     1     -40.811 -49.337  10.488  1.00  0.00     0.089 N 
HETATM    7  H   UNL     1     -41.663 -49.868  10.308  1.00  0.00     0.316 HD
ENDBRANCH   1   2
BRANCH   1   8
HETATM    8  N   UNL     1     -42.915 -47.333   9.658  1.00  0.00    -0.302 N 
HETATM    9  C   UNL     1     -44.147 -47.344  10.249  1.00  0.00     0.111 A 
HETATM   10  C   UNL     1     -45.046 -47.647   9.254  1.00  0.00     0.037 A 
HETATM   11  C   UNL     1     -44.258 -47.793   8.098  1.00  0.00     0.108 A 
HETATM   12  N   UNL     1     -42.960 -47.596   8.336  1.00  0.00    -0.310 N 
ATOM     13  HN  UNL     1     -42.184 -47.635   7.674  1.00  0.00     0.186 HD
ENDBRANCH   1   8
TORSDOF 2
ENDMDL
MODEL 4
REMARK VINA RESULT:      -4.2      4.735      5.726
REMARK  2 active torsions:
REMARK  status: ('A' for Active; 'I' for Inactive)
REMARK    1  A    between atoms: C_1  and  C_2 
REMARK    2  A    between atoms: C_1  and  N_7 
ROOT
HETATM    1  C   UNL     1     -40.604 -49.942  11.377  1.00  0.00     0.183 C 
ENDROOT
BRANCH   1   2
HETATM    2  C   UNL     1     -41.088 -51.137  12.203  1.00  0.00     0.240 C 
HETATM    3  C   UNL     1     -40.200 -51.463  13.407  1.00  0.00     0.039 C 
HETATM    4  C   UNL     1     -40.116 -52.986  13.446  1.00  0.00     0.032 C 
HETATM    5  C   UNL     1     -41.110 -53.458  12.405  1.00  0.00     0.270 C 
HETATM    6  N   UNL     1     -41.078 -52.385  11.413  1.00  0.00     0.089 N 
HETATM    7  H   UNL     1     -41.906 -52.433  10.819  1.00  0.00     0.316 HD
ENDBRANCH   1   2
BRANCH   1   8
HETATM    8  N   UNL     1     -41.660 -49.011  11.023  1.00  0.00    -0.302 N 
HETATM    9  C   UNL     1     -42.661 -48.565  11.838  1.00  0.00     0.111 A 
HETATM   10  C   UNL     1     -43.378 -47.653  11.100  1.00  0.00     0.037 A 
HETATM   11  C   UNL     1     -42.725 -47.615   9.855  1.00  0.00     0.108 A 
HETATM   12  N   UNL     1     -41.673 -48.435   9.804  1.00  0.00    -0.310 N 
ATOM     13  HN  UNL     1     -41.031 -48.589   9.026  1.00  0.00     0.186 HD
ENDBRANCH   1   8
TORSDOF 2
ENDMDL
MODEL 5
REMARK VINA RESULT:      -4.2      7.301      8.191
REMARK  2 active torsions:
REMARK  status: ('A' for Active; 'I' for Inactive)
REMARK    1  A    between atoms: C_1  and  C_2 
REMARK    2  A    between atoms: C_1  and  N_7 
ROOT
HETATM    1  C   UNL     1     -44.426 -53.230  12.541  1.00  0.00     0.183 C 
ENDROOT
BRANCH   1   2
HETATM    2  C   UNL     1     -45.061 -52.858  13.884  1.00  0.00     0.240 C 
HETATM    3  C   UNL     1     -46.568 -52.594  13.809  1.00  0.00     0.039 C 
HETATM    4  C   UNL     1     -46.811 -51.384  14.708  1.00  0.00     0.032 C 
HETATM    5  C   UNL     1     -45.487 -51.146  15.406  1.00  0.00     0.270 C 
HETATM    6  N   UNL     1     -44.511 -51.594  14.416  1.00  0.00     0.089 N 
HETATM    7  H   UNL     1     -43.610 -51.763  14.863  1.00  0.00     0.316 HD
ENDBRANCH   1   2
BRANCH   1   8
HETATM    8  N   UNL     1     -42.975 -53.226  12.562  1.00  0.00    -0.302 N 
HETATM    9  C   UNL     1     -42.166 -54.052  13.289  1.00  0.00     0.111 A 
HETATM   10  C   UNL     1     -40.876 -53.730  12.940  1.00  0.00     0.037 A 
HETATM   11  C   UNL     1     -41.013 -52.703  11.990  1.00  0.00     0.108 A 
HETATM   12  N   UNL     1     -42.289 -52.396  11.750  1.00  0.00    -0.310 N 
ATOM     13  HN  UNL     1     -42.659 -51.697  11.104  1.00  0.00     0.186 HD
ENDBRANCH   1   8
TORSDOF 2
ENDMDL
MODEL 6
REMARK VINA RESULT:      -4.2      1.439      4.516
REMARK  2 active torsions:
REMARK  status: ('A' for Active; 'I' for Inactive)
REMARK    1  A    between atoms: C_1  and  C_2 
REMARK    2  A    between atoms: C_1  and  N_7 
ROOT
HETATM    1  C   UNL     1     -41.611 -48.297  10.887  1.00  0.00     0.183 C 
ENDROOT
BRANCH   1   2
HETATM    2  C   UNL     1     -40.581 -47.197  11.161  1.00  0.00     0.240 C 
HETATM    3  C   UNL     1     -40.883 -46.358  12.406  1.00  0.00     0.039 C 
HETATM    4  C   UNL     1     -40.554 -44.920  12.012  1.00  0.00     0.032 C 
HETATM    5  C   UNL     1     -39.894 -45.030  10.653  1.00  0.00     0.270 C 
HETATM    6  N   UNL     1     -40.541 -46.203  10.070  1.00  0.00     0.089 N 
HETATM    7  H   UNL     1     -39.988 -46.557   9.290  1.00  0.00     0.316 HD
ENDBRANCH   1   2
BRANCH   1   8
HETATM    8  N   UNL     1     -42.658 -47.897   9.965  1.00  0.00    -0.302 N 
HETATM    9  C   UNL     1     -43.792 -47.198  10.270  1.00  0.00     0.111 A 
HETATM   10  C   UNL     1     -44.447 -46.992   9.079  1.00  0.00     0.037 A 
HETATM   11  C   UNL     1     -43.624 -47.599   8.113  1.00  0.00     0.108 A 
HETATM   12  N   UNL     1     -42.529 -48.146   8.646  1.00  0.00    -0.310 N 
ATOM     13  HN  UNL     1     -41.773 -48.636   8.167  1.00  0.00     0.186 HD
ENDBRANCH   1   8
TORSDOF 2
ENDMDL
MODEL 7
REMARK VINA RESULT:      -4.2      6.486      6.968
REMARK  2 active torsions:
REMARK  status: ('A' for Active; 'I' for Inactive)
REMARK    1  A    between atoms: C_1  and  C_2 
REMARK    2  A    between atoms: C_1  and  N_7 
ROOT
HETATM    1  C   UNL     1     -41.014 -52.958  12.344  1.00  0.00     0.183 C 
ENDROOT
BRANCH   1   2
HETATM    2  C   UNL     1     -42.411 -52.901  12.971  1.00  0.00     0.240 C 
HETATM    3  C   UNL     1     -42.700 -54.043  13.951  1.00  0.00     0.039 C 
HETATM    4  C   UNL     1     -44.141 -54.460  13.669  1.00  0.00     0.032 C 
HETATM    5  C   UNL     1     -44.666 -53.419  12.702  1.00  0.00     0.270 C 
HETATM    6  N   UNL     1     -43.471 -53.038  11.952  1.00  0.00     0.089 N 
HETATM    7  H   UNL     1     -43.623 -52.146  11.480  1.00  0.00     0.316 HD
ENDBRANCH   1   2
BRANCH   1   8
HETATM    8  N   UNL     1     -40.394 -51.656  12.184  1.00  0.00    -0.302 N 
HETATM    9  C   UNL     1     -39.358 -51.149  12.916  1.00  0.00     0.111 A 
HETATM   10  C   UNL     1     -39.065 -49.923  12.367  1.00  0.00     0.037 A 
HETATM   11  C   UNL     1     -39.976 -49.785  11.305  1.00  0.00     0.108 A 
HETATM   12  N   UNL     1     -40.784 -50.840  11.183  1.00  0.00    -0.310 N 
ATOM     13  HN  UNL     1     -41.522 -50.993  10.496  1.00  0.00     0.186 HD
ENDBRANCH   1   8
TORSDOF 2
ENDMDL
MODEL 8
REMARK VINA RESULT:      -4.2      7.166      8.510
REMARK  2 active torsions:
REMARK  status: ('A' for Active; 'I' for Inactive)
REMARK    1  A    between atoms: C_1  and  C_2 
REMARK    2  A    between atoms: C_1  and  N_7 
ROOT
HETATM    1  C   UNL     1     -44.123 -53.814  12.641  1.00  0.00     0.183 C 
ENDROOT
BRANCH   1   2
HETATM    2  C   UNL     1     -42.764 -53.325  13.149  1.00  0.00     0.240 C 
HETATM    3  C   UNL     1     -42.287 -52.024  12.498  1.00  0.00     0.039 C 
HETATM    4  C   UNL     1     -40.793 -52.219  12.252  1.00  0.00     0.032 C 
HETATM    5  C   UNL     1     -40.450 -53.518  12.952  1.00  0.00     0.270 C 
HETATM    6  N   UNL     1     -41.687 -54.288  12.836  1.00  0.00     0.089 N 
HETATM    7  H   UNL     1     -41.690 -55.051  13.512  1.00  0.00     0.316 HD
ENDBRANCH   1   2
BRANCH   1   8
HETATM    8  N   UNL     1     -45.211 -52.892  12.910  1.00  0.00    -0.302 N 
HETATM    9  C   UNL     1     -45.601 -52.424  14.133  1.00  0.00     0.111 A 
HETATM   10  C   UNL     1     -46.619 -51.531  13.895  1.00  0.00     0.037 A 
HETATM   11  C   UNL     1     -46.764 -51.525  12.496  1.00  0.00     0.108 A 
HETATM   12  N   UNL     1     -45.904 -52.347  11.890  1.00  0.00    -0.310 N 
ATOM     13  HN  UNL     1     -45.797 -52.522  10.890  1.00  0.00     0.186 HD
ENDBRANCH   1   8
TORSDOF 2
ENDMDL
MODEL 9
REMARK VINA RESULT:      -4.0      3.950      5.509
REMARK  2 active torsions:
REMARK  status: ('A' for Active; 'I' for Inactive)
REMARK    1  A    between atoms: C_1  and  C_2 
REMARK    2  A    between atoms: C_1  and  N_7 
ROOT
HETATM    1  C   UNL     1     -40.717 -48.597  12.267  1.00  0.00     0.183 C 
ENDROOT
BRANCH   1   2
HETATM    2  C   UNL     1     -39.701 -49.573  11.665  1.00  0.00     0.240 C 
HETATM    3  C   UNL     1     -39.258 -50.681  12.624  1.00  0.00     0.039 C 
HETATM    4  C   UNL     1     -37.757 -50.834  12.398  1.00  0.00     0.032 C 
HETATM    5  C   UNL     1     -37.454 -49.967  11.193  1.00  0.00     0.270 C 
HETATM    6  N   UNL     1     -38.439 -48.894  11.308  1.00  0.00     0.089 N 
HETATM    7  H   UNL     1     -38.538 -48.411  10.415  1.00  0.00     0.316 HD
ENDBRANCH   1   2
BRANCH   1   8
HETATM    8  N   UNL     1     -41.792 -48.241  11.359  1.00  0.00    -0.302 N 
HETATM    9  C   UNL     1     -43.042 -47.811  11.702  1.00  0.00     0.111 A 
HETATM   10  C   UNL     1     -43.688 -47.531  10.522  1.00  0.00     0.037 A 
HETATM   11  C   UNL     1     -42.741 -47.818   9.523  1.00  0.00     0.108 A 
HETATM   12  N   UNL     1     -41.581 -48.244  10.027  1.00  0.00    -0.310 N 
ATOM     13  HN  UNL     1     -40.735 -48.510   9.523  1.00  0.00     0.186 HD
ENDBRANCH   1   8
TORSDOF 2
ENDMDL
