MODEL 1
REMARK VINA RESULT:      -5.7      0.000      0.000
REMARK  5 active torsions:
REMARK  status: ('A' for Active; 'I' for Inactive)
REMARK    1  A    between atoms: N_5  and  C_6 
REMARK    2  A    between atoms: C_6  and  C_7 
REMARK    3  A    between atoms: C_7  and  O_8 
REMARK    4  A    between atoms: C_15  and  C_16 
REMARK    5  A    between atoms: C_16  and  O_18 
ROOT
HETATM    1  C   UNL     1     -37.493 -50.972  12.982  1.00  0.00     0.070 C 
HETATM    2  C   UNL     1     -38.899 -50.829  12.523  1.00  0.00     0.037 A 
HETATM    3  N   UNL     1     -39.227 -49.741  11.809  1.00  0.00    -0.300 N 
ATOM      4  HN  UNL     1     -38.619 -48.976  11.517  1.00  0.00     0.187 HD
HETATM    5  N   UNL     1     -40.546 -49.893  11.566  1.00  0.00    -0.274 N 
HETATM    6  C   UNL     1     -41.060 -51.061  12.063  1.00  0.00     0.136 A 
HETATM    7  N   UNL     1     -42.334 -51.488  11.936  1.00  0.00    -0.344 N 
ATOM      8  HN  UNL     1     -43.045 -50.965  11.426  1.00  0.00     0.167 HD
HETATM    9  C   UNL     1     -42.587 -52.667  12.542  1.00  0.00     0.008 A 
HETATM   10  C   UNL     1     -43.995 -53.186  12.451  1.00  0.00     0.068 C 
HETATM   11  C   UNL     1     -41.632 -53.412  13.231  1.00  0.00     0.044 A 
HETATM   12  C   UNL     1     -40.311 -52.945  13.307  1.00  0.00     0.055 A 
HETATM   13  C   UNL     1     -40.010 -51.706  12.709  1.00  0.00     0.050 A 
ENDROOT
BRANCH   5  14
HETATM   14  C   UNL     1     -41.280 -48.903  10.796  1.00  0.00     0.177 C 
BRANCH  14  15
HETATM   15  C   UNL     1     -41.039 -47.458  11.231  1.00  0.00     0.185 C 
BRANCH  15  16
HETATM   16  O   UNL     1     -39.909 -46.895  10.568  1.00  0.00    -0.399 OA
HETATM   17  H   UNL     1     -40.023 -47.138   9.623  1.00  0.00     0.209 HD
ENDBRANCH  15  16
ENDBRANCH  14  15
ENDBRANCH   5  14
BRANCH  12  18
HETATM   18  C   UNL     1     -39.286 -53.704  14.057  1.00  0.00     0.177 C 
HETATM   19  O   UNL     1     -39.055 -53.533  15.239  1.00  0.00    -0.646 OA
BRANCH  18  20
HETATM   20  O   UNL     1     -38.629 -54.621  13.315  1.00  0.00    -0.773 OA
HETATM   21  H   UNL     1     -39.032 -55.506  13.269  1.00  0.00     0.167 HD
ENDBRANCH  18  20
ENDBRANCH  12  18
TORSDOF 5
ENDMDL
MODEL 2
REMARK VINA RESULT:      -5.7      3.072      4.736
REMARK  5 active torsions:
REMARK  status: ('A' for Active; 'I' for Inactive)
REMARK    1  A    between atoms: N_5  and  C_6 
REMARK    2  A    between atoms: C_6  and  C_7 
REMARK    3  A    between atoms: C_7  and  O_8 
REMARK    4  A    between atoms: C_15  and  C_16 
REMARK    5  A    between atoms: C_16  and  O_18 
ROOT
HETATM    1  C   UNL     1     -41.141 -52.116  11.647  1.00  0.00     0.070 C 
HETATM    2  C   UNL     1     -42.034 -52.904  12.535  1.00  0.00     0.037 A 
HETATM    3  N   UNL     1     -43.346 -52.925  12.259  1.00  0.00    -0.300 N 
ATOM      4  HN  UNL     1     -43.833 -52.467  11.489  1.00  0.00     0.187 HD
HETATM    5  N   UNL     1     -43.875 -53.692  13.237  1.00  0.00    -0.274 N 
HETATM    6  C   UNL     1     -42.939 -54.197  14.099  1.00  0.00     0.136 A 
HETATM    7  N   UNL     1     -43.178 -55.020  15.141  1.00  0.00    -0.344 N 
ATOM      8  HN  UNL     1     -44.110 -55.362  15.374  1.00  0.00     0.167 HD
HETATM    9  C   UNL     1     -42.078 -55.351  15.850  1.00  0.00     0.008 A 
HETATM   10  C   UNL     1     -42.284 -56.252  17.036  1.00  0.00     0.068 C 
HETATM   11  C   UNL     1     -40.791 -54.912  15.546  1.00  0.00     0.044 A 
HETATM   12  C   UNL     1     -40.586 -54.086  14.431  1.00  0.00     0.055 A 
HETATM   13  C   UNL     1     -41.711 -53.696  13.679  1.00  0.00     0.050 A 
ENDROOT
BRANCH   5  14
HETATM   14  C   UNL     1     -45.302 -53.965  13.279  1.00  0.00     0.177 C 
BRANCH  14  15
HETATM   15  C   UNL     1     -46.186 -52.750  13.000  1.00  0.00     0.185 C 
BRANCH  15  16
HETATM   16  O   UNL     1     -46.434 -52.596  11.604  1.00  0.00    -0.399 OA
HETATM   17  H   UNL     1     -46.832 -51.703  11.515  1.00  0.00     0.209 HD
ENDBRANCH  15  16
ENDBRANCH  14  15
ENDBRANCH   5  14
BRANCH  12  18
HETATM   18  C   UNL     1     -39.233 -53.585  14.104  1.00  0.00     0.177 C 
HETATM   19  O   UNL     1     -38.828 -52.484  14.429  1.00  0.00    -0.646 OA
BRANCH  18  20
HETATM   20  O   UNL     1     -38.472 -54.464  13.418  1.00  0.00    -0.773 OA
HETATM   21  H   UNL     1     -38.822 -55.370  13.344  1.00  0.00     0.167 HD
ENDBRANCH  18  20
ENDBRANCH  12  18
TORSDOF 5
ENDMDL
MODEL 3
REMARK VINA RESULT:      -5.5      2.905      4.317
REMARK  5 active torsions:
REMARK  status: ('A' for Active; 'I' for Inactive)
REMARK    1  A    between atoms: N_5  and  C_6 
REMARK    2  A    between atoms: C_6  and  C_7 
REMARK    3  A    between atoms: C_7  and  O_8 
REMARK    4  A    between atoms: C_15  and  C_16 
REMARK    5  A    between atoms: C_16  and  O_18 
ROOT
HETATM    1  C   UNL     1     -45.845 -51.327  13.223  1.00  0.00     0.070 C 
HETATM    2  C   UNL     1     -44.362 -51.327  13.150  1.00  0.00     0.037 A 
HETATM    3  N   UNL     1     -43.741 -50.185  12.817  1.00  0.00    -0.300 N 
ATOM      4  HN  UNL     1     -44.163 -49.280  12.611  1.00  0.00     0.187 HD
HETATM    5  N   UNL     1     -42.431 -50.510  12.819  1.00  0.00    -0.274 N 
HETATM    6  C   UNL     1     -42.192 -51.807  13.185  1.00  0.00     0.136 A 
HETATM    7  N   UNL     1     -40.982 -52.390  13.308  1.00  0.00    -0.344 N 
ATOM      8  HN  UNL     1     -40.108 -51.890  13.149  1.00  0.00     0.167 HD
HETATM    9  C   UNL     1     -41.026 -53.693  13.660  1.00  0.00     0.008 A 
HETATM   10  C   UNL     1     -39.708 -54.402  13.794  1.00  0.00     0.068 C 
HETATM   11  C   UNL     1     -42.204 -54.397  13.899  1.00  0.00     0.044 A 
HETATM   12  C   UNL     1     -43.439 -53.740  13.794  1.00  0.00     0.055 A 
HETATM   13  C   UNL     1     -43.438 -52.386  13.405  1.00  0.00     0.050 A 
ENDROOT
BRANCH   5  14
HETATM   14  C   UNL     1     -41.417 -49.516  12.509  1.00  0.00     0.177 C 
BRANCH  14  15
HETATM   15  C   UNL     1     -41.369 -49.099  11.040  1.00  0.00     0.185 C 
BRANCH  15  16
HETATM   16  O   UNL     1     -40.527 -49.964  10.280  1.00  0.00    -0.399 OA
HETATM   17  H   UNL     1     -40.949 -50.848  10.344  1.00  0.00     0.209 HD
ENDBRANCH  15  16
ENDBRANCH  14  15
ENDBRANCH   5  14
BRANCH  12  18
HETATM   18  C   UNL     1     -44.703 -54.474  14.017  1.00  0.00     0.177 C 
HETATM   19  O   UNL     1     -45.098 -54.814  15.117  1.00  0.00    -0.646 OA
BRANCH  18  20
HETATM   20  O   UNL     1     -45.398 -54.729  12.887  1.00  0.00    -0.773 OA
HETATM   21  H   UNL     1     -45.113 -55.506  12.374  1.00  0.00     0.167 HD
ENDBRANCH  18  20
ENDBRANCH  12  18
TORSDOF 5
ENDMDL
MODEL 4
REMARK VINA RESULT:      -5.4      2.319      4.539
REMARK  5 active torsions:
REMARK  status: ('A' for Active; 'I' for Inactive)
REMARK    1  A    between atoms: N_5  and  C_6 
REMARK    2  A    between atoms: C_6  and  C_7 
REMARK    3  A    between atoms: C_7  and  O_8 
REMARK    4  A    between atoms: C_15  and  C_16 
REMARK    5  A    between atoms: C_16  and  O_18 
ROOT
HETATM    1  C   UNL     1     -39.220 -54.046  14.095  1.00  0.00     0.070 C 
HETATM    2  C   UNL     1     -40.264 -53.230  13.423  1.00  0.00     0.037 A 
HETATM    3  N   UNL     1     -41.512 -53.719  13.364  1.00  0.00    -0.300 N 
ATOM      4  HN  UNL     1     -41.859 -54.600  13.742  1.00  0.00     0.187 HD
HETATM    5  N   UNL     1     -42.203 -52.774  12.691  1.00  0.00    -0.274 N 
HETATM    6  C   UNL     1     -41.449 -51.682  12.358  1.00  0.00     0.136 A 
HETATM    7  N   UNL     1     -41.887 -50.577  11.718  1.00  0.00    -0.344 N 
ATOM      8  HN  UNL     1     -42.857 -50.451  11.433  1.00  0.00     0.167 HD
HETATM    9  C   UNL     1     -40.930 -49.653  11.488  1.00  0.00     0.008 A 
HETATM   10  C   UNL     1     -41.353 -48.407  10.762  1.00  0.00     0.068 C 
HETATM   11  C   UNL     1     -39.600 -49.791  11.881  1.00  0.00     0.044 A 
HETATM   12  C   UNL     1     -39.198 -50.943  12.575  1.00  0.00     0.055 A 
HETATM   13  C   UNL     1     -40.161 -51.943  12.813  1.00  0.00     0.050 A 
ENDROOT
BRANCH   5  14
HETATM   14  C   UNL     1     -43.624 -52.937  12.428  1.00  0.00     0.177 C 
BRANCH  14  15
HETATM   15  C   UNL     1     -44.236 -54.203  13.026  1.00  0.00     0.185 C 
BRANCH  15  16
HETATM   16  O   UNL     1     -45.656 -54.208  12.892  1.00  0.00    -0.399 OA
HETATM   17  H   UNL     1     -45.997 -54.197  13.813  1.00  0.00     0.209 HD
ENDBRANCH  15  16
ENDBRANCH  14  15
ENDBRANCH   5  14
BRANCH  12  18
HETATM   18  C   UNL     1     -37.787 -51.125  12.978  1.00  0.00     0.177 C 
HETATM   19  O   UNL     1     -36.968 -51.722  12.305  1.00  0.00    -0.646 OA
BRANCH  18  20
HETATM   20  O   UNL     1     -37.476 -50.558  14.163  1.00  0.00    -0.773 OA
HETATM   21  H   UNL     1     -37.201 -49.624  14.135  1.00  0.00     0.167 HD
ENDBRANCH  18  20
ENDBRANCH  12  18
TORSDOF 5
ENDMDL
MODEL 5
REMARK VINA RESULT:      -5.4      3.774      6.079
REMARK  5 active torsions:
REMARK  status: ('A' for Active; 'I' for Inactive)
REMARK    1  A    between atoms: N_5  and  C_6 
REMARK    2  A    between atoms: C_6  and  C_7 
REMARK    3  A    between atoms: C_7  and  O_8 
REMARK    4  A    between atoms: C_15  and  C_16 
REMARK    5  A    between atoms: C_16  and  O_18 
ROOT
HETATM    1  C   UNL     1     -38.896 -53.471  14.283  1.00  0.00     0.070 C 
HETATM    2  C   UNL     1     -40.137 -54.132  14.761  1.00  0.00     0.037 A 
HETATM    3  N   UNL     1     -40.075 -54.869  15.880  1.00  0.00    -0.300 N 
ATOM      4  HN  UNL     1     -39.265 -55.035  16.477  1.00  0.00     0.187 HD
HETATM    5  N   UNL     1     -41.331 -55.339  16.034  1.00  0.00    -0.274 N 
HETATM    6  C   UNL     1     -42.201 -54.891  15.077  1.00  0.00     0.136 A 
HETATM    7  N   UNL     1     -43.519 -55.170  15.006  1.00  0.00    -0.344 N 
ATOM      8  HN  UNL     1     -44.001 -55.747  15.696  1.00  0.00     0.167 HD
HETATM    9  C   UNL     1     -44.147 -54.621  13.945  1.00  0.00     0.008 A 
HETATM   10  C   UNL     1     -45.615 -54.912  13.802  1.00  0.00     0.068 C 
HETATM   11  C   UNL     1     -43.519 -53.816  12.997  1.00  0.00     0.044 A 
HETATM   12  C   UNL     1     -42.152 -53.524  13.131  1.00  0.00     0.055 A 
HETATM   13  C   UNL     1     -41.455 -54.098  14.211  1.00  0.00     0.050 A 
ENDROOT
BRANCH   5  14
HETATM   14  C   UNL     1     -41.674 -56.189  17.162  1.00  0.00     0.177 C 
BRANCH  14  15
HETATM   15  C   UNL     1     -40.481 -56.888  17.813  1.00  0.00     0.185 C 
BRANCH  15  16
HETATM   16  O   UNL     1     -39.824 -57.761  16.896  1.00  0.00    -0.399 OA
HETATM   17  H   UNL     1     -39.723 -58.608  17.382  1.00  0.00     0.209 HD
ENDBRANCH  15  16
ENDBRANCH  14  15
ENDBRANCH   5  14
BRANCH  12  18
HETATM   18  C   UNL     1     -41.458 -52.695  12.122  1.00  0.00     0.177 C 
HETATM   19  O   UNL     1     -41.566 -51.484  12.058  1.00  0.00    -0.646 OA
BRANCH  18  20
HETATM   20  O   UNL     1     -40.677 -53.399  11.275  1.00  0.00    -0.773 OA
HETATM   21  H   UNL     1     -39.767 -53.072  11.157  1.00  0.00     0.167 HD
ENDBRANCH  18  20
ENDBRANCH  12  18
TORSDOF 5
ENDMDL
MODEL 6
REMARK VINA RESULT:      -5.4      2.861      6.626
REMARK  5 active torsions:
REMARK  status: ('A' for Active; 'I' for Inactive)
REMARK    1  A    between atoms: N_5  and  C_6 
REMARK    2  A    between atoms: C_6  and  C_7 
REMARK    3  A    between atoms: C_7  and  O_8 
REMARK    4  A    between atoms: C_15  and  C_16 
REMARK    5  A    between atoms: C_16  and  O_18 
ROOT
HETATM    1  C   UNL     1     -39.742 -45.703  13.185  1.00  0.00     0.070 C 
HETATM    2  C   UNL     1     -40.272 -46.734  12.256  1.00  0.00     0.037 A 
HETATM    3  N   UNL     1     -39.772 -47.977  12.333  1.00  0.00    -0.300 N 
ATOM      4  HN  UNL     1     -39.061 -48.328  12.974  1.00  0.00     0.187 HD
HETATM    5  N   UNL     1     -40.429 -48.655  11.368  1.00  0.00    -0.274 N 
HETATM    6  C   UNL     1     -41.360 -47.899  10.708  1.00  0.00     0.136 A 
HETATM    7  N   UNL     1     -42.182 -48.326   9.728  1.00  0.00    -0.344 N 
ATOM      8  HN  UNL     1     -42.192 -49.290   9.393  1.00  0.00     0.167 HD
HETATM    9  C   UNL     1     -42.992 -47.370   9.227  1.00  0.00     0.008 A 
HETATM   10  C   UNL     1     -43.919 -47.781   8.117  1.00  0.00     0.068 C 
HETATM   11  C   UNL     1     -43.013 -46.051   9.674  1.00  0.00     0.044 A 
HETATM   12  C   UNL     1     -42.164 -45.660  10.722  1.00  0.00     0.055 A 
HETATM   13  C   UNL     1     -41.285 -46.623  11.256  1.00  0.00     0.050 A 
ENDROOT
BRANCH   5  14
HETATM   14  C   UNL     1     -40.165 -50.066  11.140  1.00  0.00     0.177 C 
BRANCH  14  15
HETATM   15  C   UNL     1     -41.102 -51.013  11.888  1.00  0.00     0.185 C 
BRANCH  15  16
HETATM   16  O   UNL     1     -41.276 -52.241  11.183  1.00  0.00    -0.399 OA
HETATM   17  H   UNL     1     -42.034 -52.681  11.625  1.00  0.00     0.209 HD
ENDBRANCH  15  16
ENDBRANCH  14  15
ENDBRANCH   5  14
BRANCH  12  18
HETATM   18  C   UNL     1     -42.149 -44.259  11.195  1.00  0.00     0.177 C 
HETATM   19  O   UNL     1     -41.483 -43.382  10.677  1.00  0.00    -0.646 OA
BRANCH  18  20
HETATM   20  O   UNL     1     -42.951 -44.029  12.256  1.00  0.00    -0.773 OA
HETATM   21  H   UNL     1     -43.069 -43.097  12.512  1.00  0.00     0.167 HD
ENDBRANCH  18  20
ENDBRANCH  12  18
TORSDOF 5
ENDMDL
MODEL 7
REMARK VINA RESULT:      -5.1      3.562      6.013
REMARK  5 active torsions:
REMARK  status: ('A' for Active; 'I' for Inactive)
REMARK    1  A    between atoms: N_5  and  C_6 
REMARK    2  A    between atoms: C_6  and  C_7 
REMARK    3  A    between atoms: C_7  and  O_8 
REMARK    4  A    between atoms: C_15  and  C_16 
REMARK    5  A    between atoms: C_16  and  O_18 
ROOT
HETATM    1  C   UNL     1     -45.031 -55.047  13.846  1.00  0.00     0.070 C 
HETATM    2  C   UNL     1     -43.876 -54.126  14.005  1.00  0.00     0.037 A 
HETATM    3  N   UNL     1     -42.712 -54.635  14.434  1.00  0.00    -0.300 N 
ATOM      4  HN  UNL     1     -42.498 -55.606  14.663  1.00  0.00     0.187 HD
HETATM    5  N   UNL     1     -41.888 -53.567  14.493  1.00  0.00    -0.274 N 
HETATM    6  C   UNL     1     -42.474 -52.404  14.074  1.00  0.00     0.136 A 
HETATM    7  N   UNL     1     -41.878 -51.196  13.993  1.00  0.00    -0.344 N 
ATOM      8  HN  UNL     1     -40.898 -51.045  14.230  1.00  0.00     0.167 HD
HETATM    9  C   UNL     1     -42.690 -50.204  13.571  1.00  0.00     0.008 A 
HETATM   10  C   UNL     1     -42.088 -48.830  13.478  1.00  0.00     0.068 C 
HETATM   11  C   UNL     1     -44.028 -50.383  13.225  1.00  0.00     0.044 A 
HETATM   12  C   UNL     1     -44.596 -51.664  13.292  1.00  0.00     0.055 A 
HETATM   13  C   UNL     1     -43.789 -52.724  13.751  1.00  0.00     0.050 A 
ENDROOT
BRANCH   5  14
HETATM   14  C   UNL     1     -40.505 -53.717  14.914  1.00  0.00     0.177 C 
BRANCH  14  15
HETATM   15  C   UNL     1     -39.604 -54.411  13.894  1.00  0.00     0.185 C 
BRANCH  15  16
HETATM   16  O   UNL     1     -40.168 -54.366  12.584  1.00  0.00    -0.399 OA
HETATM   17  H   UNL     1     -39.485 -53.930  12.030  1.00  0.00     0.209 HD
ENDBRANCH  15  16
ENDBRANCH  14  15
ENDBRANCH   5  14
BRANCH  12  18
HETATM   18  C   UNL     1     -46.021 -51.874  12.956  1.00  0.00     0.177 C 
HETATM   19  O   UNL     1     -46.940 -51.457  13.636  1.00  0.00    -0.646 OA
BRANCH  18  20
HETATM   20  O   UNL     1     -46.221 -52.567  11.814  1.00  0.00    -0.773 OA
HETATM   21  H   UNL     1     -46.337 -53.529  11.910  1.00  0.00     0.167 HD
ENDBRANCH  18  20
ENDBRANCH  12  18
TORSDOF 5
ENDMDL
MODEL 8
REMARK VINA RESULT:      -5.0      1.876      4.680
REMARK  5 active torsions:
REMARK  status: ('A' for Active; 'I' for Inactive)
REMARK    1  A    between atoms: N_5  and  C_6 
REMARK    2  A    between atoms: C_6  and  C_7 
REMARK    3  A    between atoms: C_7  and  O_8 
REMARK    4  A    between atoms: C_15  and  C_16 
REMARK    5  A    between atoms: C_16  and  O_18 
ROOT
HETATM    1  C   UNL     1     -37.700 -50.260  11.942  1.00  0.00     0.070 C 
HETATM    2  C   UNL     1     -38.685 -50.964  12.802  1.00  0.00     0.037 A 
HETATM    3  N   UNL     1     -38.227 -51.851  13.699  1.00  0.00    -0.300 N 
ATOM      4  HN  UNL     1     -37.259 -52.109  13.887  1.00  0.00     0.187 HD
HETATM    5  N   UNL     1     -39.343 -52.322  14.295  1.00  0.00    -0.274 N 
HETATM    6  C   UNL     1     -40.492 -51.734  13.840  1.00  0.00     0.136 A 
HETATM    7  N   UNL     1     -41.743 -51.982  14.282  1.00  0.00    -0.344 N 
ATOM      8  HN  UNL     1     -41.944 -52.643  15.032  1.00  0.00     0.167 HD
HETATM    9  C   UNL     1     -42.706 -51.282  13.646  1.00  0.00     0.008 A 
HETATM   10  C   UNL     1     -44.123 -51.531  14.081  1.00  0.00     0.068 C 
HETATM   11  C   UNL     1     -42.460 -50.362  12.629  1.00  0.00     0.044 A 
HETATM   12  C   UNL     1     -41.139 -50.109  12.227  1.00  0.00     0.055 A 
HETATM   13  C   UNL     1     -40.107 -50.838  12.849  1.00  0.00     0.050 A 
ENDROOT
BRANCH   5  14
HETATM   14  C   UNL     1     -39.260 -53.316  15.352  1.00  0.00     0.177 C 
BRANCH  14  15
HETATM   15  C   UNL     1     -39.025 -54.743  14.860  1.00  0.00     0.185 C 
BRANCH  15  16
HETATM   16  O   UNL     1     -38.751 -54.775  13.460  1.00  0.00    -0.399 OA
HETATM   17  H   UNL     1     -38.480 -53.858  13.235  1.00  0.00     0.209 HD
ENDBRANCH  15  16
ENDBRANCH  14  15
ENDBRANCH   5  14
BRANCH  12  18
HETATM   18  C   UNL     1     -40.856 -49.157  11.132  1.00  0.00     0.177 C 
HETATM   19  O   UNL     1     -40.883 -47.948  11.269  1.00  0.00    -0.646 OA
BRANCH  18  20
HETATM   20  O   UNL     1     -40.550 -49.746   9.956  1.00  0.00    -0.773 OA
HETATM   21  H   UNL     1     -40.367 -49.148   9.209  1.00  0.00     0.167 HD
ENDBRANCH  18  20
ENDBRANCH  12  18
TORSDOF 5
ENDMDL
MODEL 9
REMARK VINA RESULT:      -4.9      3.191      5.504
REMARK  5 active torsions:
REMARK  status: ('A' for Active; 'I' for Inactive)
REMARK    1  A    between atoms: N_5  and  C_6 
REMARK    2  A    between atoms: C_6  and  C_7 
REMARK    3  A    between atoms: C_7  and  O_8 
REMARK    4  A    between atoms: C_15  and  C_16 
REMARK    5  A    between atoms: C_16  and  O_18 
ROOT
HETATM    1  C   UNL     1     -41.985 -56.232  16.406  1.00  0.00     0.070 C 
HETATM    2  C   UNL     1     -42.423 -55.263  15.369  1.00  0.00     0.037 A 
HETATM    3  N   UNL     1     -43.727 -55.207  15.061  1.00  0.00    -0.300 N 
ATOM      4  HN  UNL     1     -44.490 -55.750  15.464  1.00  0.00     0.187 HD
HETATM    5  N   UNL     1     -43.797 -54.266  14.096  1.00  0.00    -0.274 N 
HETATM    6  C   UNL     1     -42.589 -53.689  13.810  1.00  0.00     0.136 A 
HETATM    7  N   UNL     1     -42.370 -52.700  12.919  1.00  0.00    -0.344 N 
ATOM      8  HN  UNL     1     -43.118 -52.270  12.374  1.00  0.00     0.167 HD
HETATM    9  C   UNL     1     -41.078 -52.327  12.810  1.00  0.00     0.008 A 
HETATM   10  C   UNL     1     -40.768 -51.240  11.817  1.00  0.00     0.068 C 
HETATM   11  C   UNL     1     -40.039 -52.884  13.552  1.00  0.00     0.044 A 
HETATM   12  C   UNL     1     -40.319 -53.886  14.493  1.00  0.00     0.055 A 
HETATM   13  C   UNL     1     -41.653 -54.322  14.620  1.00  0.00     0.050 A 
ENDROOT
BRANCH   5  14
HETATM   14  C   UNL     1     -45.072 -53.906  13.498  1.00  0.00     0.177 C 
BRANCH  14  15
HETATM   15  C   UNL     1     -46.270 -54.036  14.438  1.00  0.00     0.185 C 
BRANCH  15  16
HETATM   16  O   UNL     1     -46.763 -55.374  14.473  1.00  0.00    -0.399 OA
HETATM   17  H   UNL     1     -47.654 -55.305  14.879  1.00  0.00     0.209 HD
ENDBRANCH  15  16
ENDBRANCH  14  15
ENDBRANCH   5  14
BRANCH  12  18
HETATM   18  C   UNL     1     -39.229 -54.511  15.274  1.00  0.00     0.177 C 
HETATM   19  O   UNL     1     -38.915 -54.155  16.394  1.00  0.00    -0.646 OA
BRANCH  18  20
HETATM   20  O   UNL     1     -38.611 -55.530  14.637  1.00  0.00    -0.773 OA
HETATM   21  H   UNL     1     -38.084 -55.291  13.854  1.00  0.00     0.167 HD
ENDBRANCH  18  20
ENDBRANCH  12  18
TORSDOF 5
ENDMDL
