MODEL 1
REMARK VINA RESULT:      -6.0      0.000      0.000
REMARK  4 active torsions:
REMARK  status: ('A' for Active; 'I' for Inactive)
REMARK    1  A    between atoms: C_2  and  C_3 
REMARK       I    between atoms: C_2  and  N_16 
REMARK    2  A    between atoms: C_3  and  C_4 
REMARK    3  A    between atoms: C_7  and  N_10 
REMARK    4  A    between atoms: N_16  and  C_17 
ROOT
HETATM    1  C   UNL     1     -42.823 -49.694  12.401  1.00  0.00     0.026 A 
HETATM    2  C   UNL     1     -41.674 -50.454  12.308  1.00  0.00     0.078 A 
HETATM    3  S   UNL     1     -42.046 -52.106  12.543  1.00  0.00    -0.064 SA
HETATM    4  C   UNL     1     -43.691 -51.697  12.816  1.00  0.00     0.155 A 
HETATM    5  N   UNL     1     -43.967 -50.417  12.700  1.00  0.00    -0.339 N 
ATOM      6  HN  UNL     1     -44.896 -50.012  12.815  1.00  0.00     0.168 HD
ENDROOT
BRANCH   1   7
HETATM    7  C   UNL     1     -42.940 -48.224  12.205  1.00  0.00     0.160 C 
BRANCH   7   8
HETATM    8  C   UNL     1     -43.295 -47.872  10.775  1.00  0.00     0.223 C 
HETATM    9  O   UNL     1     -42.434 -47.749   9.907  1.00  0.00    -0.273 OA
HETATM   10  N   UNL     1     -44.650 -47.720  10.537  1.00  0.00    -0.356 N 
HETATM   11  H   UNL     1     -45.290 -47.790  11.323  1.00  0.00     0.162 HD
BRANCH  10  12
HETATM   12  C   UNL     1     -45.172 -47.474   9.232  1.00  0.00     0.084 A 
HETATM   13  C   UNL     1     -46.526 -46.853   9.026  1.00  0.00     0.027 A 
HETATM   14  C   UNL     1     -46.317 -48.307   8.723  1.00  0.00     0.027 A 
ENDBRANCH  10  12
ENDBRANCH   7   8
ENDBRANCH   1   7
BRANCH   4  15
HETATM   15  N   UNL     1     -44.555 -52.716  13.155  1.00  0.00    -0.278 N 
HETATM   16  C   UNL     1     -44.268 -54.124  13.313  1.00  0.00     0.155 C 
HETATM   17  C   UNL     1     -45.535 -54.709  13.918  1.00  0.00     0.145 C 
HETATM   18  N   UNL     1     -46.499 -53.661  13.791  1.00  0.00    -0.341 N 
HETATM   19  C   UNL     1     -45.902 -52.455  13.433  1.00  0.00     0.324 C 
HETATM   20  H   UNL     1     -47.431 -53.652  14.186  1.00  0.00     0.164 HD
HETATM   21  O   UNL     1     -46.527 -51.408  13.422  1.00  0.00    -0.247 OA
ENDBRANCH   4  15
TORSDOF 4
ENDMDL
MODEL 2
REMARK VINA RESULT:      -5.9      2.446      2.876
REMARK  4 active torsions:
REMARK  status: ('A' for Active; 'I' for Inactive)
REMARK    1  A    between atoms: C_2  and  C_3 
REMARK       I    between atoms: C_2  and  N_16 
REMARK    2  A    between atoms: C_3  and  C_4 
REMARK    3  A    between atoms: C_7  and  N_10 
REMARK    4  A    between atoms: N_16  and  C_17 
ROOT
HETATM    1  C   UNL     1     -42.265 -48.306  11.486  1.00  0.00     0.026 A 
HETATM    2  C   UNL     1     -42.833 -47.898  12.677  1.00  0.00     0.078 A 
HETATM    3  S   UNL     1     -43.081 -49.247  13.698  1.00  0.00    -0.064 SA
HETATM    4  C   UNL     1     -42.482 -50.286  12.469  1.00  0.00     0.155 A 
HETATM    5  N   UNL     1     -42.079 -49.675  11.378  1.00  0.00    -0.339 N 
ATOM      6  HN  UNL     1     -41.683 -50.143  10.563  1.00  0.00     0.168 HD
ENDROOT
BRANCH   1   7
HETATM    7  C   UNL     1     -41.843 -47.437  10.354  1.00  0.00     0.160 C 
BRANCH   7   8
HETATM    8  C   UNL     1     -43.028 -46.944   9.551  1.00  0.00     0.223 C 
HETATM    9  O   UNL     1     -43.056 -45.815   9.064  1.00  0.00    -0.273 OA
HETATM   10  N   UNL     1     -44.051 -47.865   9.405  1.00  0.00    -0.356 N 
HETATM   11  H   UNL     1     -43.969 -48.758   9.883  1.00  0.00     0.162 HD
BRANCH  10  12
HETATM   12  C   UNL     1     -45.206 -47.603   8.609  1.00  0.00     0.084 A 
HETATM   13  C   UNL     1     -46.440 -46.971   9.189  1.00  0.00     0.027 A 
HETATM   14  C   UNL     1     -46.450 -48.424   8.816  1.00  0.00     0.027 A 
ENDBRANCH  10  12
ENDBRANCH   7   8
ENDBRANCH   1   7
BRANCH   4  15
HETATM   15  N   UNL     1     -42.502 -51.643  12.714  1.00  0.00    -0.278 N 
HETATM   16  C   UNL     1     -43.595 -52.453  13.203  1.00  0.00     0.155 C 
HETATM   17  C   UNL     1     -43.112 -53.886  13.046  1.00  0.00     0.145 C 
HETATM   18  N   UNL     1     -41.718 -53.755  12.753  1.00  0.00    -0.341 N 
HETATM   19  C   UNL     1     -41.377 -52.437  12.461  1.00  0.00     0.324 C 
HETATM   20  H   UNL     1     -41.089 -54.499  12.477  1.00  0.00     0.164 HD
HETATM   21  O   UNL     1     -40.273 -52.138  12.038  1.00  0.00    -0.247 OA
ENDBRANCH   4  15
TORSDOF 4
ENDMDL
MODEL 3
REMARK VINA RESULT:      -5.7      1.547      1.899
REMARK  4 active torsions:
REMARK  status: ('A' for Active; 'I' for Inactive)
REMARK    1  A    between atoms: C_2  and  C_3 
REMARK       I    between atoms: C_2  and  N_16 
REMARK    2  A    between atoms: C_3  and  C_4 
REMARK    3  A    between atoms: C_7  and  N_10 
REMARK    4  A    between atoms: N_16  and  C_17 
ROOT
HETATM    1  C   UNL     1     -41.257 -51.282  12.085  1.00  0.00     0.026 A 
HETATM    2  C   UNL     1     -40.491 -52.256  12.694  1.00  0.00     0.078 A 
HETATM    3  S   UNL     1     -41.501 -53.496  13.300  1.00  0.00    -0.064 SA
HETATM    4  C   UNL     1     -42.885 -52.628  12.774  1.00  0.00     0.155 A 
HETATM    5  N   UNL     1     -42.624 -51.503  12.146  1.00  0.00    -0.339 N 
ATOM      6  HN  UNL     1     -43.330 -50.878  11.758  1.00  0.00     0.168 HD
ENDROOT
BRANCH   1   7
HETATM    7  C   UNL     1     -40.762 -50.064  11.385  1.00  0.00     0.160 C 
BRANCH   7   8
HETATM    8  C   UNL     1     -41.790 -48.952  11.396  1.00  0.00     0.223 C 
HETATM    9  O   UNL     1     -42.230 -48.488  12.446  1.00  0.00    -0.273 OA
HETATM   10  N   UNL     1     -42.172 -48.506  10.142  1.00  0.00    -0.356 N 
HETATM   11  H   UNL     1     -41.796 -48.979   9.326  1.00  0.00     0.162 HD
BRANCH  10  12
HETATM   12  C   UNL     1     -43.065 -47.407   9.963  1.00  0.00     0.084 A 
HETATM   13  C   UNL     1     -44.556 -47.597   9.936  1.00  0.00     0.027 A 
HETATM   14  C   UNL     1     -43.821 -47.271   8.670  1.00  0.00     0.027 A 
ENDBRANCH  10  12
ENDBRANCH   7   8
ENDBRANCH   1   7
BRANCH   4  15
HETATM   15  N   UNL     1     -44.122 -53.155  13.074  1.00  0.00    -0.278 N 
HETATM   16  C   UNL     1     -44.461 -54.519  13.417  1.00  0.00     0.155 C 
HETATM   17  C   UNL     1     -45.910 -54.453  13.871  1.00  0.00     0.145 C 
HETATM   18  N   UNL     1     -46.337 -53.143  13.489  1.00  0.00    -0.341 N 
HETATM   19  C   UNL     1     -45.262 -52.343  13.109  1.00  0.00     0.324 C 
HETATM   20  H   UNL     1     -47.217 -52.704  13.730  1.00  0.00     0.164 HD
HETATM   21  O   UNL     1     -45.394 -51.150  12.895  1.00  0.00    -0.247 OA
ENDBRANCH   4  15
TORSDOF 4
ENDMDL
MODEL 4
REMARK VINA RESULT:      -5.7      5.138      7.735
REMARK  4 active torsions:
REMARK  status: ('A' for Active; 'I' for Inactive)
REMARK    1  A    between atoms: C_2  and  C_3 
REMARK       I    between atoms: C_2  and  N_16 
REMARK    2  A    between atoms: C_3  and  C_4 
REMARK    3  A    between atoms: C_7  and  N_10 
REMARK    4  A    between atoms: N_16  and  C_17 
ROOT
HETATM    1  C   UNL     1     -41.479 -45.937  10.652  1.00  0.00     0.026 A 
HETATM    2  C   UNL     1     -40.128 -45.653  10.667  1.00  0.00     0.078 A 
HETATM    3  S   UNL     1     -39.865 -44.106  11.348  1.00  0.00    -0.064 SA
HETATM    4  C   UNL     1     -41.559 -43.891  11.516  1.00  0.00     0.155 A 
HETATM    5  N   UNL     1     -42.286 -44.917  11.132  1.00  0.00    -0.339 N 
ATOM      6  HN  UNL     1     -43.304 -44.958  11.180  1.00  0.00     0.168 HD
ENDROOT
BRANCH   1   7
HETATM    7  C   UNL     1     -42.121 -47.198  10.192  1.00  0.00     0.160 C 
BRANCH   7   8
HETATM    8  C   UNL     1     -43.300 -46.929   9.280  1.00  0.00     0.223 C 
HETATM    9  O   UNL     1     -43.292 -46.006   8.468  1.00  0.00    -0.273 OA
HETATM   10  N   UNL     1     -44.359 -47.808   9.430  1.00  0.00    -0.356 N 
HETATM   11  H   UNL     1     -44.303 -48.512  10.160  1.00  0.00     0.162 HD
BRANCH  10  12
HETATM   12  C   UNL     1     -45.516 -47.758   8.595  1.00  0.00     0.084 A 
HETATM   13  C   UNL     1     -46.798 -47.122   9.058  1.00  0.00     0.027 A 
HETATM   14  C   UNL     1     -46.707 -48.614   8.929  1.00  0.00     0.027 A 
ENDBRANCH  10  12
ENDBRANCH   7   8
ENDBRANCH   1   7
BRANCH   4  15
HETATM   15  N   UNL     1     -42.005 -42.679  11.998  1.00  0.00    -0.278 N 
HETATM   16  C   UNL     1     -41.749 -41.355  11.480  1.00  0.00     0.155 C 
HETATM   17  C   UNL     1     -42.680 -40.447  12.267  1.00  0.00     0.145 C 
HETATM   18  N   UNL     1     -43.164 -41.276  13.326  1.00  0.00    -0.341 N 
HETATM   19  C   UNL     1     -42.846 -42.615  13.116  1.00  0.00     0.324 C 
HETATM   20  H   UNL     1     -43.893 -41.041  13.989  1.00  0.00     0.164 HD
HETATM   21  O   UNL     1     -43.297 -43.501  13.823  1.00  0.00    -0.247 OA
ENDBRANCH   4  15
TORSDOF 4
ENDMDL
MODEL 5
REMARK VINA RESULT:      -5.6      3.961      6.277
REMARK  4 active torsions:
REMARK  status: ('A' for Active; 'I' for Inactive)
REMARK    1  A    between atoms: C_2  and  C_3 
REMARK       I    between atoms: C_2  and  N_16 
REMARK    2  A    between atoms: C_3  and  C_4 
REMARK    3  A    between atoms: C_7  and  N_10 
REMARK    4  A    between atoms: N_16  and  C_17 
ROOT
HETATM    1  C   UNL     1     -42.381 -54.629  14.826  1.00  0.00     0.026 A 
HETATM    2  C   UNL     1     -41.414 -54.921  15.768  1.00  0.00     0.078 A 
HETATM    3  S   UNL     1     -40.063 -53.895  15.554  1.00  0.00    -0.064 SA
HETATM    4  C   UNL     1     -40.821 -53.180  14.190  1.00  0.00     0.155 A 
HETATM    5  N   UNL     1     -42.024 -53.638  13.926  1.00  0.00    -0.339 N 
ATOM      6  HN  UNL     1     -42.615 -53.309  13.162  1.00  0.00     0.168 HD
ENDROOT
BRANCH   1   7
HETATM    7  C   UNL     1     -43.725 -55.254  14.703  1.00  0.00     0.160 C 
BRANCH   7   8
HETATM    8  C   UNL     1     -44.677 -54.391  13.902  1.00  0.00     0.223 C 
HETATM    9  O   UNL     1     -44.719 -54.441  12.675  1.00  0.00    -0.273 OA
HETATM   10  N   UNL     1     -45.489 -53.566  14.663  1.00  0.00    -0.356 N 
HETATM   11  H   UNL     1     -45.354 -53.551  15.669  1.00  0.00     0.162 HD
BRANCH  10  12
HETATM   12  C   UNL     1     -46.504 -52.748  14.081  1.00  0.00     0.084 A 
HETATM   13  C   UNL     1     -46.181 -51.432  13.430  1.00  0.00     0.027 A 
HETATM   14  C   UNL     1     -46.889 -51.458  14.752  1.00  0.00     0.027 A 
ENDBRANCH  10  12
ENDBRANCH   7   8
ENDBRANCH   1   7
BRANCH   4  15
HETATM   15  N   UNL     1     -40.109 -52.231  13.488  1.00  0.00    -0.278 N 
HETATM   16  C   UNL     1     -38.875 -51.575  13.857  1.00  0.00     0.155 C 
HETATM   17  C   UNL     1     -38.450 -50.823  12.607  1.00  0.00     0.145 C 
HETATM   18  N   UNL     1     -39.594 -50.889  11.752  1.00  0.00    -0.341 N 
HETATM   19  C   UNL     1     -40.537 -51.799  12.226  1.00  0.00     0.324 C 
HETATM   20  H   UNL     1     -39.641 -50.589  10.786  1.00  0.00     0.164 HD
HETATM   21  O   UNL     1     -41.512 -52.115  11.566  1.00  0.00    -0.247 OA
ENDBRANCH   4  15
TORSDOF 4
ENDMDL
MODEL 6
REMARK VINA RESULT:      -5.6      2.756      6.692
REMARK  4 active torsions:
REMARK  status: ('A' for Active; 'I' for Inactive)
REMARK    1  A    between atoms: C_2  and  C_3 
REMARK       I    between atoms: C_2  and  N_16 
REMARK    2  A    between atoms: C_3  and  C_4 
REMARK    3  A    between atoms: C_7  and  N_10 
REMARK    4  A    between atoms: N_16  and  C_17 
ROOT
HETATM    1  C   UNL     1     -40.903 -51.220  11.901  1.00  0.00     0.026 A 
HETATM    2  C   UNL     1     -39.706 -51.038  12.565  1.00  0.00     0.078 A 
HETATM    3  S   UNL     1     -39.258 -49.389  12.520  1.00  0.00    -0.064 SA
HETATM    4  C   UNL     1     -40.643 -49.038  11.568  1.00  0.00     0.155 A 
HETATM    5  N   UNL     1     -41.422 -50.069  11.328  1.00  0.00    -0.339 N 
ATOM      6  HN  UNL     1     -42.290 -50.029  10.794  1.00  0.00     0.168 HD
ENDROOT
BRANCH   1   7
HETATM    7  C   UNL     1     -41.661 -52.493  11.758  1.00  0.00     0.160 C 
BRANCH   7   8
HETATM    8  C   UNL     1     -42.956 -52.467  12.542  1.00  0.00     0.223 C 
HETATM    9  O   UNL     1     -43.361 -51.444  13.090  1.00  0.00    -0.273 OA
HETATM   10  N   UNL     1     -43.636 -53.673  12.574  1.00  0.00    -0.356 N 
HETATM   11  H   UNL     1     -43.206 -54.482  12.136  1.00  0.00     0.162 HD
BRANCH  10  12
HETATM   12  C   UNL     1     -44.915 -53.811  13.193  1.00  0.00     0.084 A 
HETATM   13  C   UNL     1     -45.056 -54.048  14.671  1.00  0.00     0.027 A 
HETATM   14  C   UNL     1     -45.347 -55.158  13.705  1.00  0.00     0.027 A 
ENDBRANCH  10  12
ENDBRANCH   7   8
ENDBRANCH   1   7
BRANCH   4  15
HETATM   15  N   UNL     1     -40.801 -47.744  11.122  1.00  0.00    -0.278 N 
HETATM   16  C   UNL     1     -39.973 -46.590  11.395  1.00  0.00     0.155 C 
HETATM   17  C   UNL     1     -40.493 -45.513  10.457  1.00  0.00     0.145 C 
HETATM   18  N   UNL     1     -41.717 -46.051   9.950  1.00  0.00    -0.341 N 
HETATM   19  C   UNL     1     -41.853 -47.402  10.264  1.00  0.00     0.324 C 
HETATM   20  H   UNL     1     -42.287 -45.657   9.212  1.00  0.00     0.164 HD
HETATM   21  O   UNL     1     -42.750 -48.082   9.795  1.00  0.00    -0.247 OA
ENDBRANCH   4  15
TORSDOF 4
ENDMDL
MODEL 7
REMARK VINA RESULT:      -5.2      3.577      6.336
REMARK  4 active torsions:
REMARK  status: ('A' for Active; 'I' for Inactive)
REMARK    1  A    between atoms: C_2  and  C_3 
REMARK       I    between atoms: C_2  and  N_16 
REMARK    2  A    between atoms: C_3  and  C_4 
REMARK    3  A    between atoms: C_7  and  N_10 
REMARK    4  A    between atoms: N_16  and  C_17 
ROOT
HETATM    1  C   UNL     1     -41.822 -53.151  14.222  1.00  0.00     0.026 A 
HETATM    2  C   UNL     1     -41.114 -52.830  15.364  1.00  0.00     0.078 A 
HETATM    3  S   UNL     1     -40.245 -51.377  15.123  1.00  0.00    -0.064 SA
HETATM    4  C   UNL     1     -40.812 -51.306  13.504  1.00  0.00     0.155 A 
HETATM    5  N   UNL     1     -41.633 -52.276  13.165  1.00  0.00    -0.339 N 
ATOM      6  HN  UNL     1     -42.070 -52.371  12.248  1.00  0.00     0.168 HD
ENDROOT
BRANCH   1   7
HETATM    7  C   UNL     1     -42.743 -54.305  14.038  1.00  0.00     0.160 C 
BRANCH   7   8
HETATM    8  C   UNL     1     -44.077 -53.874  13.464  1.00  0.00     0.223 C 
HETATM    9  O   UNL     1     -44.407 -54.152  12.313  1.00  0.00    -0.273 OA
HETATM   10  N   UNL     1     -44.880 -53.164  14.341  1.00  0.00    -0.356 N 
HETATM   11  H   UNL     1     -44.510 -52.934  15.258  1.00  0.00     0.162 HD
BRANCH  10  12
HETATM   12  C   UNL     1     -46.204 -52.754  13.999  1.00  0.00     0.084 A 
HETATM   13  C   UNL     1     -46.462 -51.522  13.177  1.00  0.00     0.027 A 
HETATM   14  C   UNL     1     -46.786 -51.524  14.641  1.00  0.00     0.027 A 
ENDBRANCH  10  12
ENDBRANCH   7   8
ENDBRANCH   1   7
BRANCH   4  15
HETATM   15  N   UNL     1     -40.347 -50.282  12.708  1.00  0.00    -0.278 N 
HETATM   16  C   UNL     1     -40.992 -49.029  12.384  1.00  0.00     0.155 C 
HETATM   17  C   UNL     1     -39.919 -48.215  11.678  1.00  0.00     0.145 C 
HETATM   18  N   UNL     1     -38.876 -49.159  11.422  1.00  0.00    -0.341 N 
HETATM   19  C   UNL     1     -39.081 -50.351  12.112  1.00  0.00     0.324 C 
HETATM   20  H   UNL     1     -37.953 -48.951  11.062  1.00  0.00     0.164 HD
HETATM   21  O   UNL     1     -38.232 -51.225  12.150  1.00  0.00    -0.247 OA
ENDBRANCH   4  15
TORSDOF 4
ENDMDL
MODEL 8
REMARK VINA RESULT:      -5.1      2.933      3.394
REMARK  4 active torsions:
REMARK  status: ('A' for Active; 'I' for Inactive)
REMARK    1  A    between atoms: C_2  and  C_3 
REMARK       I    between atoms: C_2  and  N_16 
REMARK    2  A    between atoms: C_3  and  C_4 
REMARK    3  A    between atoms: C_7  and  N_10 
REMARK    4  A    between atoms: N_16  and  C_17 
ROOT
HETATM    1  C   UNL     1     -40.823 -50.682  12.052  1.00  0.00     0.026 A 
HETATM    2  C   UNL     1     -40.167 -51.174  13.162  1.00  0.00     0.078 A 
HETATM    3  S   UNL     1     -41.148 -52.327  13.957  1.00  0.00    -0.064 SA
HETATM    4  C   UNL     1     -42.400 -52.048  12.815  1.00  0.00     0.155 A 
HETATM    5  N   UNL     1     -42.102 -51.184  11.871  1.00  0.00    -0.339 N 
ATOM      6  HN  UNL     1     -42.727 -50.918  11.109  1.00  0.00     0.168 HD
ENDROOT
BRANCH   1   7
HETATM    7  C   UNL     1     -40.294 -49.703  11.063  1.00  0.00     0.160 C 
BRANCH   7   8
HETATM    8  C   UNL     1     -40.908 -48.331  11.246  1.00  0.00     0.223 C 
HETATM    9  O   UNL     1     -41.970 -48.171  11.844  1.00  0.00    -0.273 OA
HETATM   10  N   UNL     1     -40.173 -47.292  10.700  1.00  0.00    -0.356 N 
HETATM   11  H   UNL     1     -39.332 -47.517  10.178  1.00  0.00     0.162 HD
BRANCH  10  12
HETATM   12  C   UNL     1     -40.556 -45.925  10.852  1.00  0.00     0.084 A 
HETATM   13  C   UNL     1     -39.724 -44.804  10.294  1.00  0.00     0.027 A 
HETATM   14  C   UNL     1     -39.770 -45.034  11.776  1.00  0.00     0.027 A 
ENDBRANCH  10  12
ENDBRANCH   7   8
ENDBRANCH   1   7
BRANCH   4  15
HETATM   15  N   UNL     1     -43.592 -52.715  12.999  1.00  0.00    -0.278 N 
HETATM   16  C   UNL     1     -43.833 -54.140  13.019  1.00  0.00     0.155 C 
HETATM   17  C   UNL     1     -45.271 -54.281  13.493  1.00  0.00     0.145 C 
HETATM   18  N   UNL     1     -45.791 -52.950  13.432  1.00  0.00    -0.341 N 
HETATM   19  C   UNL     1     -44.781 -52.012  13.235  1.00  0.00     0.324 C 
HETATM   20  H   UNL     1     -46.691 -52.641  13.778  1.00  0.00     0.164 HD
HETATM   21  O   UNL     1     -44.995 -50.814  13.306  1.00  0.00    -0.247 OA
ENDBRANCH   4  15
TORSDOF 4
ENDMDL
MODEL 9
REMARK VINA RESULT:      -5.1      2.221      2.754
REMARK  4 active torsions:
REMARK  status: ('A' for Active; 'I' for Inactive)
REMARK    1  A    between atoms: C_2  and  C_3 
REMARK       I    between atoms: C_2  and  N_16 
REMARK    2  A    between atoms: C_3  and  C_4 
REMARK    3  A    between atoms: C_7  and  N_10 
REMARK    4  A    between atoms: N_16  and  C_17 
ROOT
HETATM    1  C   UNL     1     -41.599 -51.299  13.090  1.00  0.00     0.026 A 
HETATM    2  C   UNL     1     -41.426 -50.850  14.385  1.00  0.00     0.078 A 
HETATM    3  S   UNL     1     -42.680 -51.447  15.382  1.00  0.00    -0.064 SA
HETATM    4  C   UNL     1     -43.403 -52.203  14.021  1.00  0.00     0.155 A 
HETATM    5  N   UNL     1     -42.739 -52.063  12.895  1.00  0.00    -0.339 N 
ATOM      6  HN  UNL     1     -43.023 -52.463  12.001  1.00  0.00     0.168 HD
ENDROOT
BRANCH   1   7
HETATM    7  C   UNL     1     -40.700 -51.051  11.931  1.00  0.00     0.160 C 
BRANCH   7   8
HETATM    8  C   UNL     1     -40.752 -49.607  11.477  1.00  0.00     0.223 C 
HETATM    9  O   UNL     1     -39.766 -48.875  11.532  1.00  0.00    -0.273 OA
HETATM   10  N   UNL     1     -41.983 -49.199  10.990  1.00  0.00    -0.356 N 
HETATM   11  H   UNL     1     -42.758 -49.854  11.026  1.00  0.00     0.162 HD
BRANCH  10  12
HETATM   12  C   UNL     1     -42.192 -47.898  10.440  1.00  0.00     0.084 A 
HETATM   13  C   UNL     1     -42.875 -46.810  11.220  1.00  0.00     0.027 A 
HETATM   14  C   UNL     1     -43.585 -47.465  10.073  1.00  0.00     0.027 A 
ENDBRANCH  10  12
ENDBRANCH   7   8
ENDBRANCH   1   7
BRANCH   4  15
HETATM   15  N   UNL     1     -44.605 -52.850  14.213  1.00  0.00    -0.278 N 
HETATM   16  C   UNL     1     -45.609 -52.603  15.223  1.00  0.00     0.155 C 
HETATM   17  C   UNL     1     -46.799 -53.448  14.797  1.00  0.00     0.145 C 
HETATM   18  N   UNL     1     -46.278 -54.293  13.768  1.00  0.00    -0.341 N 
HETATM   19  C   UNL     1     -45.014 -53.878  13.354  1.00  0.00     0.324 C 
HETATM   20  H   UNL     1     -46.811 -54.915  13.173  1.00  0.00     0.164 HD
HETATM   21  O   UNL     1     -44.463 -54.369  12.384  1.00  0.00    -0.247 OA
ENDBRANCH   4  15
TORSDOF 4
ENDMDL
