MODEL 1
REMARK VINA RESULT:      -6.4      0.000      0.000
REMARK  8 active torsions:
REMARK  status: ('A' for Active; 'I' for Inactive)
REMARK    1  A    between atoms: C_2  and  C_3 
REMARK    2  A    between atoms: C_3  and  O_4 
REMARK    3  A    between atoms: C_3  and  C_5 
REMARK    4  A    between atoms: N_14  and  C_15 
REMARK    5  A    between atoms: C_15  and  C_16 
REMARK    6  A    between atoms: C_16  and  O_17 
REMARK    7  A    between atoms: O_17  and  C_18 
REMARK    8  A    between atoms: C_23  and  O_24 
ROOT
HETATM    1  C   UNL     1     -42.120 -52.664  12.942  1.00  0.00     0.114 A 
HETATM    2  N   UNL     1     -43.127 -53.206  12.282  1.00  0.00    -0.342 N 
ATOM      3  HN  UNL     1     -43.071 -53.879  11.518  1.00  0.00     0.167 HD
HETATM    4  C   UNL     1     -44.259 -52.680  12.834  1.00  0.00     0.060 A 
HETATM    5  C   UNL     1     -45.596 -52.972  12.532  1.00  0.00     0.032 A 
HETATM    6  C   UNL     1     -46.604 -52.279  13.203  1.00  0.00     0.002 A 
HETATM    7  C   UNL     1     -46.279 -51.295  14.139  1.00  0.00     0.002 A 
HETATM    8  C   UNL     1     -44.943 -51.004  14.475  1.00  0.00     0.032 A 
HETATM    9  C   UNL     1     -43.947 -51.743  13.819  1.00  0.00     0.062 A 
HETATM   10  N   UNL     1     -42.569 -51.795  13.920  1.00  0.00    -0.331 N 
ENDROOT
BRANCH  10  11
HETATM   11  C   UNL     1     -41.742 -51.119  14.919  1.00  0.00     0.157 C 
BRANCH  11  12
HETATM   12  C   UNL     1     -41.512 -49.654  14.561  1.00  0.00     0.196 C 
BRANCH  12  13
HETATM   13  O   UNL     1     -40.156 -49.197  14.771  1.00  0.00    -0.347 OA
BRANCH  13  14
HETATM   14  C   UNL     1     -39.262 -49.596  13.785  1.00  0.00     0.102 A 
HETATM   15  C   UNL     1     -38.276 -50.574  14.045  1.00  0.00     0.039 A 
HETATM   16  C   UNL     1     -37.384 -51.021  13.068  1.00  0.00     0.003 A 
HETATM   17  C   UNL     1     -37.453 -50.502  11.790  1.00  0.00     0.003 A 
HETATM   18  C   UNL     1     -38.430 -49.554  11.496  1.00  0.00     0.039 A 
HETATM   19  C   UNL     1     -39.340 -49.092  12.471  1.00  0.00     0.101 A 
BRANCH  19  20
HETATM   20  O   UNL     1     -40.239 -48.231  11.911  1.00  0.00    -0.353 OA
HETATM   21  C   UNL     1     -41.193 -48.693  10.975  1.00  0.00     0.210 C 
ENDBRANCH  19  20
ENDBRANCH  13  14
ENDBRANCH  12  13
ENDBRANCH  11  12
ENDBRANCH  10  11
BRANCH   1  22
HETATM   22  C   UNL     1     -40.690 -53.005  12.668  1.00  0.00     0.185 C 
BRANCH  22  23
HETATM   23  C   UNL     1     -40.285 -54.304  13.369  1.00  0.00     0.035 C 
HETATM   24  C   UNL     1     -39.077 -54.137  14.279  1.00  0.00     0.008 C 
ENDBRANCH  22  23
BRANCH  22  25
HETATM   25  O   UNL     1     -40.599 -53.205  11.255  1.00  0.00    -0.388 OA
HETATM   26  H   UNL     1     -41.319 -52.665  10.872  1.00  0.00     0.210 HD
ENDBRANCH  22  25
ENDBRANCH   1  22
TORSDOF 8
ENDMDL
MODEL 2
REMARK VINA RESULT:      -6.1      1.985      3.038
REMARK  8 active torsions:
REMARK  status: ('A' for Active; 'I' for Inactive)
REMARK    1  A    between atoms: C_2  and  C_3 
REMARK    2  A    between atoms: C_3  and  O_4 
REMARK    3  A    between atoms: C_3  and  C_5 
REMARK    4  A    between atoms: N_14  and  C_15 
REMARK    5  A    between atoms: C_15  and  C_16 
REMARK    6  A    between atoms: C_16  and  O_17 
REMARK    7  A    between atoms: O_17  and  C_18 
REMARK    8  A    between atoms: C_23  and  O_24 
ROOT
HETATM    1  C   UNL     1     -42.255 -52.726  12.862  1.00  0.00     0.114 A 
HETATM    2  N   UNL     1     -42.909 -53.872  12.813  1.00  0.00    -0.342 N 
ATOM      3  HN  UNL     1     -42.566 -54.760  12.449  1.00  0.00     0.167 HD
HETATM    4  C   UNL     1     -44.137 -53.622  13.352  1.00  0.00     0.060 A 
HETATM    5  C   UNL     1     -45.188 -54.519  13.585  1.00  0.00     0.032 A 
HETATM    6  C   UNL     1     -46.383 -54.033  14.118  1.00  0.00     0.002 A 
HETATM    7  C   UNL     1     -46.530 -52.670  14.386  1.00  0.00     0.002 A 
HETATM    8  C   UNL     1     -45.479 -51.757  14.182  1.00  0.00     0.032 A 
HETATM    9  C   UNL     1     -44.272 -52.275  13.687  1.00  0.00     0.062 A 
HETATM   10  N   UNL     1     -43.030 -51.729  13.426  1.00  0.00    -0.331 N 
ENDROOT
BRANCH  10  11
HETATM   11  C   UNL     1     -42.588 -50.373  13.751  1.00  0.00     0.157 C 
BRANCH  11  12
HETATM   12  C   UNL     1     -43.009 -49.371  12.681  1.00  0.00     0.196 C 
BRANCH  12  13
HETATM   13  O   UNL     1     -42.136 -49.328  11.529  1.00  0.00    -0.347 OA
BRANCH  13  14
HETATM   14  C   UNL     1     -41.700 -48.053  11.193  1.00  0.00     0.102 A 
HETATM   15  C   UNL     1     -40.417 -47.597  11.570  1.00  0.00     0.039 A 
HETATM   16  C   UNL     1     -39.936 -46.333  11.222  1.00  0.00     0.003 A 
HETATM   17  C   UNL     1     -40.726 -45.482  10.475  1.00  0.00     0.003 A 
HETATM   18  C   UNL     1     -41.986 -45.912  10.067  1.00  0.00     0.039 A 
HETATM   19  C   UNL     1     -42.488 -47.186  10.410  1.00  0.00     0.101 A 
BRANCH  19  20
HETATM   20  O   UNL     1     -43.704 -47.391   9.823  1.00  0.00    -0.353 OA
HETATM   21  C   UNL     1     -43.810 -47.554   8.423  1.00  0.00     0.210 C 
ENDBRANCH  19  20
ENDBRANCH  13  14
ENDBRANCH  12  13
ENDBRANCH  11  12
ENDBRANCH  10  11
BRANCH   1  22
HETATM   22  C   UNL     1     -40.842 -52.575  12.396  1.00  0.00     0.185 C 
BRANCH  22  23
HETATM   23  C   UNL     1     -39.853 -52.793  13.544  1.00  0.00     0.035 C 
HETATM   24  C   UNL     1     -39.600 -54.264  13.839  1.00  0.00     0.008 C 
ENDBRANCH  22  23
BRANCH  22  25
HETATM   25  O   UNL     1     -40.639 -53.599  11.420  1.00  0.00    -0.388 OA
HETATM   26  H   UNL     1     -41.490 -54.079  11.369  1.00  0.00     0.210 HD
ENDBRANCH  22  25
ENDBRANCH   1  22
TORSDOF 8
ENDMDL
MODEL 3
REMARK VINA RESULT:      -6.1      2.303      6.420
REMARK  8 active torsions:
REMARK  status: ('A' for Active; 'I' for Inactive)
REMARK    1  A    between atoms: C_2  and  C_3 
REMARK    2  A    between atoms: C_3  and  O_4 
REMARK    3  A    between atoms: C_3  and  C_5 
REMARK    4  A    between atoms: N_14  and  C_15 
REMARK    5  A    between atoms: C_15  and  C_16 
REMARK    6  A    between atoms: C_16  and  O_17 
REMARK    7  A    between atoms: O_17  and  C_18 
REMARK    8  A    between atoms: C_23  and  O_24 
ROOT
HETATM    1  C   UNL     1     -40.948 -48.930  11.434  1.00  0.00     0.114 A 
HETATM    2  N   UNL     1     -39.737 -49.072  10.928  1.00  0.00    -0.342 N 
ATOM      3  HN  UNL     1     -39.386 -48.679  10.055  1.00  0.00     0.167 HD
HETATM    4  C   UNL     1     -39.053 -49.853  11.814  1.00  0.00     0.060 A 
HETATM    5  C   UNL     1     -37.711 -50.251  11.772  1.00  0.00     0.032 A 
HETATM    6  C   UNL     1     -37.226 -51.091  12.776  1.00  0.00     0.002 A 
HETATM    7  C   UNL     1     -38.077 -51.542  13.786  1.00  0.00     0.002 A 
HETATM    8  C   UNL     1     -39.423 -51.135  13.861  1.00  0.00     0.032 A 
HETATM    9  C   UNL     1     -39.877 -50.256  12.865  1.00  0.00     0.062 A 
HETATM   10  N   UNL     1     -41.071 -49.599  12.639  1.00  0.00    -0.331 N 
ENDROOT
BRANCH  10  11
HETATM   11  C   UNL     1     -42.225 -49.556  13.536  1.00  0.00     0.157 C 
BRANCH  11  12
HETATM   12  C   UNL     1     -43.335 -50.495  13.073  1.00  0.00     0.196 C 
BRANCH  12  13
HETATM   13  O   UNL     1     -42.863 -51.710  12.446  1.00  0.00    -0.347 OA
BRANCH  13  14
HETATM   14  C   UNL     1     -43.254 -52.874  13.095  1.00  0.00     0.102 A 
HETATM   15  C   UNL     1     -42.424 -53.485  14.063  1.00  0.00     0.039 A 
HETATM   16  C   UNL     1     -42.800 -54.636  14.756  1.00  0.00     0.003 A 
HETATM   17  C   UNL     1     -44.029 -55.215  14.507  1.00  0.00     0.003 A 
HETATM   18  C   UNL     1     -44.879 -54.623  13.577  1.00  0.00     0.039 A 
HETATM   19  C   UNL     1     -44.516 -53.458  12.867  1.00  0.00     0.101 A 
BRANCH  19  20
HETATM   20  O   UNL     1     -45.550 -53.038  12.081  1.00  0.00    -0.353 OA
HETATM   21  C   UNL     1     -46.526 -52.150  12.589  1.00  0.00     0.210 C 
ENDBRANCH  19  20
ENDBRANCH  13  14
ENDBRANCH  12  13
ENDBRANCH  11  12
ENDBRANCH  10  11
BRANCH   1  22
HETATM   22  C   UNL     1     -42.012 -48.106  10.782  1.00  0.00     0.185 C 
BRANCH  22  23
HETATM   23  C   UNL     1     -41.771 -46.611  11.006  1.00  0.00     0.035 C 
HETATM   24  C   UNL     1     -42.496 -46.068  12.229  1.00  0.00     0.008 C 
ENDBRANCH  22  23
BRANCH  22  25
HETATM   25  O   UNL     1     -41.914 -48.377   9.381  1.00  0.00    -0.388 OA
HETATM   26  H   UNL     1     -41.768 -47.506   8.960  1.00  0.00     0.210 HD
ENDBRANCH  22  25
ENDBRANCH   1  22
TORSDOF 8
ENDMDL
MODEL 4
REMARK VINA RESULT:      -6.0      1.515      2.256
REMARK  8 active torsions:
REMARK  status: ('A' for Active; 'I' for Inactive)
REMARK    1  A    between atoms: C_2  and  C_3 
REMARK    2  A    between atoms: C_3  and  O_4 
REMARK    3  A    between atoms: C_3  and  C_5 
REMARK    4  A    between atoms: N_14  and  C_15 
REMARK    5  A    between atoms: C_15  and  C_16 
REMARK    6  A    between atoms: C_16  and  O_17 
REMARK    7  A    between atoms: O_17  and  C_18 
REMARK    8  A    between atoms: C_23  and  O_24 
ROOT
HETATM    1  C   UNL     1     -42.201 -52.638  12.866  1.00  0.00     0.114 A 
HETATM    2  N   UNL     1     -43.221 -53.056  12.140  1.00  0.00    -0.342 N 
ATOM      3  HN  UNL     1     -43.182 -53.631  11.299  1.00  0.00     0.167 HD
HETATM    4  C   UNL     1     -44.338 -52.561  12.748  1.00  0.00     0.060 A 
HETATM    5  C   UNL     1     -45.682 -52.764  12.406  1.00  0.00     0.032 A 
HETATM    6  C   UNL     1     -46.670 -52.122  13.153  1.00  0.00     0.002 A 
HETATM    7  C   UNL     1     -46.318 -51.274  14.205  1.00  0.00     0.002 A 
HETATM    8  C   UNL     1     -44.975 -51.076  14.580  1.00  0.00     0.032 A 
HETATM    9  C   UNL     1     -44.001 -51.765  13.842  1.00  0.00     0.062 A 
HETATM   10  N   UNL     1     -42.627 -51.880  13.942  1.00  0.00    -0.331 N 
ENDROOT
BRANCH  10  11
HETATM   11  C   UNL     1     -41.785 -51.363  15.020  1.00  0.00     0.157 C 
BRANCH  11  12
HETATM   12  C   UNL     1     -41.340 -49.929  14.750  1.00  0.00     0.196 C 
BRANCH  12  13
HETATM   13  O   UNL     1     -40.263 -49.811  13.792  1.00  0.00    -0.347 OA
BRANCH  13  14
HETATM   14  C   UNL     1     -40.513 -48.910  12.764  1.00  0.00     0.102 A 
HETATM   15  C   UNL     1     -41.514 -49.161  11.800  1.00  0.00     0.039 A 
HETATM   16  C   UNL     1     -41.812 -48.263  10.773  1.00  0.00     0.003 A 
HETATM   17  C   UNL     1     -41.116 -47.074  10.682  1.00  0.00     0.003 A 
HETATM   18  C   UNL     1     -40.139 -46.786  11.632  1.00  0.00     0.039 A 
HETATM   19  C   UNL     1     -39.826 -47.683  12.676  1.00  0.00     0.101 A 
BRANCH  19  20
HETATM   20  O   UNL     1     -38.896 -47.133  13.511  1.00  0.00    -0.353 OA
HETATM   21  C   UNL     1     -39.288 -46.535  14.731  1.00  0.00     0.210 C 
ENDBRANCH  19  20
ENDBRANCH  13  14
ENDBRANCH  12  13
ENDBRANCH  11  12
ENDBRANCH  10  11
BRANCH   1  22
HETATM   22  C   UNL     1     -40.782 -52.995  12.558  1.00  0.00     0.185 C 
BRANCH  22  23
HETATM   23  C   UNL     1     -40.359 -54.271  13.290  1.00  0.00     0.035 C 
HETATM   24  C   UNL     1     -39.188 -54.054  14.236  1.00  0.00     0.008 C 
ENDBRANCH  22  23
BRANCH  22  25
HETATM   25  O   UNL     1     -40.737 -53.242  11.150  1.00  0.00    -0.388 OA
HETATM   26  H   UNL     1     -40.189 -54.046  11.047  1.00  0.00     0.210 HD
ENDBRANCH  22  25
ENDBRANCH   1  22
TORSDOF 8
ENDMDL
MODEL 5
REMARK VINA RESULT:      -5.9      3.359      6.797
REMARK  8 active torsions:
REMARK  status: ('A' for Active; 'I' for Inactive)
REMARK    1  A    between atoms: C_2  and  C_3 
REMARK    2  A    between atoms: C_3  and  O_4 
REMARK    3  A    between atoms: C_3  and  C_5 
REMARK    4  A    between atoms: N_14  and  C_15 
REMARK    5  A    between atoms: C_15  and  C_16 
REMARK    6  A    between atoms: C_16  and  O_17 
REMARK    7  A    between atoms: O_17  and  C_18 
REMARK    8  A    between atoms: C_23  and  O_24 
ROOT
HETATM    1  C   UNL     1     -42.329 -46.914  10.397  1.00  0.00     0.114 A 
HETATM    2  N   UNL     1     -41.593 -45.919   9.939  1.00  0.00    -0.342 N 
ATOM      3  HN  UNL     1     -41.600 -45.532   8.996  1.00  0.00     0.167 HD
HETATM    4  C   UNL     1     -40.820 -45.514  10.989  1.00  0.00     0.060 A 
HETATM    5  C   UNL     1     -39.907 -44.452  11.043  1.00  0.00     0.032 A 
HETATM    6  C   UNL     1     -39.191 -44.240  12.222  1.00  0.00     0.002 A 
HETATM    7  C   UNL     1     -39.368 -45.092  13.314  1.00  0.00     0.002 A 
HETATM    8  C   UNL     1     -40.297 -46.149  13.289  1.00  0.00     0.032 A 
HETATM    9  C   UNL     1     -41.037 -46.316  12.108  1.00  0.00     0.062 A 
HETATM   10  N   UNL     1     -42.058 -47.168  11.730  1.00  0.00    -0.331 N 
ENDROOT
BRANCH  10  11
HETATM   11  C   UNL     1     -42.771 -48.110  12.591  1.00  0.00     0.157 C 
BRANCH  11  12
HETATM   12  C   UNL     1     -41.919 -49.335  12.913  1.00  0.00     0.196 C 
BRANCH  12  13
HETATM   13  O   UNL     1     -41.976 -50.379  11.914  1.00  0.00    -0.347 OA
BRANCH  13  14
HETATM   14  C   UNL     1     -41.873 -51.664  12.430  1.00  0.00     0.102 A 
HETATM   15  C   UNL     1     -43.019 -52.471  12.616  1.00  0.00     0.039 A 
HETATM   16  C   UNL     1     -42.948 -53.778  13.102  1.00  0.00     0.003 A 
HETATM   17  C   UNL     1     -41.719 -54.326  13.414  1.00  0.00     0.003 A 
HETATM   18  C   UNL     1     -40.569 -53.565  13.218  1.00  0.00     0.039 A 
HETATM   19  C   UNL     1     -40.623 -52.242  12.728  1.00  0.00     0.101 A 
BRANCH  19  20
HETATM   20  O   UNL     1     -39.361 -51.749  12.553  1.00  0.00    -0.353 OA
HETATM   21  C   UNL     1     -38.576 -51.369  13.665  1.00  0.00     0.210 C 
ENDBRANCH  19  20
ENDBRANCH  13  14
ENDBRANCH  12  13
ENDBRANCH  11  12
ENDBRANCH  10  11
BRANCH   1  22
HETATM   22  C   UNL     1     -43.348 -47.624   9.564  1.00  0.00     0.185 C 
BRANCH  22  23
HETATM   23  C   UNL     1     -44.474 -46.677   9.140  1.00  0.00     0.035 C 
HETATM   24  C   UNL     1     -45.839 -47.348   9.119  1.00  0.00     0.008 C 
ENDBRANCH  22  23
BRANCH  22  25
HETATM   25  O   UNL     1     -42.658 -48.063   8.391  1.00  0.00    -0.388 OA
HETATM   26  H   UNL     1     -41.716 -47.857   8.554  1.00  0.00     0.210 HD
ENDBRANCH  22  25
ENDBRANCH   1  22
TORSDOF 8
ENDMDL
MODEL 6
REMARK VINA RESULT:      -5.7      1.973      3.127
REMARK  8 active torsions:
REMARK  status: ('A' for Active; 'I' for Inactive)
REMARK    1  A    between atoms: C_2  and  C_3 
REMARK    2  A    between atoms: C_3  and  O_4 
REMARK    3  A    between atoms: C_3  and  C_5 
REMARK    4  A    between atoms: N_14  and  C_15 
REMARK    5  A    between atoms: C_15  and  C_16 
REMARK    6  A    between atoms: C_16  and  O_17 
REMARK    7  A    between atoms: O_17  and  C_18 
REMARK    8  A    between atoms: C_23  and  O_24 
ROOT
HETATM    1  C   UNL     1     -40.771 -53.936  13.996  1.00  0.00     0.114 A 
HETATM    2  N   UNL     1     -41.577 -54.620  14.786  1.00  0.00    -0.342 N 
ATOM      3  HN  UNL     1     -41.314 -55.172  15.603  1.00  0.00     0.167 HD
HETATM    4  C   UNL     1     -42.833 -54.437  14.285  1.00  0.00     0.060 A 
HETATM    5  C   UNL     1     -44.052 -54.905  14.792  1.00  0.00     0.032 A 
HETATM    6  C   UNL     1     -45.225 -54.625  14.089  1.00  0.00     0.002 A 
HETATM    7  C   UNL     1     -45.172 -53.914  12.888  1.00  0.00     0.002 A 
HETATM    8  C   UNL     1     -43.961 -53.415  12.374  1.00  0.00     0.032 A 
HETATM    9  C   UNL     1     -42.800 -53.670  13.121  1.00  0.00     0.062 A 
HETATM   10  N   UNL     1     -41.474 -53.302  12.987  1.00  0.00    -0.331 N 
ENDROOT
BRANCH  10  11
HETATM   11  C   UNL     1     -40.925 -52.362  12.011  1.00  0.00     0.157 C 
BRANCH  11  12
HETATM   12  C   UNL     1     -41.023 -50.920  12.500  1.00  0.00     0.196 C 
BRANCH  12  13
HETATM   13  O   UNL     1     -40.227 -49.979  11.742  1.00  0.00    -0.347 OA
BRANCH  13  14
HETATM   14  C   UNL     1     -39.619 -48.998  12.514  1.00  0.00     0.102 A 
HETATM   15  C   UNL     1     -40.129 -47.680  12.555  1.00  0.00     0.039 A 
HETATM   16  C   UNL     1     -39.561 -46.679  13.344  1.00  0.00     0.003 A 
HETATM   17  C   UNL     1     -38.461 -46.966  14.128  1.00  0.00     0.003 A 
HETATM   18  C   UNL     1     -37.950 -48.261  14.128  1.00  0.00     0.039 A 
HETATM   19  C   UNL     1     -38.512 -49.287  13.336  1.00  0.00     0.101 A 
BRANCH  19  20
HETATM   20  O   UNL     1     -37.881 -50.473  13.578  1.00  0.00    -0.353 OA
HETATM   21  C   UNL     1     -37.139 -51.115  12.560  1.00  0.00     0.210 C 
ENDBRANCH  19  20
ENDBRANCH  13  14
ENDBRANCH  12  13
ENDBRANCH  11  12
ENDBRANCH  10  11
BRANCH   1  22
HETATM   22  C   UNL     1     -39.295 -53.844  14.220  1.00  0.00     0.185 C 
BRANCH  22  23
HETATM   23  C   UNL     1     -38.938 -54.118  15.683  1.00  0.00     0.035 C 
HETATM   24  C   UNL     1     -38.294 -55.479  15.895  1.00  0.00     0.008 C 
ENDBRANCH  22  23
BRANCH  22  25
HETATM   25  O   UNL     1     -38.712 -54.869  13.411  1.00  0.00    -0.388 OA
HETATM   26  H   UNL     1     -39.375 -55.059  12.718  1.00  0.00     0.210 HD
ENDBRANCH  22  25
ENDBRANCH   1  22
TORSDOF 8
ENDMDL
MODEL 7
REMARK VINA RESULT:      -5.7      3.527      7.527
REMARK  8 active torsions:
REMARK  status: ('A' for Active; 'I' for Inactive)
REMARK    1  A    between atoms: C_2  and  C_3 
REMARK    2  A    between atoms: C_3  and  O_4 
REMARK    3  A    between atoms: C_3  and  C_5 
REMARK    4  A    between atoms: N_14  and  C_15 
REMARK    5  A    between atoms: C_15  and  C_16 
REMARK    6  A    between atoms: C_16  and  O_17 
REMARK    7  A    between atoms: O_17  and  C_18 
REMARK    8  A    between atoms: C_23  and  O_24 
ROOT
HETATM    1  C   UNL     1     -42.128 -47.086  10.175  1.00  0.00     0.114 A 
HETATM    2  N   UNL     1     -41.663 -45.851  10.147  1.00  0.00    -0.342 N 
ATOM      3  HN  UNL     1     -41.903 -45.119   9.479  1.00  0.00     0.167 HD
HETATM    4  C   UNL     1     -40.795 -45.756  11.196  1.00  0.00     0.060 A 
HETATM    5  C   UNL     1     -40.079 -44.636  11.639  1.00  0.00     0.032 A 
HETATM    6  C   UNL     1     -39.211 -44.779  12.723  1.00  0.00     0.002 A 
HETATM    7  C   UNL     1     -39.045 -46.024  13.332  1.00  0.00     0.002 A 
HETATM    8  C   UNL     1     -39.773 -47.156  12.918  1.00  0.00     0.032 A 
HETATM    9  C   UNL     1     -40.672 -46.979  11.855  1.00  0.00     0.062 A 
HETATM   10  N   UNL     1     -41.586 -47.804  11.226  1.00  0.00    -0.331 N 
ENDROOT
BRANCH  10  11
HETATM   11  C   UNL     1     -41.966 -49.155  11.635  1.00  0.00     0.157 C 
BRANCH  11  12
HETATM   12  C   UNL     1     -43.054 -49.137  12.705  1.00  0.00     0.196 C 
BRANCH  12  13
HETATM   13  O   UNL     1     -43.031 -50.275  13.597  1.00  0.00    -0.347 OA
BRANCH  13  14
HETATM   14  C   UNL     1     -44.281 -50.653  14.068  1.00  0.00     0.102 A 
HETATM   15  C   UNL     1     -45.270 -51.156  13.193  1.00  0.00     0.039 A 
HETATM   16  C   UNL     1     -46.526 -51.574  13.639  1.00  0.00     0.003 A 
HETATM   17  C   UNL     1     -46.832 -51.506  14.983  1.00  0.00     0.003 A 
HETATM   18  C   UNL     1     -45.870 -51.038  15.874  1.00  0.00     0.039 A 
HETATM   19  C   UNL     1     -44.595 -50.611  15.441  1.00  0.00     0.101 A 
BRANCH  19  20
HETATM   20  O   UNL     1     -43.818 -50.276  16.512  1.00  0.00    -0.353 OA
HETATM   21  C   UNL     1     -44.406 -49.833  17.719  1.00  0.00     0.210 C 
ENDBRANCH  19  20
ENDBRANCH  13  14
ENDBRANCH  12  13
ENDBRANCH  11  12
ENDBRANCH  10  11
BRANCH   1  22
HETATM   22  C   UNL     1     -43.146 -47.595   9.204  1.00  0.00     0.185 C 
BRANCH  22  23
HETATM   23  C   UNL     1     -44.568 -47.362   9.718  1.00  0.00     0.035 C 
HETATM   24  C   UNL     1     -45.638 -47.833   8.744  1.00  0.00     0.008 C 
ENDBRANCH  22  23
BRANCH  22  25
HETATM   25  O   UNL     1     -42.963 -46.832   8.009  1.00  0.00    -0.388 OA
HETATM   26  H   UNL     1     -43.220 -47.430   7.279  1.00  0.00     0.210 HD
ENDBRANCH  22  25
ENDBRANCH   1  22
TORSDOF 8
ENDMDL
MODEL 8
REMARK VINA RESULT:      -5.7      2.401      3.978
REMARK  8 active torsions:
REMARK  status: ('A' for Active; 'I' for Inactive)
REMARK    1  A    between atoms: C_2  and  C_3 
REMARK    2  A    between atoms: C_3  and  O_4 
REMARK    3  A    between atoms: C_3  and  C_5 
REMARK    4  A    between atoms: N_14  and  C_15 
REMARK    5  A    between atoms: C_15  and  C_16 
REMARK    6  A    between atoms: C_16  and  O_17 
REMARK    7  A    between atoms: O_17  and  C_18 
REMARK    8  A    between atoms: C_23  and  O_24 
ROOT
HETATM    1  C   UNL     1     -40.748 -50.721  12.207  1.00  0.00     0.114 A 
HETATM    2  N   UNL     1     -40.533 -51.998  11.951  1.00  0.00    -0.342 N 
ATOM      3  HN  UNL     1     -39.933 -52.387  11.224  1.00  0.00     0.167 HD
HETATM    4  C   UNL     1     -41.277 -52.691  12.861  1.00  0.00     0.060 A 
HETATM    5  C   UNL     1     -41.355 -54.076  13.053  1.00  0.00     0.032 A 
HETATM    6  C   UNL     1     -42.220 -54.573  14.030  1.00  0.00     0.002 A 
HETATM    7  C   UNL     1     -43.009 -53.699  14.780  1.00  0.00     0.002 A 
HETATM    8  C   UNL     1     -42.928 -52.302  14.620  1.00  0.00     0.032 A 
HETATM    9  C   UNL     1     -42.020 -51.824  13.663  1.00  0.00     0.062 A 
HETATM   10  N   UNL     1     -41.617 -50.561  13.272  1.00  0.00    -0.331 N 
ENDROOT
BRANCH  10  11
HETATM   11  C   UNL     1     -41.979 -49.295  13.907  1.00  0.00     0.157 C 
BRANCH  11  12
HETATM   12  C   UNL     1     -43.014 -48.529  13.088  1.00  0.00     0.196 C 
BRANCH  12  13
HETATM   13  O   UNL     1     -42.943 -47.092  13.234  1.00  0.00    -0.347 OA
BRANCH  13  14
HETATM   14  C   UNL     1     -41.942 -46.493  12.480  1.00  0.00     0.102 A 
HETATM   15  C   UNL     1     -40.685 -46.186  13.048  1.00  0.00     0.039 A 
HETATM   16  C   UNL     1     -39.647 -45.613  12.310  1.00  0.00     0.003 A 
HETATM   17  C   UNL     1     -39.833 -45.331  10.972  1.00  0.00     0.003 A 
HETATM   18  C   UNL     1     -41.053 -45.644  10.377  1.00  0.00     0.039 A 
HETATM   19  C   UNL     1     -42.113 -46.224  11.108  1.00  0.00     0.101 A 
BRANCH  19  20
HETATM   20  O   UNL     1     -43.163 -46.503  10.280  1.00  0.00    -0.353 OA
HETATM   21  C   UNL     1     -43.142 -47.648   9.452  1.00  0.00     0.210 C 
ENDBRANCH  19  20
ENDBRANCH  13  14
ENDBRANCH  12  13
ENDBRANCH  11  12
ENDBRANCH  10  11
BRANCH   1  22
HETATM   22  C   UNL     1     -40.084 -49.616  11.449  1.00  0.00     0.185 C 
BRANCH  22  23
HETATM   23  C   UNL     1     -38.564 -49.655  11.628  1.00  0.00     0.035 C 
HETATM   24  C   UNL     1     -38.101 -49.015  12.928  1.00  0.00     0.008 C 
ENDBRANCH  22  23
BRANCH  22  25
HETATM   25  O   UNL     1     -40.385 -49.850  10.071  1.00  0.00    -0.388 OA
HETATM   26  H   UNL     1     -41.012 -49.142   9.821  1.00  0.00     0.210 HD
ENDBRANCH  22  25
ENDBRANCH   1  22
TORSDOF 8
ENDMDL
MODEL 9
REMARK VINA RESULT:      -5.7      4.291      7.165
REMARK  8 active torsions:
REMARK  status: ('A' for Active; 'I' for Inactive)
REMARK    1  A    between atoms: C_2  and  C_3 
REMARK    2  A    between atoms: C_3  and  O_4 
REMARK    3  A    between atoms: C_3  and  C_5 
REMARK    4  A    between atoms: N_14  and  C_15 
REMARK    5  A    between atoms: C_15  and  C_16 
REMARK    6  A    between atoms: C_16  and  O_17 
REMARK    7  A    between atoms: O_17  and  C_18 
REMARK    8  A    between atoms: C_23  and  O_24 
ROOT
HETATM    1  C   UNL     1     -42.730 -45.410  10.146  1.00  0.00     0.114 A 
HETATM    2  N   UNL     1     -43.368 -44.322  10.534  1.00  0.00    -0.342 N 
ATOM      3  HN  UNL     1     -44.275 -43.991  10.206  1.00  0.00     0.167 HD
HETATM    4  C   UNL     1     -42.563 -43.731  11.464  1.00  0.00     0.060 A 
HETATM    5  C   UNL     1     -42.806 -42.579  12.224  1.00  0.00     0.032 A 
HETATM    6  C   UNL     1     -41.816 -42.129  13.098  1.00  0.00     0.002 A 
HETATM    7  C   UNL     1     -40.598 -42.805  13.190  1.00  0.00     0.002 A 
HETATM    8  C   UNL     1     -40.343 -43.978  12.454  1.00  0.00     0.032 A 
HETATM    9  C   UNL     1     -41.369 -44.436  11.613  1.00  0.00     0.062 A 
HETATM   10  N   UNL     1     -41.523 -45.549  10.808  1.00  0.00    -0.331 N 
ENDROOT
BRANCH  10  11
HETATM   11  C   UNL     1     -40.618 -46.694  10.721  1.00  0.00     0.157 C 
BRANCH  11  12
HETATM   12  C   UNL     1     -41.103 -47.861  11.576  1.00  0.00     0.196 C 
BRANCH  12  13
HETATM   13  O   UNL     1     -40.807 -49.165  11.026  1.00  0.00    -0.347 OA
BRANCH  13  14
HETATM   14  C   UNL     1     -39.828 -49.866  11.718  1.00  0.00     0.102 A 
HETATM   15  C   UNL     1     -38.459 -49.551  11.567  1.00  0.00     0.039 A 
HETATM   16  C   UNL     1     -37.452 -50.214  12.271  1.00  0.00     0.003 A 
HETATM   17  C   UNL     1     -37.786 -51.217  13.160  1.00  0.00     0.003 A 
HETATM   18  C   UNL     1     -39.128 -51.533  13.350  1.00  0.00     0.039 A 
HETATM   19  C   UNL     1     -40.159 -50.873  12.647  1.00  0.00     0.101 A 
BRANCH  19  20
HETATM   20  O   UNL     1     -41.381 -51.312  13.071  1.00  0.00    -0.353 OA
HETATM   21  C   UNL     1     -42.118 -52.243  12.305  1.00  0.00     0.210 C 
ENDBRANCH  19  20
ENDBRANCH  13  14
ENDBRANCH  12  13
ENDBRANCH  11  12
ENDBRANCH  10  11
BRANCH   1  22
HETATM   22  C   UNL     1     -43.293 -46.372   9.148  1.00  0.00     0.185 C 
BRANCH  22  23
HETATM   23  C   UNL     1     -44.806 -46.197   9.002  1.00  0.00     0.035 C 
HETATM   24  C   UNL     1     -45.569 -47.510   9.089  1.00  0.00     0.008 C 
ENDBRANCH  22  23
BRANCH  22  25
HETATM   25  O   UNL     1     -42.675 -46.049   7.900  1.00  0.00    -0.388 OA
HETATM   26  H   UNL     1     -42.674 -45.071   7.859  1.00  0.00     0.210 HD
ENDBRANCH  22  25
ENDBRANCH   1  22
TORSDOF 8
ENDMDL
