MODEL 1
REMARK VINA RESULT:      -5.9      0.000      0.000
REMARK  3 active torsions:
REMARK  status: ('A' for Active; 'I' for Inactive)
REMARK    1  A    between atoms: C_5  and  N_8 
REMARK       I    between atoms: N_8  and  C_9 
REMARK    2  A    between atoms: C_9  and  C_11 
REMARK    3  A    between atoms: C_11  and  N_12 
ROOT
HETATM    1  N   UNL     1     -42.637 -45.102  11.141  1.00  0.00    -0.355 N 
HETATM    2  C   UNL     1     -43.129 -45.541   9.926  1.00  0.00     0.236 C 
HETATM    3  O   UNL     1     -43.589 -44.792   9.066  1.00  0.00    -0.272 OA
HETATM    4  H   UNL     1     -41.990 -45.727  11.619  1.00  0.00     0.162 HD
ENDROOT
BRANCH   2   5
HETATM    5  C   UNL     1     -43.012 -47.045   9.705  1.00  0.00     0.235 C 
BRANCH   5   6
HETATM    6  N   UNL     1     -44.211 -47.576   9.067  1.00  0.00    -0.301 N 
HETATM    7  C   UNL     1     -45.414 -47.551   9.737  1.00  0.00     0.097 A 
HETATM    8  C   UNL     1     -46.515 -48.058   9.184  1.00  0.00     0.034 A 
HETATM    9  C   UNL     1     -46.312 -48.632   7.849  1.00  0.00     0.094 A 
HETATM   10  N   UNL     1     -45.208 -48.629   7.183  1.00  0.00    -0.319 N 
HETATM   11  C   UNL     1     -44.100 -48.050   7.757  1.00  0.00     0.326 A 
ATOM     12  HN  UNL     1     -45.157 -49.045   6.253  1.00  0.00     0.170 HD
HETATM   13  O   UNL     1     -43.036 -47.952   7.144  1.00  0.00    -0.246 OA
ENDBRANCH   5   6
ENDBRANCH   2   5
BRANCH   1  14
HETATM   14  C   UNL     1     -42.619 -43.687  11.494  1.00  0.00     0.084 C 
HETATM   15  C   UNL     1     -41.357 -42.995  10.965  1.00  0.00     0.025 C 
HETATM   16  C   UNL     1     -40.102 -43.380  11.751  1.00  0.00     0.006 C 
HETATM   17  C   UNL     1     -40.252 -43.169  13.265  1.00  0.00    -0.019 C 
HETATM   18  C   UNL     1     -40.241 -41.682  13.634  1.00  0.00     0.010 C 
HETATM   19  C   UNL     1     -41.512 -43.873  13.788  1.00  0.00     0.006 C 
HETATM   20  C   UNL     1     -42.774 -43.501  13.008  1.00  0.00     0.025 C 
ENDBRANCH   1  14
TORSDOF 3
ENDMDL
MODEL 2
REMARK VINA RESULT:      -5.8      7.840      9.264
REMARK  3 active torsions:
REMARK  status: ('A' for Active; 'I' for Inactive)
REMARK    1  A    between atoms: C_5  and  N_8 
REMARK       I    between atoms: N_8  and  C_9 
REMARK    2  A    between atoms: C_9  and  C_11 
REMARK    3  A    between atoms: C_11  and  N_12 
ROOT
HETATM    1  N   UNL     1     -43.065 -54.186  13.824  1.00  0.00    -0.355 N 
HETATM    2  C   UNL     1     -43.906 -55.103  14.424  1.00  0.00     0.236 C 
HETATM    3  O   UNL     1     -43.536 -55.921  15.265  1.00  0.00    -0.272 OA
HETATM    4  H   UNL     1     -43.507 -53.362  13.420  1.00  0.00     0.162 HD
ENDROOT
BRANCH   2   5
HETATM    5  C   UNL     1     -45.367 -54.992  13.998  1.00  0.00     0.235 C 
BRANCH   5   6
HETATM    6  N   UNL     1     -45.907 -53.676  14.317  1.00  0.00    -0.301 N 
HETATM    7  C   UNL     1     -46.217 -53.358  15.621  1.00  0.00     0.097 A 
HETATM    8  C   UNL     1     -46.740 -52.172  15.930  1.00  0.00     0.034 A 
HETATM    9  C   UNL     1     -46.952 -51.287  14.779  1.00  0.00     0.094 A 
HETATM   10  N   UNL     1     -46.630 -51.542  13.557  1.00  0.00    -0.319 N 
HETATM   11  C   UNL     1     -46.042 -52.753  13.276  1.00  0.00     0.326 A 
ATOM     12  HN  UNL     1     -46.806 -50.863  12.817  1.00  0.00     0.170 HD
HETATM   13  O   UNL     1     -45.647 -53.027  12.142  1.00  0.00    -0.246 OA
ENDBRANCH   5   6
ENDBRANCH   2   5
BRANCH   1  14
HETATM   14  C   UNL     1     -41.647 -54.115  14.158  1.00  0.00     0.084 C 
HETATM   15  C   UNL     1     -41.346 -52.918  15.068  1.00  0.00     0.025 C 
HETATM   16  C   UNL     1     -41.411 -51.583  14.323  1.00  0.00     0.006 C 
HETATM   17  C   UNL     1     -40.531 -51.553  13.065  1.00  0.00    -0.019 C 
HETATM   18  C   UNL     1     -39.041 -51.485  13.417  1.00  0.00     0.010 C 
HETATM   19  C   UNL     1     -40.844 -52.749  12.155  1.00  0.00     0.006 C 
HETATM   20  C   UNL     1     -40.788 -54.090  12.888  1.00  0.00     0.025 C 
ENDBRANCH   1  14
TORSDOF 3
ENDMDL
MODEL 3
REMARK VINA RESULT:      -5.6      4.588      6.932
REMARK  3 active torsions:
REMARK  status: ('A' for Active; 'I' for Inactive)
REMARK    1  A    between atoms: C_5  and  N_8 
REMARK       I    between atoms: N_8  and  C_9 
REMARK    2  A    between atoms: C_9  and  C_11 
REMARK    3  A    between atoms: C_11  and  N_12 
ROOT
HETATM    1  N   UNL     1     -43.798 -49.809  13.393  1.00  0.00    -0.355 N 
HETATM    2  C   UNL     1     -42.829 -49.323  12.536  1.00  0.00     0.236 C 
HETATM    3  O   UNL     1     -42.026 -50.037  11.937  1.00  0.00    -0.272 OA
HETATM    4  H   UNL     1     -44.599 -49.203  13.562  1.00  0.00     0.162 HD
ENDROOT
BRANCH   2   5
HETATM    5  C   UNL     1     -42.860 -47.810  12.343  1.00  0.00     0.235 C 
BRANCH   5   6
HETATM    6  N   UNL     1     -43.206 -47.464  10.969  1.00  0.00    -0.301 N 
HETATM    7  C   UNL     1     -44.481 -47.695  10.502  1.00  0.00     0.097 A 
HETATM    8  C   UNL     1     -44.808 -47.415   9.242  1.00  0.00     0.034 A 
HETATM    9  C   UNL     1     -43.708 -46.871   8.437  1.00  0.00     0.094 A 
HETATM   10  N   UNL     1     -42.520 -46.604   8.861  1.00  0.00    -0.319 N 
HETATM   11  C   UNL     1     -42.226 -46.853  10.181  1.00  0.00     0.326 A 
ATOM     12  HN  UNL     1     -41.815 -46.218   8.234  1.00  0.00     0.170 HD
HETATM   13  O   UNL     1     -41.132 -46.555  10.663  1.00  0.00    -0.246 OA
ENDBRANCH   5   6
ENDBRANCH   2   5
BRANCH   1  14
HETATM   14  C   UNL     1     -43.947 -51.238  13.648  1.00  0.00     0.084 C 
HETATM   15  C   UNL     1     -45.006 -51.862  12.731  1.00  0.00     0.025 C 
HETATM   16  C   UNL     1     -46.431 -51.470  13.127  1.00  0.00     0.006 C 
HETATM   17  C   UNL     1     -46.745 -51.755  14.603  1.00  0.00    -0.019 C 
HETATM   18  C   UNL     1     -46.894 -53.256  14.872  1.00  0.00     0.010 C 
HETATM   19  C   UNL     1     -45.686 -51.119  15.515  1.00  0.00     0.006 C 
HETATM   20  C   UNL     1     -44.256 -51.497  15.127  1.00  0.00     0.025 C 
ENDBRANCH   1  14
TORSDOF 3
ENDMDL
MODEL 4
REMARK VINA RESULT:      -5.5      6.027      7.081
REMARK  3 active torsions:
REMARK  status: ('A' for Active; 'I' for Inactive)
REMARK    1  A    between atoms: C_5  and  N_8 
REMARK       I    between atoms: N_8  and  C_9 
REMARK    2  A    between atoms: C_9  and  C_11 
REMARK    3  A    between atoms: C_11  and  N_12 
ROOT
HETATM    1  N   UNL     1     -42.397 -51.144  12.120  1.00  0.00    -0.355 N 
HETATM    2  C   UNL     1     -42.716 -52.270  12.855  1.00  0.00     0.236 C 
HETATM    3  O   UNL     1     -42.120 -52.611  13.875  1.00  0.00    -0.272 OA
HETATM    4  H   UNL     1     -43.131 -50.773  11.519  1.00  0.00     0.162 HD
ENDROOT
BRANCH   2   5
HETATM    5  C   UNL     1     -43.916 -53.049  12.326  1.00  0.00     0.235 C 
BRANCH   5   6
HETATM    6  N   UNL     1     -45.073 -52.884  13.199  1.00  0.00    -0.301 N 
HETATM    7  C   UNL     1     -45.522 -51.621  13.515  1.00  0.00     0.097 A 
HETATM    8  C   UNL     1     -46.558 -51.448  14.335  1.00  0.00     0.034 A 
HETATM    9  C   UNL     1     -47.133 -52.695  14.853  1.00  0.00     0.094 A 
HETATM   10  N   UNL     1     -46.760 -53.889  14.539  1.00  0.00    -0.319 N 
HETATM   11  C   UNL     1     -45.723 -54.037  13.648  1.00  0.00     0.326 A 
ATOM     12  HN  UNL     1     -47.223 -54.703  14.942  1.00  0.00     0.170 HD
HETATM   13  O   UNL     1     -45.369 -55.149  13.255  1.00  0.00    -0.246 OA
ENDBRANCH   5   6
ENDBRANCH   2   5
BRANCH   1  14
HETATM   14  C   UNL     1     -41.312 -50.254  12.516  1.00  0.00     0.084 C 
HETATM   15  C   UNL     1     -41.789 -49.209  13.533  1.00  0.00     0.025 C 
HETATM   16  C   UNL     1     -42.669 -48.130  12.899  1.00  0.00     0.006 C 
HETATM   17  C   UNL     1     -42.014 -47.457  11.684  1.00  0.00    -0.019 C 
HETATM   18  C   UNL     1     -40.869 -46.527  12.100  1.00  0.00     0.010 C 
HETATM   19  C   UNL     1     -41.548 -48.508  10.667  1.00  0.00     0.006 C 
HETATM   20  C   UNL     1     -40.671 -49.596  11.288  1.00  0.00     0.025 C 
ENDBRANCH   1  14
TORSDOF 3
ENDMDL
MODEL 5
REMARK VINA RESULT:      -5.5      7.279      9.167
REMARK  3 active torsions:
REMARK  status: ('A' for Active; 'I' for Inactive)
REMARK    1  A    between atoms: C_5  and  N_8 
REMARK       I    between atoms: N_8  and  C_9 
REMARK    2  A    between atoms: C_9  and  C_11 
REMARK    3  A    between atoms: C_11  and  N_12 
ROOT
HETATM    1  N   UNL     1     -44.527 -53.729  14.810  1.00  0.00    -0.355 N 
HETATM    2  C   UNL     1     -44.157 -54.030  13.514  1.00  0.00     0.236 C 
HETATM    3  O   UNL     1     -44.953 -54.354  12.634  1.00  0.00    -0.272 OA
HETATM    4  H   UNL     1     -43.873 -53.162  15.348  1.00  0.00     0.162 HD
ENDROOT
BRANCH   2   5
HETATM    5  C   UNL     1     -42.665 -53.881  13.233  1.00  0.00     0.235 C 
BRANCH   5   6
HETATM    6  N   UNL     1     -42.345 -52.522  12.812  1.00  0.00    -0.301 N 
HETATM    7  C   UNL     1     -43.142 -51.473  13.210  1.00  0.00     0.097 A 
HETATM    8  C   UNL     1     -42.885 -50.228  12.812  1.00  0.00     0.034 A 
HETATM    9  C   UNL     1     -41.719 -50.104  11.929  1.00  0.00     0.094 A 
HETATM   10  N   UNL     1     -40.930 -51.063  11.577  1.00  0.00    -0.319 N 
HETATM   11  C   UNL     1     -41.190 -52.328  12.048  1.00  0.00     0.326 A 
ATOM     12  HN  UNL     1     -40.135 -50.886  10.965  1.00  0.00     0.170 HD
HETATM   13  O   UNL     1     -40.434 -53.271  11.806  1.00  0.00    -0.246 OA
ENDBRANCH   5   6
ENDBRANCH   2   5
BRANCH   1  14
HETATM   14  C   UNL     1     -45.921 -53.765  15.236  1.00  0.00     0.084 C 
HETATM   15  C   UNL     1     -46.758 -52.710  14.501  1.00  0.00     0.025 C 
HETATM   16  C   UNL     1     -46.471 -51.288  14.987  1.00  0.00     0.006 C 
HETATM   17  C   UNL     1     -46.604 -51.134  16.509  1.00  0.00    -0.019 C 
HETATM   18  C   UNL     1     -48.069 -51.180  16.957  1.00  0.00     0.010 C 
HETATM   19  C   UNL     1     -45.757 -52.186  17.237  1.00  0.00     0.006 C 
HETATM   20  C   UNL     1     -46.030 -53.613  16.758  1.00  0.00     0.025 C 
ENDBRANCH   1  14
TORSDOF 3
ENDMDL
MODEL 6
REMARK VINA RESULT:      -5.4      4.656      7.466
REMARK  3 active torsions:
REMARK  status: ('A' for Active; 'I' for Inactive)
REMARK    1  A    between atoms: C_5  and  N_8 
REMARK       I    between atoms: N_8  and  C_9 
REMARK    2  A    between atoms: C_9  and  C_11 
REMARK    3  A    between atoms: C_11  and  N_12 
ROOT
HETATM    1  N   UNL     1     -42.818 -50.380  12.299  1.00  0.00    -0.355 N 
HETATM    2  C   UNL     1     -41.636 -49.669  12.209  1.00  0.00     0.236 C 
HETATM    3  O   UNL     1     -40.797 -49.623  13.107  1.00  0.00    -0.272 OA
HETATM    4  H   UNL     1     -43.264 -50.629  11.417  1.00  0.00     0.162 HD
ENDROOT
BRANCH   2   5
HETATM    5  C   UNL     1     -41.421 -48.971  10.870  1.00  0.00     0.235 C 
BRANCH   5   6
HETATM    6  N   UNL     1     -41.570 -47.527  11.002  1.00  0.00    -0.301 N 
HETATM    7  C   UNL     1     -40.454 -46.726  11.091  1.00  0.00     0.097 A 
HETATM    8  C   UNL     1     -40.569 -45.407  11.243  1.00  0.00     0.034 A 
HETATM    9  C   UNL     1     -41.952 -44.925  11.315  1.00  0.00     0.094 A 
HETATM   10  N   UNL     1     -43.014 -45.647  11.189  1.00  0.00    -0.319 N 
HETATM   11  C   UNL     1     -42.864 -46.998  10.980  1.00  0.00     0.326 A 
ATOM     12  HN  UNL     1     -43.941 -45.227  11.244  1.00  0.00     0.170 HD
HETATM   13  O   UNL     1     -43.836 -47.728  10.782  1.00  0.00    -0.246 OA
ENDBRANCH   5   6
ENDBRANCH   2   5
BRANCH   1  14
HETATM   14  C   UNL     1     -43.158 -51.152  13.488  1.00  0.00     0.084 C 
HETATM   15  C   UNL     1     -42.952 -52.654  13.258  1.00  0.00     0.025 C 
HETATM   16  C   UNL     1     -44.023 -53.262  12.350  1.00  0.00     0.006 C 
HETATM   17  C   UNL     1     -45.452 -52.970  12.828  1.00  0.00    -0.019 C 
HETATM   18  C   UNL     1     -45.807 -53.776  14.082  1.00  0.00     0.010 C 
HETATM   19  C   UNL     1     -45.654 -51.464  13.047  1.00  0.00     0.006 C 
HETATM   20  C   UNL     1     -44.587 -50.842  13.949  1.00  0.00     0.025 C 
ENDBRANCH   1  14
TORSDOF 3
ENDMDL
MODEL 7
REMARK VINA RESULT:      -5.4      8.307      9.655
REMARK  3 active torsions:
REMARK  status: ('A' for Active; 'I' for Inactive)
REMARK    1  A    between atoms: C_5  and  N_8 
REMARK       I    between atoms: N_8  and  C_9 
REMARK    2  A    between atoms: C_9  and  C_11 
REMARK    3  A    between atoms: C_11  and  N_12 
ROOT
HETATM    1  N   UNL     1     -43.255 -53.847  13.787  1.00  0.00    -0.355 N 
HETATM    2  C   UNL     1     -44.534 -54.026  13.294  1.00  0.00     0.236 C 
HETATM    3  O   UNL     1     -44.862 -53.768  12.137  1.00  0.00    -0.272 OA
HETATM    4  H   UNL     1     -43.008 -54.389  14.613  1.00  0.00     0.162 HD
ENDROOT
BRANCH   2   5
HETATM    5  C   UNL     1     -45.516 -54.626  14.295  1.00  0.00     0.235 C 
BRANCH   5   6
HETATM    6  N   UNL     1     -46.015 -53.609  15.212  1.00  0.00    -0.301 N 
HETATM    7  C   UNL     1     -46.778 -52.566  14.735  1.00  0.00     0.097 A 
HETATM    8  C   UNL     1     -47.218 -51.610  15.552  1.00  0.00     0.034 A 
HETATM    9  C   UNL     1     -46.808 -51.774  16.951  1.00  0.00     0.094 A 
HETATM   10  N   UNL     1     -46.133 -52.763  17.432  1.00  0.00    -0.319 N 
HETATM   11  C   UNL     1     -45.738 -53.763  16.574  1.00  0.00     0.326 A 
ATOM     12  HN  UNL     1     -45.897 -52.802  18.423  1.00  0.00     0.170 HD
HETATM   13  O   UNL     1     -45.153 -54.766  16.984  1.00  0.00    -0.246 OA
ENDBRANCH   5   6
ENDBRANCH   2   5
BRANCH   1  14
HETATM   14  C   UNL     1     -42.176 -53.336  12.948  1.00  0.00     0.084 C 
HETATM   15  C   UNL     1     -40.906 -54.183  13.093  1.00  0.00     0.025 C 
HETATM   16  C   UNL     1     -40.200 -53.960  14.432  1.00  0.00     0.006 C 
HETATM   17  C   UNL     1     -39.909 -52.480  14.719  1.00  0.00    -0.019 C 
HETATM   18  C   UNL     1     -38.781 -51.942  13.833  1.00  0.00     0.010 C 
HETATM   19  C   UNL     1     -41.187 -51.639  14.582  1.00  0.00     0.006 C 
HETATM   20  C   UNL     1     -41.906 -51.857  13.250  1.00  0.00     0.025 C 
ENDBRANCH   1  14
TORSDOF 3
ENDMDL
MODEL 8
REMARK VINA RESULT:      -5.3      6.116      8.700
REMARK  3 active torsions:
REMARK  status: ('A' for Active; 'I' for Inactive)
REMARK    1  A    between atoms: C_5  and  N_8 
REMARK       I    between atoms: N_8  and  C_9 
REMARK    2  A    between atoms: C_9  and  C_11 
REMARK    3  A    between atoms: C_11  and  N_12 
ROOT
HETATM    1  N   UNL     1     -43.027 -51.774  12.572  1.00  0.00    -0.355 N 
HETATM    2  C   UNL     1     -41.651 -51.890  12.540  1.00  0.00     0.236 C 
HETATM    3  O   UNL     1     -41.028 -52.789  13.102  1.00  0.00    -0.272 OA
HETATM    4  H   UNL     1     -43.454 -51.226  11.826  1.00  0.00     0.162 HD
ENDROOT
BRANCH   2   5
HETATM    5  C   UNL     1     -40.949 -50.829  11.698  1.00  0.00     0.235 C 
BRANCH   5   6
HETATM    6  N   UNL     1     -40.167 -49.928  12.537  1.00  0.00    -0.301 N 
HETATM    7  C   UNL     1     -40.798 -48.940  13.260  1.00  0.00     0.097 A 
HETATM    8  C   UNL     1     -40.098 -48.089  14.008  1.00  0.00     0.034 A 
HETATM    9  C   UNL     1     -38.647 -48.298  13.968  1.00  0.00     0.094 A 
HETATM   10  N   UNL     1     -38.035 -49.241  13.336  1.00  0.00    -0.319 N 
HETATM   11  C   UNL     1     -38.787 -50.139  12.615  1.00  0.00     0.326 A 
ATOM     12  HN  UNL     1     -37.019 -49.319  13.368  1.00  0.00     0.170 HD
HETATM   13  O   UNL     1     -38.268 -51.102  12.048  1.00  0.00    -0.246 OA
ENDBRANCH   5   6
ENDBRANCH   2   5
BRANCH   1  14
HETATM   14  C   UNL     1     -43.860 -52.737  13.284  1.00  0.00     0.084 C 
HETATM   15  C   UNL     1     -45.240 -52.875  12.629  1.00  0.00     0.025 C 
HETATM   16  C   UNL     1     -46.135 -51.660  12.881  1.00  0.00     0.006 C 
HETATM   17  C   UNL     1     -46.266 -51.308  14.370  1.00  0.00    -0.019 C 
HETATM   18  C   UNL     1     -47.134 -52.324  15.118  1.00  0.00     0.010 C 
HETATM   19  C   UNL     1     -44.881 -51.162  15.016  1.00  0.00     0.006 C 
HETATM   20  C   UNL     1     -43.973 -52.367  14.768  1.00  0.00     0.025 C 
ENDBRANCH   1  14
TORSDOF 3
ENDMDL
MODEL 9
REMARK VINA RESULT:      -5.3      5.320      7.900
REMARK  3 active torsions:
REMARK  status: ('A' for Active; 'I' for Inactive)
REMARK    1  A    between atoms: C_5  and  N_8 
REMARK       I    between atoms: N_8  and  C_9 
REMARK    2  A    between atoms: C_9  and  C_11 
REMARK    3  A    between atoms: C_11  and  N_12 
ROOT
HETATM    1  N   UNL     1     -42.986 -51.117  12.659  1.00  0.00    -0.355 N 
HETATM    2  C   UNL     1     -42.162 -50.008  12.701  1.00  0.00     0.236 C 
HETATM    3  O   UNL     1     -42.064 -49.266  13.676  1.00  0.00    -0.272 OA
HETATM    4  H   UNL     1     -42.750 -51.831  11.973  1.00  0.00     0.162 HD
ENDROOT
BRANCH   2   5
HETATM    5  C   UNL     1     -41.328 -49.796  11.441  1.00  0.00     0.235 C 
BRANCH   5   6
HETATM    6  N   UNL     1     -41.407 -48.412  10.988  1.00  0.00    -0.301 N 
HETATM    7  C   UNL     1     -42.590 -47.920  10.484  1.00  0.00     0.097 A 
HETATM    8  C   UNL     1     -42.675 -46.668  10.037  1.00  0.00     0.034 A 
HETATM    9  C   UNL     1     -41.422 -45.909  10.123  1.00  0.00     0.094 A 
HETATM   10  N   UNL     1     -40.314 -46.331  10.630  1.00  0.00    -0.319 N 
HETATM   11  C   UNL     1     -40.271 -47.610  11.133  1.00  0.00     0.326 A 
ATOM     12  HN  UNL     1     -39.489 -45.732  10.657  1.00  0.00     0.170 HD
HETATM   13  O   UNL     1     -39.264 -48.046  11.694  1.00  0.00    -0.246 OA
ENDBRANCH   5   6
ENDBRANCH   2   5
BRANCH   1  14
HETATM   14  C   UNL     1     -43.811 -51.500  13.799  1.00  0.00     0.084 C 
HETATM   15  C   UNL     1     -43.315 -52.804  14.435  1.00  0.00     0.025 C 
HETATM   16  C   UNL     1     -43.629 -54.033  13.579  1.00  0.00     0.006 C 
HETATM   17  C   UNL     1     -45.113 -54.136  13.198  1.00  0.00    -0.019 C 
HETATM   18  C   UNL     1     -45.980 -54.532  14.398  1.00  0.00     0.010 C 
HETATM   19  C   UNL     1     -45.600 -52.831  12.554  1.00  0.00     0.006 C 
HETATM   20  C   UNL     1     -45.287 -51.593  13.396  1.00  0.00     0.025 C 
ENDBRANCH   1  14
TORSDOF 3
ENDMDL
