MODEL 1
REMARK VINA RESULT:      -6.3      0.000      0.000
REMARK  4 active torsions:
REMARK  status: ('A' for Active; 'I' for Inactive)
REMARK    1  A    between atoms: N_2  and  C_4 
REMARK    2  A    between atoms: N_8  and  C_9 
REMARK    3  A    between atoms: C_9  and  C_10 
REMARK       I    between atoms: C_10  and  N_12 
REMARK    4  A    between atoms: N_12  and  C_13 
ROOT
HETATM    1  C   UNL     1     -40.197 -50.136  11.374  1.00  0.00     0.234 C 
ENDROOT
BRANCH   1   2
HETATM    2  N   UNL     1     -40.173 -48.728  11.768  1.00  0.00    -0.314 N 
HETATM    3  C   UNL     1     -39.444 -48.339  12.882  1.00  0.00     0.095 C 
HETATM    4  C   UNL     1     -39.339 -47.050  13.229  1.00  0.00     0.020 C 
HETATM    5  C   UNL     1     -39.875 -46.030  12.358  1.00  0.00     0.043 C 
HETATM    6  C   UNL     1     -40.612 -46.389  11.293  1.00  0.00     0.170 C 
HETATM    7  C   UNL     1     -40.931 -47.815  11.021  1.00  0.00     0.281 C 
HETATM    8  O   UNL     1     -41.797 -48.175  10.226  1.00  0.00    -0.265 OA
BRANCH   6   9
HETATM    9  N   UNL     1     -40.984 -45.373  10.337  1.00  0.00    -0.110 N 
HETATM   10  O   UNL     1     -42.184 -45.072  10.257  1.00  0.00    -0.532 OA
HETATM   11  O   UNL     1     -40.080 -44.811   9.706  1.00  0.00    -0.532 OA
ENDBRANCH   6   9
ENDBRANCH   1   2
BRANCH   1  12
HETATM   12  C   UNL     1     -41.027 -50.999  12.312  1.00  0.00     0.236 C 
HETATM   13  O   UNL     1     -40.502 -51.672  13.198  1.00  0.00    -0.272 OA
HETATM   14  N   UNL     1     -42.393 -50.915  12.133  1.00  0.00    -0.355 N 
HETATM   15  H   UNL     1     -42.761 -50.172  11.547  1.00  0.00     0.162 HD
BRANCH  14  16
HETATM   16  C   UNL     1     -43.305 -51.653  13.003  1.00  0.00     0.084 C 
HETATM   17  C   UNL     1     -43.666 -53.002  12.368  1.00  0.00     0.025 C 
HETATM   18  C   UNL     1     -44.207 -53.997  13.392  1.00  0.00     0.002 C 
HETATM   19  C   UNL     1     -45.705 -53.911  13.670  1.00  0.00     0.000 C 
HETATM   20  C   UNL     1     -46.341 -52.525  13.701  1.00  0.00     0.000 C 
HETATM   21  C   UNL     1     -45.491 -51.430  14.338  1.00  0.00     0.002 C 
HETATM   22  C   UNL     1     -44.521 -50.786  13.348  1.00  0.00     0.025 C 
ENDBRANCH  14  16
ENDBRANCH   1  12
TORSDOF 4
ENDMDL
MODEL 2
REMARK VINA RESULT:      -6.0      3.025      7.548
REMARK  4 active torsions:
REMARK  status: ('A' for Active; 'I' for Inactive)
REMARK    1  A    between atoms: N_2  and  C_4 
REMARK    2  A    between atoms: N_8  and  C_9 
REMARK    3  A    between atoms: C_9  and  C_10 
REMARK       I    between atoms: C_10  and  N_12 
REMARK    4  A    between atoms: N_12  and  C_13 
ROOT
HETATM    1  C   UNL     1     -41.776 -52.604  11.959  1.00  0.00     0.234 C 
ENDROOT
BRANCH   1   2
HETATM    2  N   UNL     1     -42.291 -53.453  13.031  1.00  0.00    -0.314 N 
HETATM    3  C   UNL     1     -41.422 -53.954  13.990  1.00  0.00     0.095 C 
HETATM    4  C   UNL     1     -41.869 -54.672  15.027  1.00  0.00     0.020 C 
HETATM    5  C   UNL     1     -43.292 -54.816  15.236  1.00  0.00     0.043 C 
HETATM    6  C   UNL     1     -44.147 -54.365  14.303  1.00  0.00     0.170 C 
HETATM    7  C   UNL     1     -43.658 -53.768  13.033  1.00  0.00     0.281 C 
HETATM    8  O   UNL     1     -44.376 -53.581  12.053  1.00  0.00    -0.265 OA
BRANCH   6   9
HETATM    9  N   UNL     1     -45.557 -54.352  14.609  1.00  0.00    -0.110 N 
HETATM   10  O   UNL     1     -46.218 -55.360  14.316  1.00  0.00    -0.532 OA
HETATM   11  O   UNL     1     -46.013 -53.370  15.207  1.00  0.00    -0.532 OA
ENDBRANCH   6   9
ENDBRANCH   1   2
BRANCH   1  12
HETATM   12  C   UNL     1     -41.830 -51.122  12.300  1.00  0.00     0.236 C 
HETATM   13  O   UNL     1     -42.121 -50.734  13.431  1.00  0.00    -0.272 OA
HETATM   14  N   UNL     1     -41.471 -50.271  11.275  1.00  0.00    -0.355 N 
HETATM   15  H   UNL     1     -41.024 -50.662  10.452  1.00  0.00     0.162 HD
BRANCH  14  16
HETATM   16  C   UNL     1     -41.431 -48.826  11.488  1.00  0.00     0.084 C 
HETATM   17  C   UNL     1     -42.097 -48.100  10.312  1.00  0.00     0.025 C 
HETATM   18  C   UNL     1     -42.510 -46.674  10.671  1.00  0.00     0.002 C 
HETATM   19  C   UNL     1     -41.429 -45.611  10.504  1.00  0.00     0.000 C 
HETATM   20  C   UNL     1     -39.997 -45.993  10.869  1.00  0.00     0.000 C 
HETATM   21  C   UNL     1     -39.853 -46.889  12.094  1.00  0.00     0.002 C 
HETATM   22  C   UNL     1     -39.992 -48.374  11.758  1.00  0.00     0.025 C 
ENDBRANCH  14  16
ENDBRANCH   1  12
TORSDOF 4
ENDMDL
MODEL 3
REMARK VINA RESULT:      -5.7      3.521      4.218
REMARK  4 active torsions:
REMARK  status: ('A' for Active; 'I' for Inactive)
REMARK    1  A    between atoms: N_2  and  C_4 
REMARK    2  A    between atoms: N_8  and  C_9 
REMARK    3  A    between atoms: C_9  and  C_10 
REMARK       I    between atoms: C_10  and  N_12 
REMARK    4  A    between atoms: N_12  and  C_13 
ROOT
HETATM    1  C   UNL     1     -40.970 -52.528  11.891  1.00  0.00     0.234 C 
ENDROOT
BRANCH   1   2
HETATM    2  N   UNL     1     -40.239 -51.316  12.257  1.00  0.00    -0.314 N 
HETATM    3  C   UNL     1     -40.554 -50.112  11.644  1.00  0.00     0.095 C 
HETATM    4  C   UNL     1     -39.957 -48.970  12.006  1.00  0.00     0.020 C 
HETATM    5  C   UNL     1     -39.071 -48.958  13.148  1.00  0.00     0.043 C 
HETATM    6  C   UNL     1     -38.730 -50.118  13.733  1.00  0.00     0.170 C 
HETATM    7  C   UNL     1     -39.204 -51.421  13.198  1.00  0.00     0.281 C 
HETATM    8  O   UNL     1     -38.725 -52.503  13.529  1.00  0.00    -0.265 OA
BRANCH   6   9
HETATM    9  N   UNL     1     -37.995 -50.074  14.974  1.00  0.00    -0.110 N 
HETATM   10  O   UNL     1     -38.648 -50.082  16.029  1.00  0.00    -0.532 OA
HETATM   11  O   UNL     1     -36.760 -50.104  14.919  1.00  0.00    -0.532 OA
ENDBRANCH   6   9
ENDBRANCH   1   2
BRANCH   1  12
HETATM   12  C   UNL     1     -42.232 -52.729  12.718  1.00  0.00     0.236 C 
HETATM   13  O   UNL     1     -42.202 -52.718  13.948  1.00  0.00    -0.272 OA
HETATM   14  N   UNL     1     -43.397 -52.856  11.989  1.00  0.00    -0.355 N 
HETATM   15  H   UNL     1     -43.380 -52.624  11.001  1.00  0.00     0.162 HD
BRANCH  14  16
HETATM   16  C   UNL     1     -44.685 -53.002  12.664  1.00  0.00     0.084 C 
HETATM   17  C   UNL     1     -45.029 -51.716  13.428  1.00  0.00     0.025 C 
HETATM   18  C   UNL     1     -46.519 -51.616  13.748  1.00  0.00     0.002 C 
HETATM   19  C   UNL     1     -46.967 -52.306  15.033  1.00  0.00     0.000 C 
HETATM   20  C   UNL     1     -46.305 -53.633  15.392  1.00  0.00     0.000 C 
HETATM   21  C   UNL     1     -46.019 -54.559  14.215  1.00  0.00     0.002 C 
HETATM   22  C   UNL     1     -44.680 -54.259  13.541  1.00  0.00     0.025 C 
ENDBRANCH  14  16
ENDBRANCH   1  12
TORSDOF 4
ENDMDL
MODEL 4
REMARK VINA RESULT:      -5.7      3.946      4.682
REMARK  4 active torsions:
REMARK  status: ('A' for Active; 'I' for Inactive)
REMARK    1  A    between atoms: N_2  and  C_4 
REMARK    2  A    between atoms: N_8  and  C_9 
REMARK    3  A    between atoms: C_9  and  C_10 
REMARK       I    between atoms: C_10  and  N_12 
REMARK    4  A    between atoms: N_12  and  C_13 
ROOT
HETATM    1  C   UNL     1     -39.832 -53.562  15.567  1.00  0.00     0.234 C 
ENDROOT
BRANCH   1   2
HETATM    2  N   UNL     1     -39.070 -52.367  15.208  1.00  0.00    -0.314 N 
HETATM    3  C   UNL     1     -38.537 -51.566  16.208  1.00  0.00     0.095 C 
HETATM    4  C   UNL     1     -37.772 -50.507  15.917  1.00  0.00     0.020 C 
HETATM    5  C   UNL     1     -37.375 -50.267  14.548  1.00  0.00     0.043 C 
HETATM    6  C   UNL     1     -37.907 -51.012  13.565  1.00  0.00     0.170 C 
HETATM    7  C   UNL     1     -38.937 -52.045  13.849  1.00  0.00     0.281 C 
HETATM    8  O   UNL     1     -39.632 -52.566  12.980  1.00  0.00    -0.265 OA
BRANCH   6   9
HETATM    9  N   UNL     1     -37.367 -50.882  12.233  1.00  0.00    -0.110 N 
HETATM   10  O   UNL     1     -36.678 -51.817  11.798  1.00  0.00    -0.532 OA
HETATM   11  O   UNL     1     -37.680 -49.882  11.574  1.00  0.00    -0.532 OA
ENDBRANCH   6   9
ENDBRANCH   1   2
BRANCH   1  12
HETATM   12  C   UNL     1     -41.266 -53.249  15.970  1.00  0.00     0.236 C 
HETATM   13  O   UNL     1     -41.560 -52.970  17.132  1.00  0.00    -0.272 OA
HETATM   14  N   UNL     1     -42.178 -53.241  14.935  1.00  0.00    -0.355 N 
HETATM   15  H   UNL     1     -41.831 -53.250  13.981  1.00  0.00     0.162 HD
BRANCH  14  16
HETATM   16  C   UNL     1     -43.579 -52.904  15.180  1.00  0.00     0.084 C 
HETATM   17  C   UNL     1     -44.496 -53.896  14.453  1.00  0.00     0.025 C 
HETATM   18  C   UNL     1     -45.911 -53.903  15.028  1.00  0.00     0.002 C 
HETATM   19  C   UNL     1     -46.862 -52.855  14.456  1.00  0.00     0.000 C 
HETATM   20  C   UNL     1     -46.289 -51.478  14.137  1.00  0.00     0.000 C 
HETATM   21  C   UNL     1     -45.255 -50.955  15.129  1.00  0.00     0.002 C 
HETATM   22  C   UNL     1     -43.839 -51.439  14.815  1.00  0.00     0.025 C 
ENDBRANCH  14  16
ENDBRANCH   1  12
TORSDOF 4
ENDMDL
MODEL 5
REMARK VINA RESULT:      -5.6      1.816      2.203
REMARK  4 active torsions:
REMARK  status: ('A' for Active; 'I' for Inactive)
REMARK    1  A    between atoms: N_2  and  C_4 
REMARK    2  A    between atoms: N_8  and  C_9 
REMARK    3  A    between atoms: C_9  and  C_10 
REMARK       I    between atoms: C_10  and  N_12 
REMARK    4  A    between atoms: N_12  and  C_13 
ROOT
HETATM    1  C   UNL     1     -40.426 -50.159  11.429  1.00  0.00     0.234 C 
ENDROOT
BRANCH   1   2
HETATM    2  N   UNL     1     -40.560 -48.704  11.379  1.00  0.00    -0.314 N 
HETATM    3  C   UNL     1     -41.528 -48.130  10.567  1.00  0.00     0.095 C 
HETATM    4  C   UNL     1     -41.729 -46.806  10.553  1.00  0.00     0.020 C 
HETATM    5  C   UNL     1     -41.027 -45.968  11.496  1.00  0.00     0.043 C 
HETATM    6  C   UNL     1     -40.064 -46.501  12.267  1.00  0.00     0.170 C 
HETATM    7  C   UNL     1     -39.668 -47.927  12.133  1.00  0.00     0.281 C 
HETATM    8  O   UNL     1     -38.641 -48.393  12.618  1.00  0.00    -0.265 OA
BRANCH   6   9
HETATM    9  N   UNL     1     -39.503 -45.695  13.325  1.00  0.00    -0.110 N 
HETATM   10  O   UNL     1     -38.804 -44.724  12.999  1.00  0.00    -0.532 OA
HETATM   11  O   UNL     1     -39.807 -45.974  14.491  1.00  0.00    -0.532 OA
ENDBRANCH   6   9
ENDBRANCH   1   2
BRANCH   1  12
HETATM   12  C   UNL     1     -41.280 -50.794  12.516  1.00  0.00     0.236 C 
HETATM   13  O   UNL     1     -40.950 -50.749  13.700  1.00  0.00    -0.272 OA
HETATM   14  N   UNL     1     -42.463 -51.356  12.080  1.00  0.00    -0.355 N 
HETATM   15  H   UNL     1     -42.778 -51.154  11.137  1.00  0.00     0.162 HD
BRANCH  14  16
HETATM   16  C   UNL     1     -43.398 -51.952  13.031  1.00  0.00     0.084 C 
HETATM   17  C   UNL     1     -43.940 -53.277  12.479  1.00  0.00     0.025 C 
HETATM   18  C   UNL     1     -44.527 -54.164  13.575  1.00  0.00     0.002 C 
HETATM   19  C   UNL     1     -45.988 -53.900  13.928  1.00  0.00     0.000 C 
HETATM   20  C   UNL     1     -46.466 -52.451  13.927  1.00  0.00     0.000 C 
HETATM   21  C   UNL     1     -45.467 -51.434  14.467  1.00  0.00     0.002 C 
HETATM   22  C   UNL     1     -44.491 -50.942  13.398  1.00  0.00     0.025 C 
ENDBRANCH  14  16
ENDBRANCH   1  12
TORSDOF 4
ENDMDL
MODEL 6
REMARK VINA RESULT:      -5.6      2.323      3.285
REMARK  4 active torsions:
REMARK  status: ('A' for Active; 'I' for Inactive)
REMARK    1  A    between atoms: N_2  and  C_4 
REMARK    2  A    between atoms: N_8  and  C_9 
REMARK    3  A    between atoms: C_9  and  C_10 
REMARK       I    between atoms: C_10  and  N_12 
REMARK    4  A    between atoms: N_12  and  C_13 
ROOT
HETATM    1  C   UNL     1     -42.432 -48.611  12.374  1.00  0.00     0.234 C 
ENDROOT
BRANCH   1   2
HETATM    2  N   UNL     1     -40.991 -48.452  12.559  1.00  0.00    -0.314 N 
HETATM    3  C   UNL     1     -40.513 -47.497  13.445  1.00  0.00     0.095 C 
HETATM    4  C   UNL     1     -39.203 -47.373  13.695  1.00  0.00     0.020 C 
HETATM    5  C   UNL     1     -38.277 -48.336  13.144  1.00  0.00     0.043 C 
HETATM    6  C   UNL     1     -38.718 -49.246  12.259  1.00  0.00     0.170 C 
HETATM    7  C   UNL     1     -40.129 -49.252  11.794  1.00  0.00     0.281 C 
HETATM    8  O   UNL     1     -40.516 -49.883  10.814  1.00  0.00    -0.265 OA
BRANCH   6   9
HETATM    9  N   UNL     1     -37.824 -50.307  11.860  1.00  0.00    -0.110 N 
HETATM   10  O   UNL     1     -37.866 -51.366  12.504  1.00  0.00    -0.532 OA
HETATM   11  O   UNL     1     -37.121 -50.128  10.858  1.00  0.00    -0.532 OA
ENDBRANCH   6   9
ENDBRANCH   1   2
BRANCH   1  12
HETATM   12  C   UNL     1     -43.035 -49.655  13.304  1.00  0.00     0.236 C 
HETATM   13  O   UNL     1     -43.474 -49.350  14.412  1.00  0.00    -0.272 OA
HETATM   14  N   UNL     1     -43.106 -50.931  12.785  1.00  0.00    -0.355 N 
HETATM   15  H   UNL     1     -42.943 -51.062  11.792  1.00  0.00     0.162 HD
BRANCH  14  16
HETATM   16  C   UNL     1     -43.712 -52.015  13.556  1.00  0.00     0.084 C 
HETATM   17  C   UNL     1     -42.786 -53.238  13.565  1.00  0.00     0.025 C 
HETATM   18  C   UNL     1     -43.113 -54.202  14.704  1.00  0.00     0.002 C 
HETATM   19  C   UNL     1     -44.201 -55.230  14.408  1.00  0.00     0.000 C 
HETATM   20  C   UNL     1     -45.390 -54.780  13.565  1.00  0.00     0.000 C 
HETATM   21  C   UNL     1     -45.883 -53.363  13.836  1.00  0.00     0.002 C 
HETATM   22  C   UNL     1     -45.121 -52.310  13.031  1.00  0.00     0.025 C 
ENDBRANCH  14  16
ENDBRANCH   1  12
TORSDOF 4
ENDMDL
MODEL 7
REMARK VINA RESULT:      -5.5      1.706      2.512
REMARK  4 active torsions:
REMARK  status: ('A' for Active; 'I' for Inactive)
REMARK    1  A    between atoms: N_2  and  C_4 
REMARK    2  A    between atoms: N_8  and  C_9 
REMARK    3  A    between atoms: C_9  and  C_10 
REMARK       I    between atoms: C_10  and  N_12 
REMARK    4  A    between atoms: N_12  and  C_13 
ROOT
HETATM    1  C   UNL     1     -41.455 -48.696  13.081  1.00  0.00     0.234 C 
ENDROOT
BRANCH   1   2
HETATM    2  N   UNL     1     -41.716 -47.771  11.980  1.00  0.00    -0.314 N 
HETATM    3  C   UNL     1     -42.962 -47.765  11.368  1.00  0.00     0.095 C 
HETATM    4  C   UNL     1     -43.261 -46.882  10.407  1.00  0.00     0.020 C 
HETATM    5  C   UNL     1     -42.327 -45.826  10.092  1.00  0.00     0.043 C 
HETATM    6  C   UNL     1     -41.105 -45.834  10.651  1.00  0.00     0.170 C 
HETATM    7  C   UNL     1     -40.673 -46.938  11.547  1.00  0.00     0.281 C 
HETATM    8  O   UNL     1     -39.504 -47.128  11.873  1.00  0.00    -0.265 OA
BRANCH   6   9
HETATM    9  N   UNL     1     -40.256 -44.682  10.469  1.00  0.00    -0.110 N 
HETATM   10  O   UNL     1     -40.200 -43.857  11.394  1.00  0.00    -0.532 OA
HETATM   11  O   UNL     1     -39.578 -44.617   9.436  1.00  0.00    -0.532 OA
ENDBRANCH   6   9
ENDBRANCH   1   2
BRANCH   1  12
HETATM   12  C   UNL     1     -41.792 -50.139  12.735  1.00  0.00     0.236 C 
HETATM   13  O   UNL     1     -41.205 -50.737  11.834  1.00  0.00    -0.272 OA
HETATM   14  N   UNL     1     -42.746 -50.727  13.540  1.00  0.00    -0.355 N 
HETATM   15  H   UNL     1     -43.015 -50.257  14.398  1.00  0.00     0.162 HD
BRANCH  14  16
HETATM   16  C   UNL     1     -43.123 -52.126  13.345  1.00  0.00     0.084 C 
HETATM   17  C   UNL     1     -44.645 -52.283  13.454  1.00  0.00     0.025 C 
HETATM   18  C   UNL     1     -45.140 -53.577  12.810  1.00  0.00     0.002 C 
HETATM   19  C   UNL     1     -45.111 -54.813  13.704  1.00  0.00     0.000 C 
HETATM   20  C   UNL     1     -43.937 -54.965  14.666  1.00  0.00     0.000 C 
HETATM   21  C   UNL     1     -42.585 -54.517  14.121  1.00  0.00     0.002 C 
HETATM   22  C   UNL     1     -42.338 -53.021  14.311  1.00  0.00     0.025 C 
ENDBRANCH  14  16
ENDBRANCH   1  12
TORSDOF 4
ENDMDL
MODEL 8
REMARK VINA RESULT:      -5.5      3.854      7.696
REMARK  4 active torsions:
REMARK  status: ('A' for Active; 'I' for Inactive)
REMARK    1  A    between atoms: N_2  and  C_4 
REMARK    2  A    between atoms: N_8  and  C_9 
REMARK    3  A    between atoms: C_9  and  C_10 
REMARK       I    between atoms: C_10  and  N_12 
REMARK    4  A    between atoms: N_12  and  C_13 
ROOT
HETATM    1  C   UNL     1     -43.221 -51.315  16.540  1.00  0.00     0.234 C 
ENDROOT
BRANCH   1   2
HETATM    2  N   UNL     1     -44.381 -51.807  15.799  1.00  0.00    -0.314 N 
HETATM    3  C   UNL     1     -45.482 -50.982  15.618  1.00  0.00     0.095 C 
HETATM    4  C   UNL     1     -46.531 -51.372  14.883  1.00  0.00     0.020 C 
HETATM    5  C   UNL     1     -46.464 -52.614  14.148  1.00  0.00     0.043 C 
HETATM    6  C   UNL     1     -45.421 -53.440  14.336  1.00  0.00     0.170 C 
HETATM    7  C   UNL     1     -44.358 -53.127  15.325  1.00  0.00     0.281 C 
HETATM    8  O   UNL     1     -43.534 -53.950  15.717  1.00  0.00    -0.265 OA
BRANCH   6   9
HETATM    9  N   UNL     1     -45.281 -54.582  13.465  1.00  0.00    -0.110 N 
HETATM   10  O   UNL     1     -44.678 -54.417  12.394  1.00  0.00    -0.532 OA
HETATM   11  O   UNL     1     -45.703 -55.674  13.866  1.00  0.00    -0.532 OA
ENDBRANCH   6   9
ENDBRANCH   1   2
BRANCH   1  12
HETATM   12  C   UNL     1     -42.249 -50.535  15.666  1.00  0.00     0.236 C 
HETATM   13  O   UNL     1     -42.406 -49.335  15.445  1.00  0.00    -0.272 OA
HETATM   14  N   UNL     1     -41.166 -51.255  15.207  1.00  0.00    -0.355 N 
HETATM   15  H   UNL     1     -40.979 -52.165  15.615  1.00  0.00     0.162 HD
BRANCH  14  16
HETATM   16  C   UNL     1     -40.131 -50.610  14.401  1.00  0.00     0.084 C 
HETATM   17  C   UNL     1     -40.388 -50.864  12.910  1.00  0.00     0.025 C 
HETATM   18  C   UNL     1     -39.657 -49.862  12.019  1.00  0.00     0.002 C 
HETATM   19  C   UNL     1     -38.217 -50.220  11.666  1.00  0.00     0.000 C 
HETATM   20  C   UNL     1     -37.366 -50.882  12.745  1.00  0.00     0.000 C 
HETATM   21  C   UNL     1     -37.584 -50.359  14.161  1.00  0.00     0.002 C 
HETATM   22  C   UNL     1     -38.743 -51.055  14.874  1.00  0.00     0.025 C 
ENDBRANCH  14  16
ENDBRANCH   1  12
TORSDOF 4
ENDMDL
MODEL 9
REMARK VINA RESULT:      -5.4      3.373      7.523
REMARK  4 active torsions:
REMARK  status: ('A' for Active; 'I' for Inactive)
REMARK    1  A    between atoms: N_2  and  C_4 
REMARK    2  A    between atoms: N_8  and  C_9 
REMARK    3  A    between atoms: C_9  and  C_10 
REMARK       I    between atoms: C_10  and  N_12 
REMARK    4  A    between atoms: N_12  and  C_13 
ROOT
HETATM    1  C   UNL     1     -43.146 -50.868  15.869  1.00  0.00     0.234 C 
ENDROOT
BRANCH   1   2
HETATM    2  N   UNL     1     -44.356 -51.559  15.428  1.00  0.00    -0.314 N 
HETATM    3  C   UNL     1     -45.573 -50.893  15.445  1.00  0.00     0.095 C 
HETATM    4  C   UNL     1     -46.688 -51.469  14.978  1.00  0.00     0.020 C 
HETATM    5  C   UNL     1     -46.606 -52.751  14.317  1.00  0.00     0.043 C 
HETATM    6  C   UNL     1     -45.443 -53.424  14.320  1.00  0.00     0.170 C 
HETATM    7  C   UNL     1     -44.250 -52.901  15.034  1.00  0.00     0.281 C 
HETATM    8  O   UNL     1     -43.258 -53.582  15.284  1.00  0.00    -0.265 OA
BRANCH   6   9
HETATM    9  N   UNL     1     -45.332 -54.610  13.505  1.00  0.00    -0.110 N 
HETATM   10  O   UNL     1     -45.857 -55.650  13.929  1.00  0.00    -0.532 OA
HETATM   11  O   UNL     1     -44.783 -54.506  12.401  1.00  0.00    -0.532 OA
ENDBRANCH   6   9
ENDBRANCH   1   2
BRANCH   1  12
HETATM   12  C   UNL     1     -42.252 -50.443  14.713  1.00  0.00     0.236 C 
HETATM   13  O   UNL     1     -41.256 -51.094  14.399  1.00  0.00    -0.272 OA
HETATM   14  N   UNL     1     -42.679 -49.329  14.020  1.00  0.00    -0.355 N 
HETATM   15  H   UNL     1     -43.620 -48.986  14.185  1.00  0.00     0.162 HD
BRANCH  14  16
HETATM   16  C   UNL     1     -41.939 -48.848  12.855  1.00  0.00     0.084 C 
HETATM   17  C   UNL     1     -40.939 -47.763  13.276  1.00  0.00     0.025 C 
HETATM   18  C   UNL     1     -39.836 -47.562  12.240  1.00  0.00     0.002 C 
HETATM   19  C   UNL     1     -40.161 -46.594  11.106  1.00  0.00     0.000 C 
HETATM   20  C   UNL     1     -41.585 -46.599  10.558  1.00  0.00     0.000 C 
HETATM   21  C   UNL     1     -42.241 -47.972  10.457  1.00  0.00     0.002 C 
HETATM   22  C   UNL     1     -42.914 -48.400  11.761  1.00  0.00     0.025 C 
ENDBRANCH  14  16
ENDBRANCH   1  12
TORSDOF 4
ENDMDL
