MODEL 1
REMARK VINA RESULT:      -6.1      0.000      0.000
REMARK  3 active torsions:
REMARK  status: ('A' for Active; 'I' for Inactive)
REMARK       I    between atoms: C_2  and  N_3 
REMARK    1  A    between atoms: C_2  and  C_15 
REMARK    2  A    between atoms: N_3  and  C_4 
REMARK    3  A    between atoms: C_8  and  N_9 
ROOT
HETATM    1  C   UNL     1     -41.907 -54.351  14.298  1.00  0.00     0.107 C 
HETATM    2  C   UNL     1     -41.512 -53.794  15.665  1.00  0.00     0.027 C 
HETATM    3  C   UNL     1     -39.999 -53.981  15.768  1.00  0.00     0.004 C 
HETATM    4  C   UNL     1     -39.525 -54.480  14.400  1.00  0.00     0.028 C 
HETATM    5  C   UNL     1     -40.657 -54.146  13.419  1.00  0.00     0.113 C 
ENDROOT
BRANCH   1   6
HETATM    6  N   UNL     1     -43.134 -53.758  13.796  1.00  0.00    -0.354 N 
HETATM    7  C   UNL     1     -44.375 -54.290  14.070  1.00  0.00     0.222 C 
HETATM    8  O   UNL     1     -44.510 -55.335  14.702  1.00  0.00    -0.273 OA
HETATM    9  H   UNL     1     -43.068 -52.954  13.181  1.00  0.00     0.162 HD
BRANCH   7  10
HETATM   10  C   UNL     1     -45.551 -53.507  13.469  1.00  0.00     0.078 C 
HETATM   11  C   UNL     1     -45.208 -52.046  13.135  1.00  0.00     0.014 C 
HETATM   12  C   UNL     1     -45.095 -51.157  14.372  1.00  0.00     0.001 C 
HETATM   13  C   UNL     1     -46.324 -51.254  15.269  1.00  0.00     0.000 C 
HETATM   14  C   UNL     1     -46.652 -52.699  15.627  1.00  0.00     0.001 C 
HETATM   15  C   UNL     1     -46.793 -53.568  14.373  1.00  0.00     0.014 C 
ENDBRANCH   7  10
ENDBRANCH   1   6
BRANCH   5  16
HETATM   16  N   UNL     1     -40.566 -52.834  12.799  1.00  0.00    -0.345 N 
HETATM   17  C   UNL     1     -39.838 -51.746  13.193  1.00  0.00     0.109 A 
HETATM   18  C   UNL     1     -40.141 -50.758  12.286  1.00  0.00     0.106 A 
HETATM   19  N   UNL     1     -41.030 -51.216  11.351  1.00  0.00    -0.361 N 
HETATM   20  C   UNL     1     -41.249 -52.471  11.670  1.00  0.00     0.183 A 
ATOM     21  HN  UNL     1     -41.435 -50.694  10.574  1.00  0.00     0.166 HD
ENDBRANCH   5  16
TORSDOF 3
ENDMDL
MODEL 2
REMARK VINA RESULT:      -5.7      1.967      3.583
REMARK  3 active torsions:
REMARK  status: ('A' for Active; 'I' for Inactive)
REMARK       I    between atoms: C_2  and  N_3 
REMARK    1  A    between atoms: C_2  and  C_15 
REMARK    2  A    between atoms: N_3  and  C_4 
REMARK    3  A    between atoms: C_8  and  N_9 
ROOT
HETATM    1  C   UNL     1     -42.865 -49.955  13.661  1.00  0.00     0.107 C 
HETATM    2  C   UNL     1     -42.391 -49.106  12.481  1.00  0.00     0.027 C 
HETATM    3  C   UNL     1     -40.906 -48.842  12.730  1.00  0.00     0.004 C 
HETATM    4  C   UNL     1     -40.511 -49.680  13.950  1.00  0.00     0.028 C 
HETATM    5  C   UNL     1     -41.612 -50.736  14.106  1.00  0.00     0.113 C 
ENDROOT
BRANCH   1   6
HETATM    6  N   UNL     1     -44.026 -50.761  13.328  1.00  0.00    -0.354 N 
HETATM    7  C   UNL     1     -45.005 -51.059  14.249  1.00  0.00     0.222 C 
HETATM    8  O   UNL     1     -44.920 -50.713  15.425  1.00  0.00    -0.273 OA
HETATM    9  H   UNL     1     -44.088 -51.159  12.397  1.00  0.00     0.162 HD
BRANCH   7  10
HETATM   10  C   UNL     1     -46.163 -51.904  13.699  1.00  0.00     0.078 C 
HETATM   11  C   UNL     1     -46.859 -52.761  14.769  1.00  0.00     0.014 C 
HETATM   12  C   UNL     1     -46.031 -53.966  15.207  1.00  0.00     0.001 C 
HETATM   13  C   UNL     1     -45.570 -54.812  14.024  1.00  0.00     0.000 C 
HETATM   14  C   UNL     1     -44.853 -53.972  12.973  1.00  0.00     0.001 C 
HETATM   15  C   UNL     1     -45.712 -52.786  12.524  1.00  0.00     0.014 C 
ENDBRANCH   7  10
ENDBRANCH   1   6
BRANCH   5  16
HETATM   16  N   UNL     1     -41.385 -51.973  13.376  1.00  0.00    -0.345 N 
HETATM   17  C   UNL     1     -41.412 -53.260  13.837  1.00  0.00     0.109 A 
HETATM   18  C   UNL     1     -41.091 -54.042  12.753  1.00  0.00     0.106 A 
HETATM   19  N   UNL     1     -40.873 -53.267  11.646  1.00  0.00    -0.361 N 
HETATM   20  C   UNL     1     -41.079 -52.032  12.043  1.00  0.00     0.183 A 
ATOM     21  HN  UNL     1     -40.607 -53.581  10.712  1.00  0.00     0.166 HD
ENDBRANCH   5  16
TORSDOF 3
ENDMDL
MODEL 3
REMARK VINA RESULT:      -5.5      1.296      1.571
REMARK  3 active torsions:
REMARK  status: ('A' for Active; 'I' for Inactive)
REMARK       I    between atoms: C_2  and  N_3 
REMARK    1  A    between atoms: C_2  and  C_15 
REMARK    2  A    between atoms: N_3  and  C_4 
REMARK    3  A    between atoms: C_8  and  N_9 
ROOT
HETATM    1  C   UNL     1     -41.253 -53.056  14.933  1.00  0.00     0.107 C 
HETATM    2  C   UNL     1     -41.432 -51.933  15.954  1.00  0.00     0.027 C 
HETATM    3  C   UNL     1     -40.022 -51.454  16.297  1.00  0.00     0.004 C 
HETATM    4  C   UNL     1     -39.068 -52.185  15.347  1.00  0.00     0.028 C 
HETATM    5  C   UNL     1     -39.942 -52.708  14.199  1.00  0.00     0.113 C 
ENDROOT
BRANCH   1   6
HETATM    6  N   UNL     1     -42.423 -53.224  14.089  1.00  0.00    -0.354 N 
HETATM    7  C   UNL     1     -43.249 -54.321  14.185  1.00  0.00     0.222 C 
HETATM    8  O   UNL     1     -43.007 -55.254  14.947  1.00  0.00    -0.273 OA
HETATM    9  H   UNL     1     -42.605 -52.531  13.370  1.00  0.00     0.162 HD
BRANCH   7  10
HETATM   10  C   UNL     1     -44.446 -54.305  13.223  1.00  0.00     0.078 C 
HETATM   11  C   UNL     1     -44.907 -52.889  12.843  1.00  0.00     0.014 C 
HETATM   12  C   UNL     1     -45.652 -52.177  13.969  1.00  0.00     0.001 C 
HETATM   13  C   UNL     1     -46.803 -53.012  14.521  1.00  0.00     0.000 C 
HETATM   14  C   UNL     1     -46.344 -54.409  14.926  1.00  0.00     0.001 C 
HETATM   15  C   UNL     1     -45.627 -55.119  13.774  1.00  0.00     0.014 C 
ENDBRANCH   7  10
ENDBRANCH   1   6
BRANCH   5  16
HETATM   16  N   UNL     1     -40.103 -51.791  13.083  1.00  0.00    -0.345 N 
HETATM   17  C   UNL     1     -39.626 -50.518  12.940  1.00  0.00     0.109 A 
HETATM   18  C   UNL     1     -40.098 -50.087  11.723  1.00  0.00     0.106 A 
HETATM   19  N   UNL     1     -40.845 -51.062  11.121  1.00  0.00    -0.361 N 
HETATM   20  C   UNL     1     -40.812 -52.081  11.948  1.00  0.00     0.183 A 
ATOM     21  HN  UNL     1     -41.324 -51.010  10.222  1.00  0.00     0.166 HD
ENDBRANCH   5  16
TORSDOF 3
ENDMDL
MODEL 4
REMARK VINA RESULT:      -5.3      3.405      5.606
REMARK  3 active torsions:
REMARK  status: ('A' for Active; 'I' for Inactive)
REMARK       I    between atoms: C_2  and  N_3 
REMARK    1  A    between atoms: C_2  and  C_15 
REMARK    2  A    between atoms: N_3  and  C_4 
REMARK    3  A    between atoms: C_8  and  N_9 
ROOT
HETATM    1  C   UNL     1     -41.671 -51.509  12.793  1.00  0.00     0.107 C 
HETATM    2  C   UNL     1     -41.296 -52.704  11.917  1.00  0.00     0.027 C 
HETATM    3  C   UNL     1     -41.500 -53.940  12.791  1.00  0.00     0.004 C 
HETATM    4  C   UNL     1     -42.150 -53.455  14.090  1.00  0.00     0.028 C 
HETATM    5  C   UNL     1     -42.718 -52.065  13.779  1.00  0.00     0.113 C 
ENDROOT
BRANCH   1   6
HETATM    6  N   UNL     1     -42.092 -50.361  12.008  1.00  0.00    -0.354 N 
HETATM    7  C   UNL     1     -41.219 -49.362  11.640  1.00  0.00     0.222 C 
HETATM    8  O   UNL     1     -40.048 -49.350  12.011  1.00  0.00    -0.273 OA
HETATM    9  H   UNL     1     -43.073 -50.272  11.767  1.00  0.00     0.162 HD
BRANCH   7  10
HETATM   10  C   UNL     1     -41.848 -48.246  10.792  1.00  0.00     0.078 C 
HETATM   11  C   UNL     1     -40.965 -46.993  10.675  1.00  0.00     0.014 C 
HETATM   12  C   UNL     1     -40.927 -46.162  11.955  1.00  0.00     0.001 C 
HETATM   13  C   UNL     1     -42.323 -45.817  12.463  1.00  0.00     0.000 C 
HETATM   14  C   UNL     1     -43.194 -47.060  12.609  1.00  0.00     0.001 C 
HETATM   15  C   UNL     1     -43.245 -47.864  11.306  1.00  0.00     0.014 C 
ENDBRANCH   7  10
ENDBRANCH   1   6
BRANCH   5  16
HETATM   16  N   UNL     1     -44.082 -52.056  13.276  1.00  0.00    -0.345 N 
HETATM   17  C   UNL     1     -45.069 -51.133  13.482  1.00  0.00     0.109 A 
HETATM   18  C   UNL     1     -46.170 -51.623  12.820  1.00  0.00     0.106 A 
HETATM   19  N   UNL     1     -45.879 -52.815  12.215  1.00  0.00    -0.361 N 
HETATM   20  C   UNL     1     -44.614 -53.040  12.486  1.00  0.00     0.183 A 
ATOM     21  HN  UNL     1     -46.510 -53.404  11.671  1.00  0.00     0.166 HD
ENDBRANCH   5  16
TORSDOF 3
ENDMDL
MODEL 5
REMARK VINA RESULT:      -5.2      2.351      4.590
REMARK  3 active torsions:
REMARK  status: ('A' for Active; 'I' for Inactive)
REMARK       I    between atoms: C_2  and  N_3 
REMARK    1  A    between atoms: C_2  and  C_15 
REMARK    2  A    between atoms: N_3  and  C_4 
REMARK    3  A    between atoms: C_8  and  N_9 
ROOT
HETATM    1  C   UNL     1     -41.580 -49.628  12.520  1.00  0.00     0.107 C 
HETATM    2  C   UNL     1     -41.652 -48.837  11.213  1.00  0.00     0.027 C 
HETATM    3  C   UNL     1     -40.885 -47.541  11.470  1.00  0.00     0.004 C 
HETATM    4  C   UNL     1     -40.241 -47.679  12.853  1.00  0.00     0.028 C 
HETATM    5  C   UNL     1     -40.256 -49.180  13.172  1.00  0.00     0.113 C 
ENDROOT
BRANCH   1   6
HETATM    6  N   UNL     1     -41.725 -51.058  12.306  1.00  0.00    -0.354 N 
HETATM    7  C   UNL     1     -42.780 -51.776  12.825  1.00  0.00     0.222 C 
HETATM    8  O   UNL     1     -43.624 -51.260  13.554  1.00  0.00    -0.273 OA
HETATM    9  H   UNL     1     -40.996 -51.548  11.800  1.00  0.00     0.162 HD
BRANCH   7  10
HETATM   10  C   UNL     1     -42.769 -53.270  12.470  1.00  0.00     0.078 C 
HETATM   11  C   UNL     1     -44.082 -53.991  12.816  1.00  0.00     0.014 C 
HETATM   12  C   UNL     1     -44.262 -54.227  14.313  1.00  0.00     0.001 C 
HETATM   13  C   UNL     1     -43.058 -54.924  14.938  1.00  0.00     0.000 C 
HETATM   14  C   UNL     1     -41.756 -54.197  14.622  1.00  0.00     0.001 C 
HETATM   15  C   UNL     1     -41.578 -53.997  13.113  1.00  0.00     0.014 C 
ENDBRANCH   7  10
ENDBRANCH   1   6
BRANCH   5  16
HETATM   16  N   UNL     1     -39.086 -49.916  12.723  1.00  0.00    -0.345 N 
HETATM   17  C   UNL     1     -38.363 -50.868  13.387  1.00  0.00     0.109 A 
HETATM   18  C   UNL     1     -37.340 -51.208  12.534  1.00  0.00     0.106 A 
HETATM   19  N   UNL     1     -37.423 -50.493  11.370  1.00  0.00    -0.361 N 
HETATM   20  C   UNL     1     -38.492 -49.743  11.502  1.00  0.00     0.183 A 
ATOM     21  HN  UNL     1     -36.789 -50.533  10.571  1.00  0.00     0.166 HD
ENDBRANCH   5  16
TORSDOF 3
ENDMDL
MODEL 6
REMARK VINA RESULT:      -5.0      2.499      5.649
REMARK  3 active torsions:
REMARK  status: ('A' for Active; 'I' for Inactive)
REMARK       I    between atoms: C_2  and  N_3 
REMARK    1  A    between atoms: C_2  and  C_15 
REMARK    2  A    between atoms: N_3  and  C_4 
REMARK    3  A    between atoms: C_8  and  N_9 
ROOT
HETATM    1  C   UNL     1     -42.504 -52.233  13.937  1.00  0.00     0.107 C 
HETATM    2  C   UNL     1     -43.328 -52.378  15.217  1.00  0.00     0.027 C 
HETATM    3  C   UNL     1     -44.011 -53.741  15.119  1.00  0.00     0.004 C 
HETATM    4  C   UNL     1     -43.440 -54.429  13.875  1.00  0.00     0.028 C 
HETATM    5  C   UNL     1     -42.143 -53.679  13.542  1.00  0.00     0.113 C 
ENDROOT
BRANCH   1   6
HETATM    6  N   UNL     1     -41.381 -51.326  14.105  1.00  0.00    -0.354 N 
HETATM    7  C   UNL     1     -40.998 -50.440  13.123  1.00  0.00     0.222 C 
HETATM    8  O   UNL     1     -41.543 -50.411  12.023  1.00  0.00    -0.273 OA
HETATM    9  H   UNL     1     -40.833 -51.387  14.956  1.00  0.00     0.162 HD
BRANCH   7  10
HETATM   10  C   UNL     1     -39.803 -49.551  13.499  1.00  0.00     0.078 C 
HETATM   11  C   UNL     1     -39.151 -48.860  12.290  1.00  0.00     0.014 C 
HETATM   12  C   UNL     1     -38.323 -49.810  11.429  1.00  0.00     0.001 C 
HETATM   13  C   UNL     1     -37.301 -50.592  12.247  1.00  0.00     0.000 C 
HETATM   14  C   UNL     1     -37.948 -51.303  13.430  1.00  0.00     0.001 C 
HETATM   15  C   UNL     1     -38.748 -50.328  14.300  1.00  0.00     0.014 C 
ENDBRANCH   7  10
ENDBRANCH   1   6
BRANCH   5  16
HETATM   16  N   UNL     1     -40.949 -54.199  14.188  1.00  0.00    -0.345 N 
HETATM   17  C   UNL     1     -40.778 -54.598  15.484  1.00  0.00     0.109 A 
HETATM   18  C   UNL     1     -39.456 -54.961  15.581  1.00  0.00     0.106 A 
HETATM   19  N   UNL     1     -38.820 -54.797  14.381  1.00  0.00    -0.361 N 
HETATM   20  C   UNL     1     -39.745 -54.360  13.558  1.00  0.00     0.183 A 
ATOM     21  HN  UNL     1     -37.837 -54.975  14.171  1.00  0.00     0.166 HD
ENDBRANCH   5  16
TORSDOF 3
ENDMDL
MODEL 7
REMARK VINA RESULT:      -4.9      2.118      5.901
REMARK  3 active torsions:
REMARK  status: ('A' for Active; 'I' for Inactive)
REMARK       I    between atoms: C_2  and  N_3 
REMARK    1  A    between atoms: C_2  and  C_15 
REMARK    2  A    between atoms: N_3  and  C_4 
REMARK    3  A    between atoms: C_8  and  N_9 
ROOT
HETATM    1  C   UNL     1     -44.342 -51.153  14.537  1.00  0.00     0.107 C 
HETATM    2  C   UNL     1     -44.138 -51.210  16.051  1.00  0.00     0.027 C 
HETATM    3  C   UNL     1     -45.526 -51.032  16.664  1.00  0.00     0.004 C 
HETATM    4  C   UNL     1     -46.524 -51.047  15.502  1.00  0.00     0.028 C 
HETATM    5  C   UNL     1     -45.777 -51.675  14.319  1.00  0.00     0.113 C 
ENDROOT
BRANCH   1   6
HETATM    6  N   UNL     1     -43.298 -51.857  13.814  1.00  0.00    -0.354 N 
HETATM    7  C   UNL     1     -42.496 -51.232  12.885  1.00  0.00     0.222 C 
HETATM    8  O   UNL     1     -42.662 -50.057  12.566  1.00  0.00    -0.273 OA
HETATM    9  H   UNL     1     -43.192 -52.854  13.965  1.00  0.00     0.162 HD
BRANCH   7  10
HETATM   10  C   UNL     1     -41.435 -52.139  12.244  1.00  0.00     0.078 C 
HETATM   11  C   UNL     1     -41.387 -53.550  12.854  1.00  0.00     0.014 C 
HETATM   12  C   UNL     1     -40.749 -53.584  14.241  1.00  0.00     0.001 C 
HETATM   13  C   UNL     1     -39.378 -52.915  14.264  1.00  0.00     0.000 C 
HETATM   14  C   UNL     1     -39.427 -51.505  13.687  1.00  0.00     0.001 C 
HETATM   15  C   UNL     1     -40.041 -51.495  12.283  1.00  0.00     0.014 C 
ENDBRANCH   7  10
ENDBRANCH   1   6
BRANCH   5  16
HETATM   16  N   UNL     1     -45.882 -53.122  14.224  1.00  0.00    -0.345 N 
HETATM   17  C   UNL     1     -45.062 -54.002  13.575  1.00  0.00     0.109 A 
HETATM   18  C   UNL     1     -45.632 -55.239  13.765  1.00  0.00     0.106 A 
HETATM   19  N   UNL     1     -46.774 -55.135  14.513  1.00  0.00    -0.361 N 
HETATM   20  C   UNL     1     -46.886 -53.857  14.793  1.00  0.00     0.183 A 
ATOM     21  HN  UNL     1     -47.402 -55.888  14.792  1.00  0.00     0.166 HD
ENDBRANCH   5  16
TORSDOF 3
ENDMDL
MODEL 8
REMARK VINA RESULT:      -4.9      2.017      3.405
REMARK  3 active torsions:
REMARK  status: ('A' for Active; 'I' for Inactive)
REMARK       I    between atoms: C_2  and  N_3 
REMARK    1  A    between atoms: C_2  and  C_15 
REMARK    2  A    between atoms: N_3  and  C_4 
REMARK    3  A    between atoms: C_8  and  N_9 
ROOT
HETATM    1  C   UNL     1     -40.824 -51.217  13.765  1.00  0.00     0.107 C 
HETATM    2  C   UNL     1     -40.219 -51.296  12.364  1.00  0.00     0.027 C 
HETATM    3  C   UNL     1     -38.755 -50.886  12.520  1.00  0.00     0.004 C 
HETATM    4  C   UNL     1     -38.498 -50.744  14.023  1.00  0.00     0.028 C 
HETATM    5  C   UNL     1     -39.642 -51.496  14.715  1.00  0.00     0.113 C 
ENDROOT
BRANCH   1   6
HETATM    6  N   UNL     1     -41.975 -52.090  13.918  1.00  0.00    -0.354 N 
HETATM    7  C   UNL     1     -43.231 -51.736  13.477  1.00  0.00     0.222 C 
HETATM    8  O   UNL     1     -43.463 -50.633  12.987  1.00  0.00    -0.273 OA
HETATM    9  H   UNL     1     -41.856 -52.967  14.412  1.00  0.00     0.162 HD
BRANCH   7  10
HETATM   10  C   UNL     1     -44.312 -52.802  13.708  1.00  0.00     0.078 C 
HETATM   11  C   UNL     1     -45.522 -52.661  12.770  1.00  0.00     0.014 C 
HETATM   12  C   UNL     1     -46.432 -51.490  13.134  1.00  0.00     0.001 C 
HETATM   13  C   UNL     1     -46.857 -51.521  14.598  1.00  0.00     0.000 C 
HETATM   14  C   UNL     1     -45.659 -51.632  15.534  1.00  0.00     0.001 C 
HETATM   15  C   UNL     1     -44.775 -52.830  15.173  1.00  0.00     0.014 C 
ENDBRANCH   7  10
ENDBRANCH   1   6
BRANCH   5  16
HETATM   16  N   UNL     1     -39.389 -52.907  14.962  1.00  0.00    -0.345 N 
HETATM   17  C   UNL     1     -39.518 -53.612  16.126  1.00  0.00     0.109 A 
HETATM   18  C   UNL     1     -39.116 -54.891  15.823  1.00  0.00     0.106 A 
HETATM   19  N   UNL     1     -38.749 -54.983  14.508  1.00  0.00    -0.361 N 
HETATM   20  C   UNL     1     -38.945 -53.784  14.010  1.00  0.00     0.183 A 
ATOM     21  HN  UNL     1     -38.398 -55.807  14.019  1.00  0.00     0.166 HD
ENDBRANCH   5  16
TORSDOF 3
ENDMDL
MODEL 9
REMARK VINA RESULT:      -4.9      2.326      5.471
REMARK  3 active torsions:
REMARK  status: ('A' for Active; 'I' for Inactive)
REMARK       I    between atoms: C_2  and  N_3 
REMARK    1  A    between atoms: C_2  and  C_15 
REMARK    2  A    between atoms: N_3  and  C_4 
REMARK    3  A    between atoms: C_8  and  N_9 
ROOT
HETATM    1  C   UNL     1     -44.743 -52.411  16.836  1.00  0.00     0.107 C 
HETATM    2  C   UNL     1     -46.049 -53.011  17.358  1.00  0.00     0.027 C 
HETATM    3  C   UNL     1     -46.966 -51.823  17.644  1.00  0.00     0.004 C 
HETATM    4  C   UNL     1     -46.244 -50.576  17.125  1.00  0.00     0.028 C 
HETATM    5  C   UNL     1     -45.165 -51.089  16.162  1.00  0.00     0.113 C 
ENDROOT
BRANCH   1   6
HETATM    6  N   UNL     1     -44.007 -53.340  15.996  1.00  0.00    -0.354 N 
HETATM    7  C   UNL     1     -42.653 -53.548  16.138  1.00  0.00     0.222 C 
HETATM    8  O   UNL     1     -41.977 -52.909  16.941  1.00  0.00    -0.273 OA
HETATM    9  H   UNL     1     -44.503 -53.813  15.248  1.00  0.00     0.162 HD
BRANCH   7  10
HETATM   10  C   UNL     1     -42.062 -54.585  15.173  1.00  0.00     0.078 C 
HETATM   11  C   UNL     1     -40.526 -54.584  15.137  1.00  0.00     0.014 C 
HETATM   12  C   UNL     1     -39.942 -53.386  14.393  1.00  0.00     0.001 C 
HETATM   13  C   UNL     1     -40.535 -53.226  12.997  1.00  0.00     0.000 C 
HETATM   14  C   UNL     1     -42.059 -53.198  13.030  1.00  0.00     0.001 C 
HETATM   15  C   UNL     1     -42.626 -54.423  13.752  1.00  0.00     0.014 C 
ENDBRANCH   7  10
ENDBRANCH   1   6
BRANCH   5  16
HETATM   16  N   UNL     1     -45.591 -51.229  14.779  1.00  0.00    -0.345 N 
HETATM   17  C   UNL     1     -46.831 -51.529  14.289  1.00  0.00     0.109 A 
HETATM   18  C   UNL     1     -46.680 -51.579  12.923  1.00  0.00     0.106 A 
HETATM   19  N   UNL     1     -45.384 -51.316  12.570  1.00  0.00    -0.361 N 
HETATM   20  C   UNL     1     -44.759 -51.087  13.702  1.00  0.00     0.183 A 
ATOM     21  HN  UNL     1     -44.989 -51.300  11.630  1.00  0.00     0.166 HD
ENDBRANCH   5  16
TORSDOF 3
ENDMDL
