MODEL 1
REMARK VINA RESULT:      -5.6      0.000      0.000
REMARK  5 active torsions:
REMARK  status: ('A' for Active; 'I' for Inactive)
REMARK    1  A    between atoms: N_6  and  C_7 
REMARK    2  A    between atoms: C_7  and  C_8 
REMARK    3  A    between atoms: C_8  and  N_9 
REMARK    4  A    between atoms: N_9  and  C_10 
REMARK    5  A    between atoms: C_10  and  C_11 
ROOT
HETATM    1  C   UNL     1     -41.543 -48.209  11.141  1.00  0.00     0.291 C 
ENDROOT
BRANCH   1   2
HETATM    2  C   UNL     1     -42.047 -47.073  10.238  1.00  0.00     0.178 C 
BRANCH   2   3
HETATM    3  N   UNL     1     -43.231 -47.417   9.478  1.00  0.00    -0.302 N 
HETATM    4  N   UNL     1     -43.132 -47.723   8.170  1.00  0.00    -0.310 N 
HETATM    5  C   UNL     1     -44.394 -47.977   7.811  1.00  0.00     0.115 A 
ATOM      6  HN  UNL     1     -42.293 -47.755   7.590  1.00  0.00     0.186 HD
HETATM    7  C   UNL     1     -45.305 -47.820   8.879  1.00  0.00    -0.028 A 
HETATM    8  C   UNL     1     -46.772 -48.006   8.864  1.00  0.00     0.051 C 
HETATM    9  C   UNL     1     -44.514 -47.446   9.943  1.00  0.00     0.118 A 
ENDBRANCH   2   3
ENDBRANCH   1   2
BRANCH   1  10
HETATM   10  N   UNL     1     -40.820 -49.319  10.513  1.00  0.00     0.087 N 
HETATM   11  H   UNL     1     -40.213 -48.977   9.761  1.00  0.00     0.316 HD
BRANCH  10  12
HETATM   12  C   UNL     1     -39.976 -50.067  11.453  1.00  0.00     0.301 C 
BRANCH  12  13
HETATM   13  C   UNL     1     -38.653 -49.318  11.742  1.00  0.00     0.149 C 
HETATM   14  C   UNL     1     -37.441 -50.255  11.649  1.00  0.00     0.034 C 
HETATM   15  C   UNL     1     -37.315 -51.151  12.876  1.00  0.00     0.004 C 
HETATM   16  C   UNL     1     -37.326 -50.295  14.133  1.00  0.00     0.026 C 
HETATM   17  C   UNL     1     -38.572 -49.423  14.161  1.00  0.00     0.168 C 
HETATM   18  O   UNL     1     -38.667 -48.610  12.993  1.00  0.00    -0.384 OA
ENDBRANCH  12  13
ENDBRANCH  10  12
ENDBRANCH   1  10
TORSDOF 5
ENDMDL
MODEL 2
REMARK VINA RESULT:      -5.5      2.927      3.372
REMARK  5 active torsions:
REMARK  status: ('A' for Active; 'I' for Inactive)
REMARK    1  A    between atoms: N_6  and  C_7 
REMARK    2  A    between atoms: C_7  and  C_8 
REMARK    3  A    between atoms: C_8  and  N_9 
REMARK    4  A    between atoms: N_9  and  C_10 
REMARK    5  A    between atoms: C_10  and  C_11 
ROOT
HETATM    1  C   UNL     1     -41.888 -48.937  11.664  1.00  0.00     0.291 C 
ENDROOT
BRANCH   1   2
HETATM    2  C   UNL     1     -41.752 -47.979  10.471  1.00  0.00     0.178 C 
BRANCH   2   3
HETATM    3  N   UNL     1     -42.971 -47.830   9.703  1.00  0.00    -0.302 N 
HETATM    4  N   UNL     1     -42.974 -48.077   8.379  1.00  0.00    -0.310 N 
HETATM    5  C   UNL     1     -44.238 -47.838   8.019  1.00  0.00     0.115 A 
ATOM      6  HN  UNL     1     -42.196 -48.375   7.790  1.00  0.00     0.186 HD
HETATM    7  C   UNL     1     -45.044 -47.424   9.102  1.00  0.00    -0.028 A 
HETATM    8  C   UNL     1     -46.480 -47.069   9.091  1.00  0.00     0.051 C 
HETATM    9  C   UNL     1     -44.184 -47.422  10.178  1.00  0.00     0.118 A 
ENDBRANCH   2   3
ENDBRANCH   1   2
BRANCH   1  10
HETATM   10  N   UNL     1     -41.507 -50.339  11.468  1.00  0.00     0.087 N 
HETATM   11  H   UNL     1     -40.496 -50.422  11.321  1.00  0.00     0.316 HD
BRANCH  10  12
HETATM   12  C   UNL     1     -41.857 -51.199  12.605  1.00  0.00     0.301 C 
BRANCH  12  13
HETATM   13  C   UNL     1     -41.746 -52.698  12.234  1.00  0.00     0.149 C 
HETATM   14  C   UNL     1     -42.767 -53.548  13.000  1.00  0.00     0.034 C 
HETATM   15  C   UNL     1     -42.351 -53.776  14.449  1.00  0.00     0.004 C 
HETATM   16  C   UNL     1     -40.940 -54.341  14.489  1.00  0.00     0.026 C 
HETATM   17  C   UNL     1     -39.988 -53.424  13.735  1.00  0.00     0.168 C 
HETATM   18  O   UNL     1     -40.415 -53.221  12.389  1.00  0.00    -0.384 OA
ENDBRANCH  12  13
ENDBRANCH  10  12
ENDBRANCH   1  10
TORSDOF 5
ENDMDL
MODEL 3
REMARK VINA RESULT:      -5.4      3.878      4.967
REMARK  5 active torsions:
REMARK  status: ('A' for Active; 'I' for Inactive)
REMARK    1  A    between atoms: N_6  and  C_7 
REMARK    2  A    between atoms: C_7  and  C_8 
REMARK    3  A    between atoms: C_8  and  N_9 
REMARK    4  A    between atoms: N_9  and  C_10 
REMARK    5  A    between atoms: C_10  and  C_11 
ROOT
HETATM    1  C   UNL     1     -41.946 -48.687  12.018  1.00  0.00     0.291 C 
ENDROOT
BRANCH   1   2
HETATM    2  C   UNL     1     -41.653 -48.117  10.622  1.00  0.00     0.178 C 
BRANCH   2   3
HETATM    3  N   UNL     1     -42.841 -47.893   9.825  1.00  0.00    -0.302 N 
HETATM    4  N   UNL     1     -42.825 -48.138   8.500  1.00  0.00    -0.310 N 
HETATM    5  C   UNL     1     -44.063 -47.823   8.108  1.00  0.00     0.115 A 
ATOM      6  HN  UNL     1     -42.052 -48.483   7.930  1.00  0.00     0.186 HD
HETATM    7  C   UNL     1     -44.869 -47.362   9.172  1.00  0.00    -0.028 A 
HETATM    8  C   UNL     1     -46.280 -46.920   9.126  1.00  0.00     0.051 C 
HETATM    9  C   UNL     1     -44.038 -47.413  10.270  1.00  0.00     0.118 A 
ENDBRANCH   2   3
ENDBRANCH   1   2
BRANCH   1  10
HETATM   10  N   UNL     1     -42.696 -49.944  12.106  1.00  0.00     0.087 N 
HETATM   11  H   UNL     1     -42.062 -50.734  12.256  1.00  0.00     0.316 HD
BRANCH  10  12
HETATM   12  C   UNL     1     -43.680 -49.956  13.196  1.00  0.00     0.301 C 
BRANCH  12  13
HETATM   13  C   UNL     1     -43.960 -51.398  13.687  1.00  0.00     0.149 C 
HETATM   14  C   UNL     1     -45.159 -52.020  12.960  1.00  0.00     0.034 C 
HETATM   15  C   UNL     1     -46.487 -51.481  13.481  1.00  0.00     0.004 C 
HETATM   16  C   UNL     1     -46.542 -51.643  14.992  1.00  0.00     0.026 C 
HETATM   17  C   UNL     1     -45.336 -50.973  15.634  1.00  0.00     0.168 C 
HETATM   18  O   UNL     1     -44.113 -51.489  15.114  1.00  0.00    -0.384 OA
ENDBRANCH  12  13
ENDBRANCH  10  12
ENDBRANCH   1  10
TORSDOF 5
ENDMDL
MODEL 4
REMARK VINA RESULT:      -5.4      4.763      7.425
REMARK  5 active torsions:
REMARK  status: ('A' for Active; 'I' for Inactive)
REMARK    1  A    between atoms: N_6  and  C_7 
REMARK    2  A    between atoms: C_7  and  C_8 
REMARK    3  A    between atoms: C_8  and  N_9 
REMARK    4  A    between atoms: N_9  and  C_10 
REMARK    5  A    between atoms: C_10  and  C_11 
ROOT
HETATM    1  C   UNL     1     -41.429 -52.036  12.070  1.00  0.00     0.291 C 
ENDROOT
BRANCH   1   2
HETATM    2  C   UNL     1     -41.241 -50.566  11.665  1.00  0.00     0.178 C 
BRANCH   2   3
HETATM    3  N   UNL     1     -39.940 -50.031  12.008  1.00  0.00    -0.302 N 
HETATM    4  N   UNL     1     -38.925 -50.093  11.123  1.00  0.00    -0.310 N 
HETATM    5  C   UNL     1     -37.909 -49.519  11.772  1.00  0.00     0.115 A 
ATOM      6  HN  UNL     1     -38.931 -50.485  10.181  1.00  0.00     0.186 HD
HETATM    7  C   UNL     1     -38.260 -49.102  13.075  1.00  0.00    -0.028 A 
HETATM    8  C   UNL     1     -37.407 -48.439  14.084  1.00  0.00     0.051 C 
HETATM    9  C   UNL     1     -39.585 -49.460  13.196  1.00  0.00     0.118 A 
ENDBRANCH   2   3
ENDBRANCH   1   2
BRANCH   1  10
HETATM   10  N   UNL     1     -42.731 -52.660  11.816  1.00  0.00     0.087 N 
HETATM   11  H   UNL     1     -42.634 -53.675  11.719  1.00  0.00     0.316 HD
BRANCH  10  12
HETATM   12  C   UNL     1     -43.710 -52.412  12.882  1.00  0.00     0.301 C 
BRANCH  12  13
HETATM   13  C   UNL     1     -45.129 -52.865  12.461  1.00  0.00     0.149 C 
HETATM   14  C   UNL     1     -46.177 -51.782  12.750  1.00  0.00     0.034 C 
HETATM   15  C   UNL     1     -46.534 -51.709  14.230  1.00  0.00     0.004 C 
HETATM   16  C   UNL     1     -46.936 -53.090  14.723  1.00  0.00     0.026 C 
HETATM   17  C   UNL     1     -45.832 -54.094  14.427  1.00  0.00     0.168 C 
HETATM   18  O   UNL     1     -45.513 -54.125  13.038  1.00  0.00    -0.384 OA
ENDBRANCH  12  13
ENDBRANCH  10  12
ENDBRANCH   1  10
TORSDOF 5
ENDMDL
MODEL 5
REMARK VINA RESULT:      -5.3      4.753      6.438
REMARK  5 active torsions:
REMARK  status: ('A' for Active; 'I' for Inactive)
REMARK    1  A    between atoms: N_6  and  C_7 
REMARK    2  A    between atoms: C_7  and  C_8 
REMARK    3  A    between atoms: C_8  and  N_9 
REMARK    4  A    between atoms: N_9  and  C_10 
REMARK    5  A    between atoms: C_10  and  C_11 
ROOT
HETATM    1  C   UNL     1     -41.277 -52.611  12.160  1.00  0.00     0.291 C 
ENDROOT
BRANCH   1   2
HETATM    2  C   UNL     1     -40.364 -51.378  12.251  1.00  0.00     0.178 C 
BRANCH   2   3
HETATM    3  N   UNL     1     -41.004 -50.149  11.833  1.00  0.00    -0.302 N 
HETATM    4  N   UNL     1     -40.837 -49.689  10.578  1.00  0.00    -0.310 N 
HETATM    5  C   UNL     1     -41.555 -48.562  10.559  1.00  0.00     0.115 A 
ATOM      6  HN  UNL     1     -40.292 -50.102   9.821  1.00  0.00     0.186 HD
HETATM    7  C   UNL     1     -42.170 -48.288  11.800  1.00  0.00    -0.028 A 
HETATM    8  C   UNL     1     -43.031 -47.141  12.160  1.00  0.00     0.051 C 
HETATM    9  C   UNL     1     -41.782 -49.336  12.606  1.00  0.00     0.118 A 
ENDBRANCH   2   3
ENDBRANCH   1   2
BRANCH   1  10
HETATM   10  N   UNL     1     -42.679 -52.403  11.785  1.00  0.00     0.087 N 
HETATM   11  H   UNL     1     -42.970 -53.086  11.079  1.00  0.00     0.316 HD
BRANCH  10  12
HETATM   12  C   UNL     1     -43.605 -52.522  12.919  1.00  0.00     0.301 C 
BRANCH  12  13
HETATM   13  C   UNL     1     -45.023 -52.928  12.448  1.00  0.00     0.149 C 
HETATM   14  C   UNL     1     -46.054 -51.835  12.754  1.00  0.00     0.034 C 
HETATM   15  C   UNL     1     -46.445 -51.811  14.228  1.00  0.00     0.004 C 
HETATM   16  C   UNL     1     -46.887 -53.201  14.658  1.00  0.00     0.026 C 
HETATM   17  C   UNL     1     -45.797 -54.216  14.349  1.00  0.00     0.168 C 
HETATM   18  O   UNL     1     -45.446 -54.201  12.967  1.00  0.00    -0.384 OA
ENDBRANCH  12  13
ENDBRANCH  10  12
ENDBRANCH   1  10
TORSDOF 5
ENDMDL
MODEL 6
REMARK VINA RESULT:      -5.3      5.266      7.633
REMARK  5 active torsions:
REMARK  status: ('A' for Active; 'I' for Inactive)
REMARK    1  A    between atoms: N_6  and  C_7 
REMARK    2  A    between atoms: C_7  and  C_8 
REMARK    3  A    between atoms: C_8  and  N_9 
REMARK    4  A    between atoms: N_9  and  C_10 
REMARK    5  A    between atoms: C_10  and  C_11 
ROOT
HETATM    1  C   UNL     1     -42.181 -53.966  13.327  1.00  0.00     0.291 C 
ENDROOT
BRANCH   1   2
HETATM    2  C   UNL     1     -40.824 -53.695  12.660  1.00  0.00     0.178 C 
BRANCH   2   3
HETATM    3  N   UNL     1     -40.532 -52.287  12.487  1.00  0.00    -0.302 N 
HETATM    4  N   UNL     1     -40.950 -51.638  11.383  1.00  0.00    -0.310 N 
HETATM    5  C   UNL     1     -40.507 -50.391  11.567  1.00  0.00     0.115 A 
ATOM      6  HN  UNL     1     -41.481 -52.009  10.595  1.00  0.00     0.186 HD
HETATM    7  C   UNL     1     -39.792 -50.240  12.775  1.00  0.00    -0.028 A 
HETATM    8  C   UNL     1     -39.153 -49.020  13.313  1.00  0.00     0.051 C 
HETATM    9  C   UNL     1     -39.821 -51.495  13.342  1.00  0.00     0.118 A 
ENDBRANCH   2   3
ENDBRANCH   1   2
BRANCH   1  10
HETATM   10  N   UNL     1     -43.388 -53.856  12.502  1.00  0.00     0.087 N 
HETATM   11  H   UNL     1     -43.991 -54.675  12.630  1.00  0.00     0.316 HD
BRANCH  10  12
HETATM   12  C   UNL     1     -44.193 -52.666  12.808  1.00  0.00     0.301 C 
BRANCH  12  13
HETATM   13  C   UNL     1     -45.707 -52.988  12.783  1.00  0.00     0.149 C 
HETATM   14  C   UNL     1     -46.556 -51.729  13.001  1.00  0.00     0.034 C 
HETATM   15  C   UNL     1     -46.574 -51.295  14.462  1.00  0.00     0.004 C 
HETATM   16  C   UNL     1     -46.993 -52.468  15.335  1.00  0.00     0.026 C 
HETATM   17  C   UNL     1     -46.082 -53.660  15.081  1.00  0.00     0.168 C 
HETATM   18  O   UNL     1     -46.078 -54.030  13.703  1.00  0.00    -0.384 OA
ENDBRANCH  12  13
ENDBRANCH  10  12
ENDBRANCH   1  10
TORSDOF 5
ENDMDL
MODEL 7
REMARK VINA RESULT:      -4.9      5.357      7.909
REMARK  5 active torsions:
REMARK  status: ('A' for Active; 'I' for Inactive)
REMARK    1  A    between atoms: N_6  and  C_7 
REMARK    2  A    between atoms: C_7  and  C_8 
REMARK    3  A    between atoms: C_8  and  N_9 
REMARK    4  A    between atoms: N_9  and  C_10 
REMARK    5  A    between atoms: C_10  and  C_11 
ROOT
HETATM    1  C   UNL     1     -42.320 -50.471  13.004  1.00  0.00     0.291 C 
ENDROOT
BRANCH   1   2
HETATM    2  C   UNL     1     -41.205 -51.125  12.173  1.00  0.00     0.178 C 
BRANCH   2   3
HETATM    3  N   UNL     1     -40.764 -52.401  12.696  1.00  0.00    -0.302 N 
HETATM    4  N   UNL     1     -41.153 -53.548  12.105  1.00  0.00    -0.310 N 
HETATM    5  C   UNL     1     -40.569 -54.495  12.844  1.00  0.00     0.115 A 
ATOM      6  HN  UNL     1     -41.751 -53.666  11.287  1.00  0.00     0.186 HD
HETATM    7  C   UNL     1     -39.820 -53.964  13.916  1.00  0.00    -0.028 A 
HETATM    8  C   UNL     1     -39.045 -54.695  14.942  1.00  0.00     0.051 C 
HETATM    9  C   UNL     1     -39.978 -52.600  13.794  1.00  0.00     0.118 A 
ENDBRANCH   2   3
ENDBRANCH   1   2
BRANCH   1  10
HETATM   10  N   UNL     1     -43.705 -50.644  12.555  1.00  0.00     0.087 N 
HETATM   11  H   UNL     1     -43.748 -51.269  11.744  1.00  0.00     0.316 HD
BRANCH  10  12
HETATM   12  C   UNL     1     -44.583 -51.206  13.589  1.00  0.00     0.301 C 
BRANCH  12  13
HETATM   13  C   UNL     1     -45.676 -52.111  12.970  1.00  0.00     0.149 C 
HETATM   14  C   UNL     1     -46.672 -52.600  14.029  1.00  0.00     0.034 C 
HETATM   15  C   UNL     1     -46.094 -53.720  14.886  1.00  0.00     0.004 C 
HETATM   16  C   UNL     1     -45.571 -54.829  13.987  1.00  0.00     0.026 C 
HETATM   17  C   UNL     1     -44.569 -54.265  12.990  1.00  0.00     0.168 C 
HETATM   18  O   UNL     1     -45.137 -53.212  12.217  1.00  0.00    -0.384 OA
ENDBRANCH  12  13
ENDBRANCH  10  12
ENDBRANCH   1  10
TORSDOF 5
ENDMDL
MODEL 8
REMARK VINA RESULT:      -4.8      4.274      4.831
REMARK  5 active torsions:
REMARK  status: ('A' for Active; 'I' for Inactive)
REMARK    1  A    between atoms: N_6  and  C_7 
REMARK    2  A    between atoms: C_7  and  C_8 
REMARK    3  A    between atoms: C_8  and  N_9 
REMARK    4  A    between atoms: N_9  and  C_10 
REMARK    5  A    between atoms: C_10  and  C_11 
ROOT
HETATM    1  C   UNL     1     -42.337 -52.720  12.737  1.00  0.00     0.291 C 
ENDROOT
BRANCH   1   2
HETATM    2  C   UNL     1     -43.668 -53.361  12.314  1.00  0.00     0.178 C 
BRANCH   2   3
HETATM    3  N   UNL     1     -44.833 -52.689  12.850  1.00  0.00    -0.302 N 
HETATM    4  N   UNL     1     -45.735 -52.127  12.022  1.00  0.00    -0.310 N 
HETATM    5  C   UNL     1     -46.645 -51.612  12.852  1.00  0.00     0.115 A 
ATOM      6  HN  UNL     1     -45.725 -52.100  11.002  1.00  0.00     0.186 HD
HETATM    7  C   UNL     1     -46.326 -51.827  14.211  1.00  0.00    -0.028 A 
HETATM    8  C   UNL     1     -47.085 -51.404  15.407  1.00  0.00     0.051 C 
HETATM    9  C   UNL     1     -45.137 -52.522  14.171  1.00  0.00     0.118 A 
ENDBRANCH   2   3
ENDBRANCH   1   2
BRANCH   1  10
HETATM   10  N   UNL     1     -41.584 -51.967  11.729  1.00  0.00     0.087 N 
HETATM   11  H   UNL     1     -42.137 -51.178  11.378  1.00  0.00     0.316 HD
BRANCH  10  12
HETATM   12  C   UNL     1     -40.318 -51.425  12.237  1.00  0.00     0.301 C 
BRANCH  12  13
HETATM   13  C   UNL     1     -40.007 -50.041  11.618  1.00  0.00     0.149 C 
HETATM   14  C   UNL     1     -38.497 -49.791  11.519  1.00  0.00     0.034 C 
HETATM   15  C   UNL     1     -37.886 -49.432  12.869  1.00  0.00     0.004 C 
HETATM   16  C   UNL     1     -38.655 -48.271  13.481  1.00  0.00     0.026 C 
HETATM   17  C   UNL     1     -40.135 -48.613  13.571  1.00  0.00     0.168 C 
HETATM   18  O   UNL     1     -40.670 -48.958  12.295  1.00  0.00    -0.384 OA
ENDBRANCH  12  13
ENDBRANCH  10  12
ENDBRANCH   1  10
TORSDOF 5
ENDMDL
MODEL 9
REMARK VINA RESULT:      -4.6      4.168      6.278
REMARK  5 active torsions:
REMARK  status: ('A' for Active; 'I' for Inactive)
REMARK    1  A    between atoms: N_6  and  C_7 
REMARK    2  A    between atoms: C_7  and  C_8 
REMARK    3  A    between atoms: C_8  and  N_9 
REMARK    4  A    between atoms: N_9  and  C_10 
REMARK    5  A    between atoms: C_10  and  C_11 
ROOT
HETATM    1  C   UNL     1     -42.606 -49.476  12.988  1.00  0.00     0.291 C 
ENDROOT
BRANCH   1   2
HETATM    2  C   UNL     1     -42.996 -50.956  13.121  1.00  0.00     0.178 C 
BRANCH   2   3
HETATM    3  N   UNL     1     -44.375 -51.160  13.514  1.00  0.00    -0.302 N 
HETATM    4  N   UNL     1     -45.322 -51.378  12.580  1.00  0.00    -0.310 N 
HETATM    5  C   UNL     1     -46.441 -51.515  13.296  1.00  0.00     0.115 A 
ATOM      6  HN  UNL     1     -45.211 -51.426  11.567  1.00  0.00     0.186 HD
HETATM    7  C   UNL     1     -46.221 -51.372  14.684  1.00  0.00    -0.028 A 
HETATM    8  C   UNL     1     -47.211 -51.453  15.780  1.00  0.00     0.051 C 
HETATM    9  C   UNL     1     -44.868 -51.132  14.786  1.00  0.00     0.118 A 
ENDBRANCH   2   3
ENDBRANCH   1   2
BRANCH   1  10
HETATM   10  N   UNL     1     -41.585 -49.119  11.998  1.00  0.00     0.087 N 
HETATM   11  H   UNL     1     -41.080 -49.953  11.682  1.00  0.00     0.316 HD
BRANCH  10  12
HETATM   12  C   UNL     1     -42.136 -48.461  10.807  1.00  0.00     0.301 C 
BRANCH  12  13
HETATM   13  C   UNL     1     -43.333 -47.548  11.170  1.00  0.00     0.149 C 
HETATM   14  C   UNL     1     -44.471 -47.676  10.150  1.00  0.00     0.034 C 
HETATM   15  C   UNL     1     -44.168 -46.928   8.857  1.00  0.00     0.004 C 
HETATM   16  C   UNL     1     -43.798 -45.488   9.177  1.00  0.00     0.026 C 
HETATM   17  C   UNL     1     -42.644 -45.452  10.169  1.00  0.00     0.168 C 
HETATM   18  O   UNL     1     -42.956 -46.173  11.359  1.00  0.00    -0.384 OA
ENDBRANCH  12  13
ENDBRANCH  10  12
ENDBRANCH   1  10
TORSDOF 5
ENDMDL
