MODEL 1
REMARK VINA RESULT:      -5.7      0.000      0.000
REMARK  5 active torsions:
REMARK  status: ('A' for Active; 'I' for Inactive)
REMARK    1  A    between atoms: C_2  and  C_3 
REMARK    2  A    between atoms: C_3  and  N_4 
REMARK       I    between atoms: N_4  and  C_5 
REMARK    3  A    between atoms: C_5  and  C_7 
REMARK    4  A    between atoms: C_7  and  N_8 
REMARK    5  A    between atoms: C_10  and  C_15 
REMARK       I    between atoms: C_15  and  N_17 
ROOT
HETATM    1  N   UNL     1     -40.880 -52.223  12.515  1.00  0.00    -0.315 N 
HETATM    2  C   UNL     1     -42.240 -52.318  12.237  1.00  0.00     0.111 A 
HETATM    3  C   UNL     1     -43.015 -53.264  12.800  1.00  0.00     0.047 A 
HETATM    4  C   UNL     1     -42.398 -54.178  13.749  1.00  0.00     0.024 A 
HETATM    5  C   UNL     1     -41.087 -54.127  14.024  1.00  0.00     0.075 A 
HETATM    6  C   UNL     1     -40.225 -53.125  13.349  1.00  0.00     0.247 A 
HETATM    7  O   UNL     1     -39.012 -53.126  13.542  1.00  0.00    -0.268 OA
ENDROOT
BRANCH   1   8
HETATM    8  C   UNL     1     -40.104 -51.130  11.927  1.00  0.00     0.234 C 
BRANCH   8   9
HETATM    9  C   UNL     1     -40.813 -49.785  12.059  1.00  0.00     0.235 C 
HETATM   10  N   UNL     1     -41.236 -49.233  10.870  1.00  0.00    -0.360 N 
HETATM   11  H   UNL     1     -40.995 -49.707  10.002  1.00  0.00     0.162 HD
HETATM   12  O   UNL     1     -40.953 -49.235  13.149  1.00  0.00    -0.272 OA
BRANCH  10  13
HETATM   13  C   UNL     1     -41.872 -47.931  10.808  1.00  0.00     0.122 C 
BRANCH  13  14
HETATM   14  C   UNL     1     -42.745 -47.758   9.569  1.00  0.00     0.015 C 
HETATM   15  C   UNL     1     -44.183 -47.395   9.909  1.00  0.00     0.006 C 
ENDBRANCH  13  14
ENDBRANCH  10  13
ENDBRANCH   8   9
ENDBRANCH   1   8
BRANCH   3  16
HETATM   16  C   UNL     1     -44.505 -53.346  12.586  1.00  0.00     0.252 C 
HETATM   17  O   UNL     1     -45.070 -54.437  12.607  1.00  0.00    -0.268 OA
HETATM   18  N   UNL     1     -45.164 -52.164  12.354  1.00  0.00    -0.361 N 
HETATM   19  C   UNL     1     -46.593 -52.113  12.169  1.00  0.00     0.149 C 
HETATM   20  H   UNL     1     -44.652 -51.304  12.227  1.00  0.00     0.162 HD
ENDBRANCH   3  16
TORSDOF 5
ENDMDL
MODEL 2
REMARK VINA RESULT:      -5.6      1.713      5.053
REMARK  5 active torsions:
REMARK  status: ('A' for Active; 'I' for Inactive)
REMARK    1  A    between atoms: C_2  and  C_3 
REMARK    2  A    between atoms: C_3  and  N_4 
REMARK       I    between atoms: N_4  and  C_5 
REMARK    3  A    between atoms: C_5  and  C_7 
REMARK    4  A    between atoms: C_7  and  N_8 
REMARK    5  A    between atoms: C_10  and  C_15 
REMARK       I    between atoms: C_15  and  N_17 
ROOT
HETATM    1  N   UNL     1     -40.559 -51.328  12.073  1.00  0.00    -0.315 N 
HETATM    2  C   UNL     1     -41.255 -50.289  11.464  1.00  0.00     0.111 A 
HETATM    3  C   UNL     1     -40.746 -49.046  11.381  1.00  0.00     0.047 A 
HETATM    4  C   UNL     1     -39.414 -48.815  11.919  1.00  0.00     0.024 A 
HETATM    5  C   UNL     1     -38.725 -49.789  12.531  1.00  0.00     0.075 A 
HETATM    6  C   UNL     1     -39.319 -51.141  12.677  1.00  0.00     0.247 A 
HETATM    7  O   UNL     1     -38.721 -52.012  13.304  1.00  0.00    -0.268 OA
ENDROOT
BRANCH   1   8
HETATM    8  C   UNL     1     -41.135 -52.674  12.069  1.00  0.00     0.234 C 
BRANCH   8   9
HETATM    9  C   UNL     1     -42.430 -52.750  12.873  1.00  0.00     0.235 C 
HETATM   10  N   UNL     1     -43.571 -52.914  12.120  1.00  0.00    -0.360 N 
HETATM   11  H   UNL     1     -43.489 -52.905  11.105  1.00  0.00     0.162 HD
HETATM   12  O   UNL     1     -42.435 -52.635  14.097  1.00  0.00    -0.272 OA
BRANCH  10  13
HETATM   13  C   UNL     1     -44.892 -52.944  12.719  1.00  0.00     0.122 C 
BRANCH  13  14
HETATM   14  C   UNL     1     -45.489 -51.553  12.905  1.00  0.00     0.015 C 
HETATM   15  C   UNL     1     -46.461 -51.482  14.073  1.00  0.00     0.006 C 
ENDBRANCH  13  14
ENDBRANCH  10  13
ENDBRANCH   8   9
ENDBRANCH   1   8
BRANCH   3  16
HETATM   16  C   UNL     1     -41.435 -47.917  10.658  1.00  0.00     0.252 C 
HETATM   17  O   UNL     1     -40.977 -46.779  10.716  1.00  0.00    -0.268 OA
HETATM   18  N   UNL     1     -42.581 -48.230   9.969  1.00  0.00    -0.361 N 
HETATM   19  C   UNL     1     -43.308 -47.241   9.213  1.00  0.00     0.149 C 
HETATM   20  H   UNL     1     -42.992 -49.149  10.041  1.00  0.00     0.162 HD
ENDBRANCH   3  16
TORSDOF 5
ENDMDL
MODEL 3
REMARK VINA RESULT:      -5.5      3.589      6.209
REMARK  5 active torsions:
REMARK  status: ('A' for Active; 'I' for Inactive)
REMARK    1  A    between atoms: C_2  and  C_3 
REMARK    2  A    between atoms: C_3  and  N_4 
REMARK       I    between atoms: N_4  and  C_5 
REMARK    3  A    between atoms: C_5  and  C_7 
REMARK    4  A    between atoms: C_7  and  N_8 
REMARK    5  A    between atoms: C_10  and  C_15 
REMARK       I    between atoms: C_15  and  N_17 
ROOT
HETATM    1  N   UNL     1     -45.716 -53.711  14.255  1.00  0.00    -0.315 N 
HETATM    2  C   UNL     1     -46.198 -53.327  15.503  1.00  0.00     0.111 A 
HETATM    3  C   UNL     1     -46.807 -52.142  15.694  1.00  0.00     0.047 A 
HETATM    4  C   UNL     1     -46.987 -51.271  14.542  1.00  0.00     0.024 A 
HETATM    5  C   UNL     1     -46.517 -51.601  13.332  1.00  0.00     0.075 A 
HETATM    6  C   UNL     1     -45.787 -52.880  13.141  1.00  0.00     0.247 A 
HETATM    7  O   UNL     1     -45.290 -53.148  12.050  1.00  0.00    -0.268 OA
ENDROOT
BRANCH   1   8
HETATM    8  C   UNL     1     -45.126 -55.041  14.094  1.00  0.00     0.234 C 
BRANCH   8   9
HETATM    9  C   UNL     1     -43.656 -55.072  14.500  1.00  0.00     0.235 C 
HETATM   10  N   UNL     1     -42.823 -54.298  13.724  1.00  0.00    -0.360 N 
HETATM   11  H   UNL     1     -43.216 -53.826  12.912  1.00  0.00     0.162 HD
HETATM   12  O   UNL     1     -43.260 -55.770  15.432  1.00  0.00    -0.272 OA
BRANCH  10  13
HETATM   13  C   UNL     1     -41.387 -54.261  13.933  1.00  0.00     0.122 C 
BRANCH  13  14
HETATM   14  C   UNL     1     -40.671 -53.336  12.954  1.00  0.00     0.015 C 
HETATM   15  C   UNL     1     -41.630 -52.443  12.180  1.00  0.00     0.006 C 
ENDBRANCH  13  14
ENDBRANCH  10  13
ENDBRANCH   8   9
ENDBRANCH   1   8
BRANCH   3  16
HETATM   16  C   UNL     1     -47.413 -51.728  17.011  1.00  0.00     0.252 C 
HETATM   17  O   UNL     1     -48.261 -50.840  17.046  1.00  0.00    -0.268 OA
HETATM   18  N   UNL     1     -46.956 -52.373  18.134  1.00  0.00    -0.361 N 
HETATM   19  C   UNL     1     -47.484 -52.086  19.444  1.00  0.00     0.149 C 
HETATM   20  H   UNL     1     -46.176 -53.012  18.081  1.00  0.00     0.162 HD
ENDBRANCH   3  16
TORSDOF 5
ENDMDL
MODEL 4
REMARK VINA RESULT:      -5.4      3.133      5.656
REMARK  5 active torsions:
REMARK  status: ('A' for Active; 'I' for Inactive)
REMARK    1  A    between atoms: C_2  and  C_3 
REMARK    2  A    between atoms: C_3  and  N_4 
REMARK       I    between atoms: N_4  and  C_5 
REMARK    3  A    between atoms: C_5  and  C_7 
REMARK    4  A    between atoms: C_7  and  N_8 
REMARK    5  A    between atoms: C_10  and  C_15 
REMARK       I    between atoms: C_15  and  N_17 
ROOT
HETATM    1  N   UNL     1     -42.567 -46.652  11.155  1.00  0.00    -0.315 N 
HETATM    2  C   UNL     1     -42.603 -48.027  11.364  1.00  0.00     0.111 A 
HETATM    3  C   UNL     1     -42.744 -48.555  12.594  1.00  0.00     0.047 A 
HETATM    4  C   UNL     1     -42.896 -47.642  13.717  1.00  0.00     0.024 A 
HETATM    5  C   UNL     1     -42.845 -46.312  13.553  1.00  0.00     0.075 A 
HETATM    6  C   UNL     1     -42.624 -45.737  12.203  1.00  0.00     0.247 A 
HETATM    7  O   UNL     1     -42.501 -44.523  12.063  1.00  0.00    -0.268 OA
ENDROOT
BRANCH   1   8
HETATM    8  C   UNL     1     -42.484 -46.138   9.787  1.00  0.00     0.234 C 
BRANCH   8   9
HETATM    9  C   UNL     1     -43.673 -46.571   8.935  1.00  0.00     0.235 C 
HETATM   10  N   UNL     1     -44.903 -46.176   9.412  1.00  0.00    -0.360 N 
HETATM   11  H   UNL     1     -44.945 -45.698  10.310  1.00  0.00     0.162 HD
HETATM   12  O   UNL     1     -43.526 -47.250   7.921  1.00  0.00    -0.272 OA
BRANCH  10  13
HETATM   13  C   UNL     1     -46.142 -46.555   8.759  1.00  0.00     0.122 C 
BRANCH  13  14
HETATM   14  C   UNL     1     -46.640 -47.931   9.187  1.00  0.00     0.015 C 
HETATM   15  C   UNL     1     -46.602 -48.948   8.056  1.00  0.00     0.006 C 
ENDBRANCH  13  14
ENDBRANCH  10  13
ENDBRANCH   8   9
ENDBRANCH   1   8
BRANCH   3  16
HETATM   16  C   UNL     1     -42.869 -50.035  12.848  1.00  0.00     0.252 C 
HETATM   17  O   UNL     1     -43.591 -50.445  13.753  1.00  0.00    -0.268 OA
HETATM   18  N   UNL     1     -42.131 -50.867  12.042  1.00  0.00    -0.361 N 
HETATM   19  C   UNL     1     -42.194 -52.302  12.169  1.00  0.00     0.149 C 
HETATM   20  H   UNL     1     -41.460 -50.491  11.389  1.00  0.00     0.162 HD
ENDBRANCH   3  16
TORSDOF 5
ENDMDL
MODEL 5
REMARK VINA RESULT:      -5.3      2.416      6.072
REMARK  5 active torsions:
REMARK  status: ('A' for Active; 'I' for Inactive)
REMARK    1  A    between atoms: C_2  and  C_3 
REMARK    2  A    between atoms: C_3  and  N_4 
REMARK       I    between atoms: N_4  and  C_5 
REMARK    3  A    between atoms: C_5  and  C_7 
REMARK    4  A    between atoms: C_7  and  N_8 
REMARK    5  A    between atoms: C_10  and  C_15 
REMARK       I    between atoms: C_15  and  N_17 
ROOT
HETATM    1  N   UNL     1     -40.775 -48.329  11.197  1.00  0.00    -0.315 N 
HETATM    2  C   UNL     1     -41.918 -48.276  10.406  1.00  0.00     0.111 A 
HETATM    3  C   UNL     1     -42.593 -47.128  10.210  1.00  0.00     0.047 A 
HETATM    4  C   UNL     1     -42.073 -45.915  10.824  1.00  0.00     0.024 A 
HETATM    5  C   UNL     1     -40.987 -45.935  11.609  1.00  0.00     0.075 A 
HETATM    6  C   UNL     1     -40.285 -47.216  11.875  1.00  0.00     0.247 A 
HETATM    7  O   UNL     1     -39.336 -47.248  12.654  1.00  0.00    -0.268 OA
ENDROOT
BRANCH   1   8
HETATM    8  C   UNL     1     -40.045 -49.592  11.315  1.00  0.00     0.234 C 
BRANCH   8   9
HETATM    9  C   UNL     1     -40.784 -50.606  12.184  1.00  0.00     0.235 C 
HETATM   10  N   UNL     1     -41.123 -51.778  11.546  1.00  0.00    -0.360 N 
HETATM   11  H   UNL     1     -40.928 -51.863  10.550  1.00  0.00     0.162 HD
HETATM   12  O   UNL     1     -41.075 -50.361  13.353  1.00  0.00    -0.272 OA
BRANCH  10  13
HETATM   13  C   UNL     1     -41.881 -52.824  12.207  1.00  0.00     0.122 C 
BRANCH  13  14
HETATM   14  C   UNL     1     -40.994 -53.920  12.789  1.00  0.00     0.015 C 
HETATM   15  C   UNL     1     -41.077 -53.999  14.306  1.00  0.00     0.006 C 
ENDBRANCH  13  14
ENDBRANCH  10  13
ENDBRANCH   8   9
ENDBRANCH   1   8
BRANCH   3  16
HETATM   16  C   UNL     1     -43.786 -47.016   9.295  1.00  0.00     0.252 C 
HETATM   17  O   UNL     1     -43.623 -46.810   8.095  1.00  0.00    -0.268 OA
HETATM   18  N   UNL     1     -45.025 -47.136   9.874  1.00  0.00    -0.361 N 
HETATM   19  C   UNL     1     -46.237 -47.080   9.096  1.00  0.00     0.149 C 
HETATM   20  H   UNL     1     -45.123 -47.188  10.877  1.00  0.00     0.162 HD
ENDBRANCH   3  16
TORSDOF 5
ENDMDL
MODEL 6
REMARK VINA RESULT:      -5.1      2.631      6.050
REMARK  5 active torsions:
REMARK  status: ('A' for Active; 'I' for Inactive)
REMARK    1  A    between atoms: C_2  and  C_3 
REMARK    2  A    between atoms: C_3  and  N_4 
REMARK       I    between atoms: N_4  and  C_5 
REMARK    3  A    between atoms: C_5  and  C_7 
REMARK    4  A    between atoms: C_7  and  N_8 
REMARK    5  A    between atoms: C_10  and  C_15 
REMARK       I    between atoms: C_15  and  N_17 
ROOT
HETATM    1  N   UNL     1     -38.666 -50.744  13.284  1.00  0.00    -0.315 N 
HETATM    2  C   UNL     1     -39.520 -49.652  13.164  1.00  0.00     0.111 A 
HETATM    3  C   UNL     1     -39.384 -48.751  12.174  1.00  0.00     0.047 A 
HETATM    4  C   UNL     1     -38.330 -48.966  11.193  1.00  0.00     0.024 A 
HETATM    5  C   UNL     1     -37.478 -49.995  11.292  1.00  0.00     0.075 A 
HETATM    6  C   UNL     1     -37.592 -50.949  12.424  1.00  0.00     0.247 A 
HETATM    7  O   UNL     1     -36.766 -51.848  12.557  1.00  0.00    -0.268 OA
ENDROOT
BRANCH   1   8
HETATM    8  C   UNL     1     -38.908 -51.728  14.341  1.00  0.00     0.234 C 
BRANCH   8   9
HETATM    9  C   UNL     1     -39.586 -52.989  13.811  1.00  0.00     0.235 C 
HETATM   10  N   UNL     1     -40.938 -52.867  13.581  1.00  0.00    -0.360 N 
HETATM   11  H   UNL     1     -41.398 -51.995  13.837  1.00  0.00     0.162 HD
HETATM   12  O   UNL     1     -38.961 -54.034  13.642  1.00  0.00    -0.272 OA
BRANCH  10  13
HETATM   13  C   UNL     1     -41.749 -53.984  13.134  1.00  0.00     0.122 C 
BRANCH  13  14
HETATM   14  C   UNL     1     -43.045 -54.128  13.926  1.00  0.00     0.015 C 
HETATM   15  C   UNL     1     -42.939 -55.153  15.046  1.00  0.00     0.006 C 
ENDBRANCH  13  14
ENDBRANCH  10  13
ENDBRANCH   8   9
ENDBRANCH   1   8
BRANCH   3  16
HETATM   16  C   UNL     1     -40.338 -47.603  11.964  1.00  0.00     0.252 C 
HETATM   17  O   UNL     1     -40.739 -46.953  12.926  1.00  0.00    -0.268 OA
HETATM   18  N   UNL     1     -40.731 -47.351  10.673  1.00  0.00    -0.361 N 
HETATM   19  C   UNL     1     -41.614 -46.260  10.345  1.00  0.00     0.149 C 
HETATM   20  H   UNL     1     -40.475 -47.978   9.924  1.00  0.00     0.162 HD
ENDBRANCH   3  16
TORSDOF 5
ENDMDL
MODEL 7
REMARK VINA RESULT:      -5.0      3.410      5.614
REMARK  5 active torsions:
REMARK  status: ('A' for Active; 'I' for Inactive)
REMARK    1  A    between atoms: C_2  and  C_3 
REMARK    2  A    between atoms: C_3  and  N_4 
REMARK       I    between atoms: N_4  and  C_5 
REMARK    3  A    between atoms: C_5  and  C_7 
REMARK    4  A    between atoms: C_7  and  N_8 
REMARK    5  A    between atoms: C_10  and  C_15 
REMARK       I    between atoms: C_15  and  N_17 
ROOT
HETATM    1  N   UNL     1     -42.182 -53.846  13.398  1.00  0.00    -0.315 N 
HETATM    2  C   UNL     1     -42.534 -54.525  14.561  1.00  0.00     0.111 A 
HETATM    3  C   UNL     1     -41.608 -54.954  15.439  1.00  0.00     0.047 A 
HETATM    4  C   UNL     1     -40.211 -54.656  15.161  1.00  0.00     0.024 A 
HETATM    5  C   UNL     1     -39.837 -54.022  14.041  1.00  0.00     0.075 A 
HETATM    6  C   UNL     1     -40.857 -53.611  13.044  1.00  0.00     0.247 A 
HETATM    7  O   UNL     1     -40.509 -53.099  11.983  1.00  0.00    -0.268 OA
ENDROOT
BRANCH   1   8
HETATM    8  C   UNL     1     -43.237 -53.343  12.517  1.00  0.00     0.234 C 
BRANCH   8   9
HETATM    9  C   UNL     1     -44.632 -53.618  13.072  1.00  0.00     0.235 C 
HETATM   10  N   UNL     1     -45.171 -52.594  13.819  1.00  0.00    -0.360 N 
HETATM   11  H   UNL     1     -44.596 -51.775  14.006  1.00  0.00     0.162 HD
HETATM   12  O   UNL     1     -45.199 -54.692  12.885  1.00  0.00    -0.272 OA
BRANCH  10  13
HETATM   13  C   UNL     1     -46.461 -52.712  14.471  1.00  0.00     0.122 C 
BRANCH  13  14
HETATM   14  C   UNL     1     -46.979 -51.379  15.004  1.00  0.00     0.015 C 
HETATM   15  C   UNL     1     -47.539 -51.488  16.414  1.00  0.00     0.006 C 
ENDBRANCH  13  14
ENDBRANCH  10  13
ENDBRANCH   8   9
ENDBRANCH   1   8
BRANCH   3  16
HETATM   16  C   UNL     1     -41.956 -55.619  16.746  1.00  0.00     0.252 C 
HETATM   17  O   UNL     1     -43.132 -55.769  17.067  1.00  0.00    -0.268 OA
HETATM   18  N   UNL     1     -40.906 -56.015  17.538  1.00  0.00    -0.361 N 
HETATM   19  C   UNL     1     -41.114 -56.691  18.795  1.00  0.00     0.149 C 
HETATM   20  H   UNL     1     -39.957 -55.770  17.298  1.00  0.00     0.162 HD
ENDBRANCH   3  16
TORSDOF 5
ENDMDL
MODEL 8
REMARK VINA RESULT:      -5.0      3.087      5.685
REMARK  5 active torsions:
REMARK  status: ('A' for Active; 'I' for Inactive)
REMARK    1  A    between atoms: C_2  and  C_3 
REMARK    2  A    between atoms: C_3  and  N_4 
REMARK       I    between atoms: N_4  and  C_5 
REMARK    3  A    between atoms: C_5  and  C_7 
REMARK    4  A    between atoms: C_7  and  N_8 
REMARK    5  A    between atoms: C_10  and  C_15 
REMARK       I    between atoms: C_15  and  N_17 
ROOT
HETATM    1  N   UNL     1     -40.091 -52.708  13.523  1.00  0.00    -0.315 N 
HETATM    2  C   UNL     1     -39.850 -53.970  14.057  1.00  0.00     0.111 A 
HETATM    3  C   UNL     1     -39.224 -54.133  15.237  1.00  0.00     0.047 A 
HETATM    4  C   UNL     1     -38.828 -52.941  15.972  1.00  0.00     0.024 A 
HETATM    5  C   UNL     1     -39.025 -51.712  15.476  1.00  0.00     0.075 A 
HETATM    6  C   UNL     1     -39.657 -51.540  14.144  1.00  0.00     0.247 A 
HETATM    7  O   UNL     1     -39.770 -50.419  13.655  1.00  0.00    -0.268 OA
ENDROOT
BRANCH   1   8
HETATM    8  C   UNL     1     -40.840 -52.593  12.270  1.00  0.00     0.234 C 
BRANCH   8   9
HETATM    9  C   UNL     1     -42.345 -52.503  12.504  1.00  0.00     0.235 C 
HETATM   10  N   UNL     1     -43.017 -53.702  12.422  1.00  0.00    -0.360 N 
HETATM   11  H   UNL     1     -42.495 -54.534  12.150  1.00  0.00     0.162 HD
HETATM   12  O   UNL     1     -42.901 -51.427  12.714  1.00  0.00    -0.272 OA
BRANCH  10  13
HETATM   13  C   UNL     1     -44.459 -53.789  12.558  1.00  0.00     0.122 C 
BRANCH  13  14
HETATM   14  C   UNL     1     -44.891 -54.682  13.717  1.00  0.00     0.015 C 
HETATM   15  C   UNL     1     -43.756 -54.975  14.688  1.00  0.00     0.006 C 
ENDBRANCH  13  14
ENDBRANCH  10  13
ENDBRANCH   8   9
ENDBRANCH   1   8
BRANCH   3  16
HETATM   16  C   UNL     1     -39.019 -55.479  15.885  1.00  0.00     0.252 C 
HETATM   17  O   UNL     1     -37.929 -56.039  15.810  1.00  0.00    -0.268 OA
HETATM   18  N   UNL     1     -40.102 -56.028  16.527  1.00  0.00    -0.361 N 
HETATM   19  C   UNL     1     -40.019 -57.294  17.212  1.00  0.00     0.149 C 
HETATM   20  H   UNL     1     -41.012 -55.595  16.468  1.00  0.00     0.162 HD
ENDBRANCH   3  16
TORSDOF 5
ENDMDL
MODEL 9
REMARK VINA RESULT:      -4.9      3.010      6.941
REMARK  5 active torsions:
REMARK  status: ('A' for Active; 'I' for Inactive)
REMARK    1  A    between atoms: C_2  and  C_3 
REMARK    2  A    between atoms: C_3  and  N_4 
REMARK       I    between atoms: N_4  and  C_5 
REMARK    3  A    between atoms: C_5  and  C_7 
REMARK    4  A    between atoms: C_7  and  N_8 
REMARK    5  A    between atoms: C_10  and  C_15 
REMARK       I    between atoms: C_15  and  N_17 
ROOT
HETATM    1  N   UNL     1     -43.284 -54.094  14.891  1.00  0.00    -0.315 N 
HETATM    2  C   UNL     1     -42.264 -53.377  14.271  1.00  0.00     0.111 A 
HETATM    3  C   UNL     1     -42.387 -52.910  13.015  1.00  0.00     0.047 A 
HETATM    4  C   UNL     1     -43.644 -53.141  12.319  1.00  0.00     0.024 A 
HETATM    5  C   UNL     1     -44.638 -53.845  12.879  1.00  0.00     0.075 A 
HETATM    6  C   UNL     1     -44.471 -54.415  14.239  1.00  0.00     0.247 A 
HETATM    7  O   UNL     1     -45.350 -55.123  14.722  1.00  0.00    -0.268 OA
ENDROOT
BRANCH   1   8
HETATM    8  C   UNL     1     -43.118 -54.515  16.283  1.00  0.00     0.234 C 
BRANCH   8   9
HETATM    9  C   UNL     1     -42.284 -55.787  16.405  1.00  0.00     0.235 C 
HETATM   10  N   UNL     1     -40.985 -55.592  16.817  1.00  0.00    -0.360 N 
HETATM   11  H   UNL     1     -40.653 -54.637  16.942  1.00  0.00     0.162 HD
HETATM   12  O   UNL     1     -42.746 -56.890  16.119  1.00  0.00    -0.272 OA
BRANCH  10  13
HETATM   13  C   UNL     1     -40.038 -56.686  16.927  1.00  0.00     0.122 C 
BRANCH  13  14
HETATM   14  C   UNL     1     -38.722 -56.266  17.574  1.00  0.00     0.015 C 
HETATM   15  C   UNL     1     -37.700 -55.772  16.561  1.00  0.00     0.006 C 
ENDBRANCH  13  14
ENDBRANCH  10  13
ENDBRANCH   8   9
ENDBRANCH   1   8
BRANCH   3  16
HETATM   16  C   UNL     1     -41.338 -52.061  12.343  1.00  0.00     0.252 C 
HETATM   17  O   UNL     1     -40.181 -52.464  12.260  1.00  0.00    -0.268 OA
HETATM   18  N   UNL     1     -41.743 -50.840  11.862  1.00  0.00    -0.361 N 
HETATM   19  C   UNL     1     -40.838 -49.956  11.171  1.00  0.00     0.149 C 
HETATM   20  H   UNL     1     -42.672 -50.493  12.052  1.00  0.00     0.162 HD
ENDBRANCH   3  16
TORSDOF 5
ENDMDL
