MODEL 1
REMARK VINA RESULT:      -6.8      0.000      0.000
REMARK  4 active torsions:
REMARK  status: ('A' for Active; 'I' for Inactive)
REMARK    1  A    between atoms: C_2  and  N_3 
REMARK       I    between atoms: N_3  and  C_4 
REMARK    2  A    between atoms: C_4  and  C_6 
REMARK    3  A    between atoms: C_9  and  N_10 
REMARK    4  A    between atoms: N_10  and  C_11 
ROOT
HETATM    1  C   UNL     1     -42.187 -48.361  10.623  1.00  0.00     0.116 A 
HETATM    2  C   UNL     1     -42.398 -48.793  11.920  1.00  0.00     0.040 A 
HETATM    3  C   UNL     1     -41.587 -49.809  12.414  1.00  0.00     0.046 A 
HETATM    4  C   UNL     1     -40.633 -50.385  11.585  1.00  0.00     0.095 A 
HETATM    5  N   UNL     1     -40.459 -49.920  10.326  1.00  0.00    -0.289 N 
ATOM      6  HN  UNL     1     -39.743 -50.337   9.731  1.00  0.00     0.188 HD
HETATM    7  N   UNL     1     -41.229 -48.895   9.835  1.00  0.00    -0.294 N 
ATOM      8  HN  UNL     1     -41.081 -48.541   8.890  1.00  0.00     0.187 HD
ENDROOT
BRANCH   4   9
HETATM    9  N   UNL     1     -39.887 -51.473  12.086  1.00  0.00    -0.271 NA
HETATM   10  H   UNL     1     -40.116 -52.292  11.525  1.00  0.00     0.129 HD
BRANCH   9  11
HETATM   11  C   UNL     1     -40.075 -51.691  13.520  1.00  0.00     0.093 C 
HETATM   12  C   UNL     1     -38.771 -52.120  14.218  1.00  0.00     0.054 C 
HETATM   13  C   UNL     1     -39.196 -53.378  14.974  1.00  0.00     0.123 C 
HETATM   14  C   UNL     1     -39.296 -54.563  14.022  1.00  0.00     0.034 C 
HETATM   15  O   UNL     1     -40.597 -53.126  15.236  1.00  0.00    -0.379 OA
HETATM   16  C   UNL     1     -40.532 -54.195  13.198  1.00  0.00     0.036 C 
HETATM   17  C   UNL     1     -40.985 -52.888  13.856  1.00  0.00     0.140 C 
ENDBRANCH   9  11
ENDBRANCH   4   9
BRANCH   1  18
HETATM   18  C   UNL     1     -43.019 -47.276  10.031  1.00  0.00     0.269 C 
HETATM   19  N   UNL     1     -44.284 -47.641   9.625  1.00  0.00    -0.356 N 
HETATM   20  H   UNL     1     -44.581 -48.599   9.798  1.00  0.00     0.162 HD
HETATM   21  O   UNL     1     -42.569 -46.137   9.922  1.00  0.00    -0.266 OA
BRANCH  19  22
HETATM   22  C   UNL     1     -45.205 -46.700   9.029  1.00  0.00     0.118 C 
HETATM   23  C   UNL     1     -46.641 -47.186   9.112  1.00  0.00     0.026 C 
ENDBRANCH  19  22
ENDBRANCH   1  18
TORSDOF 4
ENDMDL
MODEL 2
REMARK VINA RESULT:      -6.4      1.791      2.412
REMARK  4 active torsions:
REMARK  status: ('A' for Active; 'I' for Inactive)
REMARK    1  A    between atoms: C_2  and  N_3 
REMARK       I    between atoms: N_3  and  C_4 
REMARK    2  A    between atoms: C_4  and  C_6 
REMARK    3  A    between atoms: C_9  and  N_10 
REMARK    4  A    between atoms: N_10  and  C_11 
ROOT
HETATM    1  C   UNL     1     -42.316 -47.433  10.182  1.00  0.00     0.116 A 
HETATM    2  C   UNL     1     -41.840 -46.700  11.254  1.00  0.00     0.040 A 
HETATM    3  C   UNL     1     -40.725 -47.180  11.934  1.00  0.00     0.046 A 
HETATM    4  C   UNL     1     -40.161 -48.389  11.551  1.00  0.00     0.095 A 
HETATM    5  N   UNL     1     -40.658 -49.065  10.489  1.00  0.00    -0.289 N 
ATOM      6  HN  UNL     1     -40.225 -49.943  10.205  1.00  0.00     0.188 HD
HETATM    7  N   UNL     1     -41.737 -48.587   9.786  1.00  0.00    -0.294 N 
ATOM      8  HN  UNL     1     -42.096 -49.096   8.979  1.00  0.00     0.187 HD
ENDROOT
BRANCH   4   9
HETATM    9  N   UNL     1     -39.088 -48.893  12.316  1.00  0.00    -0.271 NA
HETATM   10  H   UNL     1     -38.230 -48.474  11.963  1.00  0.00     0.129 HD
BRANCH   9  11
HETATM   11  C   UNL     1     -39.038 -50.355  12.350  1.00  0.00     0.093 C 
HETATM   12  C   UNL     1     -40.045 -50.947  13.353  1.00  0.00     0.054 C 
HETATM   13  C   UNL     1     -39.172 -51.883  14.188  1.00  0.00     0.123 C 
HETATM   14  C   UNL     1     -38.350 -51.087  15.195  1.00  0.00     0.034 C 
HETATM   15  O   UNL     1     -38.140 -52.268  13.248  1.00  0.00    -0.379 OA
HETATM   16  C   UNL     1     -37.353 -50.369  14.284  1.00  0.00     0.036 C 
HETATM   17  C   UNL     1     -37.717 -50.922  12.902  1.00  0.00     0.140 C 
ENDBRANCH   9  11
ENDBRANCH   4   9
BRANCH   1  18
HETATM   18  C   UNL     1     -43.505 -46.977   9.409  1.00  0.00     0.269 C 
HETATM   19  N   UNL     1     -44.688 -47.628   9.684  1.00  0.00    -0.356 N 
HETATM   20  H   UNL     1     -44.683 -48.332  10.419  1.00  0.00     0.162 HD
HETATM   21  O   UNL     1     -43.399 -46.075   8.580  1.00  0.00    -0.266 OA
BRANCH  19  22
HETATM   22  C   UNL     1     -45.924 -47.299   9.011  1.00  0.00     0.118 C 
HETATM   23  C   UNL     1     -46.659 -48.542   8.542  1.00  0.00     0.026 C 
ENDBRANCH  19  22
ENDBRANCH   1  18
TORSDOF 4
ENDMDL
MODEL 3
REMARK VINA RESULT:      -6.3      4.195      6.145
REMARK  4 active torsions:
REMARK  status: ('A' for Active; 'I' for Inactive)
REMARK    1  A    between atoms: C_2  and  N_3 
REMARK       I    between atoms: N_3  and  C_4 
REMARK    2  A    between atoms: C_4  and  C_6 
REMARK    3  A    between atoms: C_9  and  N_10 
REMARK    4  A    between atoms: N_10  and  C_11 
ROOT
HETATM    1  C   UNL     1     -40.459 -52.221  12.528  1.00  0.00     0.116 A 
HETATM    2  C   UNL     1     -40.596 -53.393  13.249  1.00  0.00     0.040 A 
HETATM    3  C   UNL     1     -41.819 -54.055  13.201  1.00  0.00     0.046 A 
HETATM    4  C   UNL     1     -42.867 -53.500  12.478  1.00  0.00     0.095 A 
HETATM    5  N   UNL     1     -42.679 -52.355  11.780  1.00  0.00    -0.289 N 
ATOM      6  HN  UNL     1     -43.450 -51.966  11.237  1.00  0.00     0.188 HD
HETATM    7  N   UNL     1     -41.467 -51.709  11.791  1.00  0.00    -0.294 N 
ATOM      8  HN  UNL     1     -41.331 -50.854  11.251  1.00  0.00     0.187 HD
ENDROOT
BRANCH   4   9
HETATM    9  N   UNL     1     -44.120 -54.147  12.521  1.00  0.00    -0.271 NA
HETATM   10  H   UNL     1     -44.814 -53.508  12.136  1.00  0.00     0.129 HD
BRANCH   9  11
HETATM   11  C   UNL     1     -44.472 -54.638  13.854  1.00  0.00     0.093 C 
HETATM   12  C   UNL     1     -45.874 -55.274  13.886  1.00  0.00     0.054 C 
HETATM   13  C   UNL     1     -46.539 -54.551  15.057  1.00  0.00     0.123 C 
HETATM   14  C   UNL     1     -46.978 -53.153  14.639  1.00  0.00     0.034 C 
HETATM   15  O   UNL     1     -45.413 -54.234  15.909  1.00  0.00    -0.379 OA
HETATM   16  C   UNL     1     -45.634 -52.440  14.484  1.00  0.00     0.036 C 
HETATM   17  C   UNL     1     -44.638 -53.525  14.905  1.00  0.00     0.140 C 
ENDBRANCH   9  11
ENDBRANCH   4   9
BRANCH   1  18
HETATM   18  C   UNL     1     -39.177 -51.462  12.534  1.00  0.00     0.269 C 
HETATM   19  N   UNL     1     -39.128 -50.356  11.714  1.00  0.00    -0.356 N 
HETATM   20  H   UNL     1     -39.972 -50.105  11.204  1.00  0.00     0.162 HD
HETATM   21  O   UNL     1     -38.239 -51.832  13.238  1.00  0.00    -0.266 OA
BRANCH  19  22
HETATM   22  C   UNL     1     -37.952 -49.523  11.612  1.00  0.00     0.118 C 
HETATM   23  C   UNL     1     -36.984 -50.040  10.563  1.00  0.00     0.026 C 
ENDBRANCH  19  22
ENDBRANCH   1  18
TORSDOF 4
ENDMDL
MODEL 4
REMARK VINA RESULT:      -6.3      3.022      3.575
REMARK  4 active torsions:
REMARK  status: ('A' for Active; 'I' for Inactive)
REMARK    1  A    between atoms: C_2  and  N_3 
REMARK       I    between atoms: N_3  and  C_4 
REMARK    2  A    between atoms: C_4  and  C_6 
REMARK    3  A    between atoms: C_9  and  N_10 
REMARK    4  A    between atoms: N_10  and  C_11 
ROOT
HETATM    1  C   UNL     1     -39.876 -48.208  11.672  1.00  0.00     0.116 A 
HETATM    2  C   UNL     1     -39.237 -48.900  12.684  1.00  0.00     0.040 A 
HETATM    3  C   UNL     1     -39.388 -50.282  12.731  1.00  0.00     0.046 A 
HETATM    4  C   UNL     1     -40.205 -50.912  11.802  1.00  0.00     0.095 A 
HETATM    5  N   UNL     1     -40.801 -50.190  10.823  1.00  0.00    -0.289 N 
ATOM      6  HN  UNL     1     -41.384 -50.665  10.134  1.00  0.00     0.188 HD
HETATM    7  N   UNL     1     -40.634 -48.829  10.743  1.00  0.00    -0.294 N 
ATOM      8  HN  UNL     1     -41.076 -48.296   9.995  1.00  0.00     0.187 HD
ENDROOT
BRANCH   4   9
HETATM    9  N   UNL     1     -40.410 -52.301  11.930  1.00  0.00    -0.271 NA
HETATM   10  H   UNL     1     -41.076 -52.586  11.214  1.00  0.00     0.129 HD
BRANCH   9  11
HETATM   11  C   UNL     1     -40.812 -52.705  13.278  1.00  0.00     0.093 C 
HETATM   12  C   UNL     1     -41.044 -54.223  13.384  1.00  0.00     0.054 C 
HETATM   13  C   UNL     1     -42.434 -54.304  14.013  1.00  0.00     0.123 C 
HETATM   14  C   UNL     1     -43.508 -54.024  12.969  1.00  0.00     0.034 C 
HETATM   15  O   UNL     1     -42.495 -53.086  14.792  1.00  0.00    -0.379 OA
HETATM   16  C   UNL     1     -43.308 -52.530  12.711  1.00  0.00     0.036 C 
HETATM   17  C   UNL     1     -42.194 -52.174  13.702  1.00  0.00     0.140 C 
ENDBRANCH   9  11
ENDBRANCH   4   9
BRANCH   1  18
HETATM   18  C   UNL     1     -39.756 -46.727  11.561  1.00  0.00     0.269 C 
HETATM   19  N   UNL     1     -39.796 -46.214  10.283  1.00  0.00    -0.356 N 
HETATM   20  H   UNL     1     -39.951 -46.863   9.515  1.00  0.00     0.162 HD
HETATM   21  O   UNL     1     -39.627 -46.036  12.570  1.00  0.00    -0.266 OA
BRANCH  19  22
HETATM   22  C   UNL     1     -39.688 -44.798  10.016  1.00  0.00     0.118 C 
HETATM   23  C   UNL     1     -38.652 -44.502   8.946  1.00  0.00     0.026 C 
ENDBRANCH  19  22
ENDBRANCH   1  18
TORSDOF 4
ENDMDL
MODEL 5
REMARK VINA RESULT:      -6.1      4.306      5.461
REMARK  4 active torsions:
REMARK  status: ('A' for Active; 'I' for Inactive)
REMARK    1  A    between atoms: C_2  and  N_3 
REMARK       I    between atoms: N_3  and  C_4 
REMARK    2  A    between atoms: C_4  and  C_6 
REMARK    3  A    between atoms: C_9  and  N_10 
REMARK    4  A    between atoms: N_10  and  C_11 
ROOT
HETATM    1  C   UNL     1     -43.466 -53.123  13.058  1.00  0.00     0.116 A 
HETATM    2  C   UNL     1     -42.388 -53.901  13.438  1.00  0.00     0.040 A 
HETATM    3  C   UNL     1     -41.110 -53.458  13.110  1.00  0.00     0.046 A 
HETATM    4  C   UNL     1     -40.961 -52.288  12.378  1.00  0.00     0.095 A 
HETATM    5  N   UNL     1     -42.048 -51.556  12.038  1.00  0.00    -0.289 N 
ATOM      6  HN  UNL     1     -41.926 -50.688  11.516  1.00  0.00     0.188 HD
HETATM    7  N   UNL     1     -43.313 -51.963  12.384  1.00  0.00    -0.294 N 
ATOM      8  HN  UNL     1     -44.125 -51.398  12.136  1.00  0.00     0.187 HD
ENDROOT
BRANCH   4   9
HETATM    9  N   UNL     1     -39.659 -51.913  11.983  1.00  0.00    -0.271 NA
HETATM   10  H   UNL     1     -39.298 -52.641  11.370  1.00  0.00     0.129 HD
BRANCH   9  11
HETATM   11  C   UNL     1     -38.774 -51.624  13.112  1.00  0.00     0.093 C 
HETATM   12  C   UNL     1     -39.338 -50.520  14.025  1.00  0.00     0.054 C 
HETATM   13  C   UNL     1     -38.165 -49.546  14.132  1.00  0.00     0.123 C 
HETATM   14  C   UNL     1     -38.056 -48.704  12.866  1.00  0.00     0.034 C 
HETATM   15  O   UNL     1     -37.020 -50.417  13.973  1.00  0.00    -0.379 OA
HETATM   16  C   UNL     1     -37.581 -49.740  11.845  1.00  0.00     0.036 C 
HETATM   17  C   UNL     1     -37.427 -50.998  12.705  1.00  0.00     0.140 C 
ENDBRANCH   9  11
ENDBRANCH   4   9
BRANCH   1  18
HETATM   18  C   UNL     1     -44.861 -53.537  13.378  1.00  0.00     0.269 C 
HETATM   19  N   UNL     1     -45.510 -52.781  14.329  1.00  0.00    -0.356 N 
HETATM   20  H   UNL     1     -45.021 -51.974  14.709  1.00  0.00     0.162 HD
HETATM   21  O   UNL     1     -45.369 -54.502  12.810  1.00  0.00    -0.266 OA
BRANCH  19  22
HETATM   22  C   UNL     1     -46.865 -53.062  14.745  1.00  0.00     0.118 C 
HETATM   23  C   UNL     1     -47.399 -51.996  15.686  1.00  0.00     0.026 C 
ENDBRANCH  19  22
ENDBRANCH   1  18
TORSDOF 4
ENDMDL
MODEL 6
REMARK VINA RESULT:      -6.0      2.410      3.070
REMARK  4 active torsions:
REMARK  status: ('A' for Active; 'I' for Inactive)
REMARK    1  A    between atoms: C_2  and  N_3 
REMARK       I    between atoms: N_3  and  C_4 
REMARK    2  A    between atoms: C_4  and  C_6 
REMARK    3  A    between atoms: C_9  and  N_10 
REMARK    4  A    between atoms: N_10  and  C_11 
ROOT
HETATM    1  C   UNL     1     -40.511 -47.930  11.170  1.00  0.00     0.116 A 
HETATM    2  C   UNL     1     -39.795 -48.205  12.320  1.00  0.00     0.040 A 
HETATM    3  C   UNL     1     -39.506 -49.534  12.612  1.00  0.00     0.046 A 
HETATM    4  C   UNL     1     -39.982 -50.535  11.776  1.00  0.00     0.095 A 
HETATM    5  N   UNL     1     -40.670 -50.214  10.655  1.00  0.00    -0.289 N 
ATOM      6  HN  UNL     1     -40.999 -50.956  10.038  1.00  0.00     0.188 HD
HETATM    7  N   UNL     1     -40.933 -48.905  10.336  1.00  0.00    -0.294 N 
ATOM      8  HN  UNL     1     -41.441 -48.671   9.482  1.00  0.00     0.187 HD
ENDROOT
BRANCH   4   9
HETATM    9  N   UNL     1     -39.750 -51.877  12.147  1.00  0.00    -0.271 NA
HETATM   10  H   UNL     1     -39.189 -52.309  11.415  1.00  0.00     0.129 HD
BRANCH   9  11
HETATM   11  C   UNL     1     -40.978 -52.617  12.439  1.00  0.00     0.093 C 
HETATM   12  C   UNL     1     -41.673 -52.107  13.715  1.00  0.00     0.054 C 
HETATM   13  C   UNL     1     -41.881 -53.392  14.516  1.00  0.00     0.123 C 
HETATM   14  C   UNL     1     -40.576 -53.826  15.173  1.00  0.00     0.034 C 
HETATM   15  O   UNL     1     -42.001 -54.392  13.475  1.00  0.00    -0.379 OA
HETATM   16  C   UNL     1     -39.754 -54.276  13.964  1.00  0.00     0.036 C 
HETATM   17  C   UNL     1     -40.744 -54.093  12.810  1.00  0.00     0.140 C 
ENDBRANCH   9  11
ENDBRANCH   4   9
BRANCH   1  18
HETATM   18  C   UNL     1     -40.853 -46.529  10.795  1.00  0.00     0.269 C 
HETATM   19  N   UNL     1     -39.836 -45.608  10.916  1.00  0.00    -0.356 N 
HETATM   20  H   UNL     1     -38.920 -45.946  11.200  1.00  0.00     0.162 HD
HETATM   21  O   UNL     1     -41.987 -46.248  10.411  1.00  0.00    -0.266 OA
BRANCH  19  22
HETATM   22  C   UNL     1     -40.018 -44.211  10.593  1.00  0.00     0.118 C 
HETATM   23  C   UNL     1     -40.284 -43.375  11.833  1.00  0.00     0.026 C 
ENDBRANCH  19  22
ENDBRANCH   1  18
TORSDOF 4
ENDMDL
MODEL 7
REMARK VINA RESULT:      -6.0      2.682      6.793
REMARK  4 active torsions:
REMARK  status: ('A' for Active; 'I' for Inactive)
REMARK    1  A    between atoms: C_2  and  N_3 
REMARK       I    between atoms: N_3  and  C_4 
REMARK    2  A    between atoms: C_4  and  C_6 
REMARK    3  A    between atoms: C_9  and  N_10 
REMARK    4  A    between atoms: N_10  and  C_11 
ROOT
HETATM    1  C   UNL     1     -41.348 -51.208  12.077  1.00  0.00     0.116 A 
HETATM    2  C   UNL     1     -42.267 -50.268  12.505  1.00  0.00     0.040 A 
HETATM    3  C   UNL     1     -42.256 -49.016  11.898  1.00  0.00     0.046 A 
HETATM    4  C   UNL     1     -41.303 -48.736  10.928  1.00  0.00     0.095 A 
HETATM    5  N   UNL     1     -40.431 -49.694  10.537  1.00  0.00    -0.289 N 
ATOM      6  HN  UNL     1     -39.747 -49.484   9.810  1.00  0.00     0.188 HD
HETATM    7  N   UNL     1     -40.451 -50.945  11.102  1.00  0.00    -0.294 N 
ATOM      8  HN  UNL     1     -39.799 -51.665  10.791  1.00  0.00     0.187 HD
ENDROOT
BRANCH   4   9
HETATM    9  N   UNL     1     -41.260 -47.430  10.396  1.00  0.00    -0.271 NA
HETATM   10  H   UNL     1     -41.271 -47.507   9.381  1.00  0.00     0.129 HD
BRANCH   9  11
HETATM   11  C   UNL     1     -40.137 -46.638  10.897  1.00  0.00     0.093 C 
HETATM   12  C   UNL     1     -40.069 -46.635  12.436  1.00  0.00     0.054 C 
HETATM   13  C   UNL     1     -39.984 -45.145  12.762  1.00  0.00     0.123 C 
HETATM   14  C   UNL     1     -41.356 -44.493  12.635  1.00  0.00     0.034 C 
HETATM   15  O   UNL     1     -39.323 -44.607  11.593  1.00  0.00    -0.379 OA
HETATM   16  C   UNL     1     -41.575 -44.525  11.121  1.00  0.00     0.036 C 
HETATM   17  C   UNL     1     -40.261 -45.129  10.614  1.00  0.00     0.140 C 
ENDBRANCH   9  11
ENDBRANCH   4   9
BRANCH   1  18
HETATM   18  C   UNL     1     -41.304 -52.569  12.683  1.00  0.00     0.269 C 
HETATM   19  N   UNL     1     -42.425 -52.951  13.387  1.00  0.00    -0.356 N 
HETATM   20  H   UNL     1     -43.215 -52.310  13.407  1.00  0.00     0.162 HD
HETATM   21  O   UNL     1     -40.310 -53.279  12.545  1.00  0.00    -0.266 OA
BRANCH  19  22
HETATM   22  C   UNL     1     -42.529 -54.239  14.033  1.00  0.00     0.118 C 
HETATM   23  C   UNL     1     -43.974 -54.631  14.282  1.00  0.00     0.026 C 
ENDBRANCH  19  22
ENDBRANCH   1  18
TORSDOF 4
ENDMDL
MODEL 8
REMARK VINA RESULT:      -5.9      2.976      6.724
REMARK  4 active torsions:
REMARK  status: ('A' for Active; 'I' for Inactive)
REMARK    1  A    between atoms: C_2  and  N_3 
REMARK       I    between atoms: N_3  and  C_4 
REMARK    2  A    between atoms: C_4  and  C_6 
REMARK    3  A    between atoms: C_9  and  N_10 
REMARK    4  A    between atoms: N_10  and  C_11 
ROOT
HETATM    1  C   UNL     1     -40.717 -51.402  12.338  1.00  0.00     0.116 A 
HETATM    2  C   UNL     1     -40.183 -50.570  13.304  1.00  0.00     0.040 A 
HETATM    3  C   UNL     1     -39.757 -49.303  12.916  1.00  0.00     0.046 A 
HETATM    4  C   UNL     1     -39.836 -48.936  11.579  1.00  0.00     0.095 A 
HETATM    5  N   UNL     1     -40.376 -49.785  10.673  1.00  0.00    -0.289 N 
ATOM      6  HN  UNL     1     -40.446 -49.498   9.697  1.00  0.00     0.188 HD
HETATM    7  N   UNL     1     -40.832 -51.025  11.046  1.00  0.00    -0.294 N 
ATOM      8  HN  UNL     1     -41.251 -51.652  10.359  1.00  0.00     0.187 HD
ENDROOT
BRANCH   4   9
HETATM    9  N   UNL     1     -39.313 -47.681  11.203  1.00  0.00    -0.271 NA
HETATM   10  H   UNL     1     -38.579 -47.438  11.866  1.00  0.00     0.129 HD
BRANCH   9  11
HETATM   11  C   UNL     1     -40.337 -46.643  11.077  1.00  0.00     0.093 C 
HETATM   12  C   UNL     1     -39.797 -45.378  10.384  1.00  0.00     0.054 C 
HETATM   13  C   UNL     1     -40.200 -44.269  11.357  1.00  0.00     0.123 C 
HETATM   14  C   UNL     1     -39.257 -44.243  12.554  1.00  0.00     0.034 C 
HETATM   15  O   UNL     1     -41.395 -44.811  11.970  1.00  0.00    -0.379 OA
HETATM   16  C   UNL     1     -39.646 -45.531  13.283  1.00  0.00     0.036 C 
HETATM   17  C   UNL     1     -40.800 -46.056  12.423  1.00  0.00     0.140 C 
ENDBRANCH   9  11
ENDBRANCH   4   9
BRANCH   1  18
HETATM   18  C   UNL     1     -41.194 -52.771  12.683  1.00  0.00     0.269 C 
HETATM   19  N   UNL     1     -42.473 -52.854  13.190  1.00  0.00    -0.356 N 
HETATM   20  H   UNL     1     -43.016 -51.996  13.249  1.00  0.00     0.162 HD
HETATM   21  O   UNL     1     -40.462 -53.745  12.516  1.00  0.00    -0.266 OA
BRANCH  19  22
HETATM   22  C   UNL     1     -43.071 -54.112  13.573  1.00  0.00     0.118 C 
HETATM   23  C   UNL     1     -44.496 -54.238  13.062  1.00  0.00     0.026 C 
ENDBRANCH  19  22
ENDBRANCH   1  18
TORSDOF 4
ENDMDL
MODEL 9
REMARK VINA RESULT:      -5.7      3.608      5.813
REMARK  4 active torsions:
REMARK  status: ('A' for Active; 'I' for Inactive)
REMARK    1  A    between atoms: C_2  and  N_3 
REMARK       I    between atoms: N_3  and  C_4 
REMARK    2  A    between atoms: C_4  and  C_6 
REMARK    3  A    between atoms: C_9  and  N_10 
REMARK    4  A    between atoms: N_10  and  C_11 
ROOT
HETATM    1  C   UNL     1     -39.636 -50.442  12.533  1.00  0.00     0.116 A 
HETATM    2  C   UNL     1     -39.619 -51.748  12.986  1.00  0.00     0.040 A 
HETATM    3  C   UNL     1     -40.738 -52.540  12.748  1.00  0.00     0.046 A 
HETATM    4  C   UNL     1     -41.843 -51.987  12.115  1.00  0.00     0.095 A 
HETATM    5  N   UNL     1     -41.807 -50.705  11.682  1.00  0.00    -0.289 N 
ATOM      6  HN  UNL     1     -42.617 -50.314  11.201  1.00  0.00     0.188 HD
HETATM    7  N   UNL     1     -40.697 -49.921  11.879  1.00  0.00    -0.294 N 
ATOM      8  HN  UNL     1     -40.673 -48.960  11.537  1.00  0.00     0.187 HD
ENDROOT
BRANCH   4   9
HETATM    9  N   UNL     1     -42.995 -52.789  11.969  1.00  0.00    -0.271 NA
HETATM   10  H   UNL     1     -43.659 -52.278  11.390  1.00  0.00     0.129 HD
BRANCH   9  11
HETATM   11  C   UNL     1     -43.564 -53.222  13.245  1.00  0.00     0.093 C 
HETATM   12  C   UNL     1     -44.760 -54.173  13.054  1.00  0.00     0.054 C 
HETATM   13  C   UNL     1     -45.841 -53.526  13.920  1.00  0.00     0.123 C 
HETATM   14  C   UNL     1     -46.444 -52.322  13.206  1.00  0.00     0.034 C 
HETATM   15  O   UNL     1     -45.064 -52.865  14.947  1.00  0.00    -0.379 OA
HETATM   16  C   UNL     1     -45.287 -51.322  13.254  1.00  0.00     0.036 C 
HETATM   17  C   UNL     1     -44.226 -52.088  14.050  1.00  0.00     0.140 C 
ENDBRANCH   9  11
ENDBRANCH   4   9
BRANCH   1  18
HETATM   18  C   UNL     1     -38.472 -49.538  12.753  1.00  0.00     0.269 C 
HETATM   19  N   UNL     1     -38.502 -48.786  13.907  1.00  0.00    -0.356 N 
HETATM   20  H   UNL     1     -39.279 -48.930  14.547  1.00  0.00     0.162 HD
HETATM   21  O   UNL     1     -37.559 -49.489  11.930  1.00  0.00    -0.266 OA
BRANCH  19  22
HETATM   22  C   UNL     1     -37.446 -47.863  14.254  1.00  0.00     0.118 C 
HETATM   23  C   UNL     1     -36.740 -48.269  15.536  1.00  0.00     0.026 C 
ENDBRANCH  19  22
ENDBRANCH   1  18
TORSDOF 4
ENDMDL
