MODEL 1
REMARK VINA RESULT:      -6.1      0.000      0.000
REMARK  5 active torsions:
REMARK  status: ('A' for Active; 'I' for Inactive)
REMARK    1  A    between atoms: S_2  and  C_5 
REMARK    2  A    between atoms: C_8  and  N_9 
REMARK       I    between atoms: N_9  and  C_10 
REMARK       I    between atoms: C_10  and  N_12 
REMARK    3  A    between atoms: N_12  and  C_13 
REMARK    4  A    between atoms: C_13  and  C_14 
REMARK    5  A    between atoms: C_13  and  C_17 
ROOT
HETATM    1  N   UNL     1     -40.493 -50.496  11.182  1.00  0.00    -0.308 N 
HETATM    2  C   UNL     1     -41.409 -49.480  11.354  1.00  0.00     0.321 C 
HETATM    3  O   UNL     1     -42.093 -49.312  12.354  1.00  0.00    -0.247 OA
HETATM    4  N   UNL     1     -41.511 -48.651  10.266  1.00  0.00    -0.338 N 
HETATM    5  H   UNL     1     -40.178 -50.663  10.238  1.00  0.00     0.170 HD
HETATM    6  H   UNL     1     -40.858 -48.725   9.506  1.00  0.00     0.164 HD
ENDROOT
BRANCH   1   7
HETATM    7  C   UNL     1     -40.197 -51.482  12.158  1.00  0.00     0.051 A 
HETATM    8  C   UNL     1     -39.201 -51.329  13.126  1.00  0.00     0.034 A 
HETATM    9  C   UNL     1     -39.022 -52.290  14.116  1.00  0.00     0.044 A 
HETATM   10  C   UNL     1     -39.850 -53.395  14.085  1.00  0.00     0.128 A 
HETATM   11  N   UNL     1     -40.796 -53.635  13.140  1.00  0.00    -0.355 N 
HETATM   12  C   UNL     1     -40.935 -52.669  12.195  1.00  0.00     0.118 A 
ATOM     13  HN  UNL     1     -41.363 -54.484  13.140  1.00  0.00     0.166 HD
BRANCH  10  14
HETATM   14  S   UNL     1     -39.742 -54.592  15.394  1.00  0.00     0.187 S 
HETATM   15  C   UNL     1     -39.026 -53.734  16.764  1.00  0.00     0.168 C 
HETATM   16  O   UNL     1     -38.791 -55.609  14.966  1.00  0.00    -0.222 OA
HETATM   17  O   UNL     1     -41.101 -54.957  15.756  1.00  0.00    -0.222 OA
ENDBRANCH  10  14
ENDBRANCH   1   7
BRANCH   4  18
HETATM   18  C   UNL     1     -42.345 -47.462  10.327  1.00  0.00     0.094 C 
BRANCH  18  19
HETATM   19  C   UNL     1     -41.459 -46.241  10.245  1.00  0.00     0.009 A 
HETATM   20  C   UNL     1     -40.124 -46.175  10.947  1.00  0.00     0.007 A 
HETATM   21  C   UNL     1     -41.280 -45.375  11.470  1.00  0.00     0.007 A 
ENDBRANCH  18  19
BRANCH  18  22
HETATM   22  C   UNL     1     -43.387 -47.430   9.235  1.00  0.00     0.009 A 
HETATM   23  C   UNL     1     -44.161 -46.169   8.933  1.00  0.00     0.007 A 
HETATM   24  C   UNL     1     -44.877 -47.374   9.479  1.00  0.00     0.007 A 
ENDBRANCH  18  22
ENDBRANCH   4  18
TORSDOF 5
ENDMDL
MODEL 2
REMARK VINA RESULT:      -6.1      3.792      8.285
REMARK  5 active torsions:
REMARK  status: ('A' for Active; 'I' for Inactive)
REMARK    1  A    between atoms: S_2  and  C_5 
REMARK    2  A    between atoms: C_8  and  N_9 
REMARK       I    between atoms: N_9  and  C_10 
REMARK       I    between atoms: C_10  and  N_12 
REMARK    3  A    between atoms: N_12  and  C_13 
REMARK    4  A    between atoms: C_13  and  C_14 
REMARK    5  A    between atoms: C_13  and  C_17 
ROOT
HETATM    1  N   UNL     1     -42.015 -49.595  11.157  1.00  0.00    -0.308 N 
HETATM    2  C   UNL     1     -41.884 -50.420  12.253  1.00  0.00     0.321 C 
HETATM    3  O   UNL     1     -41.723 -50.039  13.405  1.00  0.00    -0.247 OA
HETATM    4  N   UNL     1     -41.929 -51.755  11.937  1.00  0.00    -0.338 N 
HETATM    5  H   UNL     1     -41.900 -50.026  10.253  1.00  0.00     0.170 HD
HETATM    6  H   UNL     1     -42.185 -52.050  11.012  1.00  0.00     0.164 HD
ENDROOT
BRANCH   1   7
HETATM    7  C   UNL     1     -42.007 -48.178  11.215  1.00  0.00     0.051 A 
HETATM    8  C   UNL     1     -40.841 -47.412  11.124  1.00  0.00     0.034 A 
HETATM    9  C   UNL     1     -40.907 -46.023  11.090  1.00  0.00     0.044 A 
HETATM   10  C   UNL     1     -42.158 -45.444  11.170  1.00  0.00     0.128 A 
HETATM   11  N   UNL     1     -43.325 -46.125  11.321  1.00  0.00    -0.355 N 
HETATM   12  C   UNL     1     -43.211 -47.478  11.347  1.00  0.00     0.118 A 
ATOM     13  HN  UNL     1     -44.225 -45.652  11.409  1.00  0.00     0.166 HD
BRANCH  10  14
HETATM   14  S   UNL     1     -42.307 -43.681  11.013  1.00  0.00     0.187 S 
HETATM   15  C   UNL     1     -42.785 -43.101  12.614  1.00  0.00     0.168 C 
HETATM   16  O   UNL     1     -43.416 -43.424  10.104  1.00  0.00    -0.222 OA
HETATM   17  O   UNL     1     -40.981 -43.161  10.727  1.00  0.00    -0.222 OA
ENDBRANCH  10  14
ENDBRANCH   1   7
BRANCH   4  18
HETATM   18  C   UNL     1     -41.922 -52.757  12.991  1.00  0.00     0.094 C 
BRANCH  18  19
HETATM   19  C   UNL     1     -43.065 -53.716  12.756  1.00  0.00     0.009 A 
HETATM   20  C   UNL     1     -44.473 -53.233  12.499  1.00  0.00     0.007 A 
HETATM   21  C   UNL     1     -44.131 -53.867  13.816  1.00  0.00     0.007 A 
ENDBRANCH  18  19
BRANCH  18  22
HETATM   22  C   UNL     1     -40.614 -53.506  13.066  1.00  0.00     0.009 A 
HETATM   23  C   UNL     1     -40.282 -54.377  14.255  1.00  0.00     0.007 A 
HETATM   24  C   UNL     1     -39.472 -53.138  13.985  1.00  0.00     0.007 A 
ENDBRANCH  18  22
ENDBRANCH   4  18
TORSDOF 5
ENDMDL
MODEL 3
REMARK VINA RESULT:      -5.9      4.404      8.062
REMARK  5 active torsions:
REMARK  status: ('A' for Active; 'I' for Inactive)
REMARK    1  A    between atoms: S_2  and  C_5 
REMARK    2  A    between atoms: C_8  and  N_9 
REMARK       I    between atoms: N_9  and  C_10 
REMARK       I    between atoms: C_10  and  N_12 
REMARK    3  A    between atoms: N_12  and  C_13 
REMARK    4  A    between atoms: C_13  and  C_14 
REMARK    5  A    between atoms: C_13  and  C_17 
ROOT
HETATM    1  N   UNL     1     -42.739 -49.642  11.698  1.00  0.00    -0.308 N 
HETATM    2  C   UNL     1     -43.125 -50.268  12.864  1.00  0.00     0.321 C 
HETATM    3  O   UNL     1     -43.060 -49.775  13.982  1.00  0.00    -0.247 OA
HETATM    4  N   UNL     1     -43.589 -51.544  12.667  1.00  0.00    -0.338 N 
HETATM    5  H   UNL     1     -42.618 -50.232  10.889  1.00  0.00     0.170 HD
HETATM    6  H   UNL     1     -43.754 -51.888  11.737  1.00  0.00     0.164 HD
ENDROOT
BRANCH   1   7
HETATM    7  C   UNL     1     -42.231 -48.319  11.629  1.00  0.00     0.051 A 
HETATM    8  C   UNL     1     -40.865 -48.024  11.584  1.00  0.00     0.034 A 
HETATM    9  C   UNL     1     -40.430 -46.712  11.419  1.00  0.00     0.044 A 
HETATM   10  C   UNL     1     -41.396 -45.730  11.325  1.00  0.00     0.128 A 
HETATM   11  N   UNL     1     -42.735 -45.940  11.421  1.00  0.00    -0.355 N 
HETATM   12  C   UNL     1     -43.112 -47.235  11.579  1.00  0.00     0.118 A 
ATOM     13  HN  UNL     1     -43.411 -45.177  11.377  1.00  0.00     0.166 HD
BRANCH  10  14
HETATM   14  S   UNL     1     -40.897 -44.056  10.996  1.00  0.00     0.187 S 
HETATM   15  C   UNL     1     -40.119 -43.494  12.481  1.00  0.00     0.168 C 
HETATM   16  O   UNL     1     -42.113 -43.276  10.814  1.00  0.00    -0.222 OA
HETATM   17  O   UNL     1     -39.887 -44.106   9.953  1.00  0.00    -0.222 OA
ENDBRANCH  10  14
ENDBRANCH   1   7
BRANCH   4  18
HETATM   18  C   UNL     1     -44.145 -52.300  13.777  1.00  0.00     0.094 C 
BRANCH  18  19
HETATM   19  C   UNL     1     -45.627 -52.484  13.547  1.00  0.00     0.009 A 
HETATM   20  C   UNL     1     -46.430 -51.516  12.711  1.00  0.00     0.007 A 
HETATM   21  C   UNL     1     -46.598 -51.528  14.202  1.00  0.00     0.007 A 
ENDBRANCH  18  19
BRANCH  18  22
HETATM   22  C   UNL     1     -43.472 -53.639  13.959  1.00  0.00     0.009 A 
HETATM   23  C   UNL     1     -44.259 -54.856  14.386  1.00  0.00     0.007 A 
HETATM   24  C   UNL     1     -43.207 -54.286  15.299  1.00  0.00     0.007 A 
ENDBRANCH  18  22
ENDBRANCH   4  18
TORSDOF 5
ENDMDL
MODEL 4
REMARK VINA RESULT:      -5.8      4.149      7.855
REMARK  5 active torsions:
REMARK  status: ('A' for Active; 'I' for Inactive)
REMARK    1  A    between atoms: S_2  and  C_5 
REMARK    2  A    between atoms: C_8  and  N_9 
REMARK       I    between atoms: N_9  and  C_10 
REMARK       I    between atoms: C_10  and  N_12 
REMARK    3  A    between atoms: N_12  and  C_13 
REMARK    4  A    between atoms: C_13  and  C_14 
REMARK    5  A    between atoms: C_13  and  C_17 
ROOT
HETATM    1  N   UNL     1     -42.132 -50.113  11.461  1.00  0.00    -0.308 N 
HETATM    2  C   UNL     1     -42.691 -50.500  12.660  1.00  0.00     0.321 C 
HETATM    3  O   UNL     1     -42.834 -49.776  13.636  1.00  0.00    -0.247 OA
HETATM    4  N   UNL     1     -43.074 -51.817  12.680  1.00  0.00    -0.338 N 
HETATM    5  H   UNL     1     -41.855 -50.852  10.834  1.00  0.00     0.170 HD
HETATM    6  H   UNL     1     -43.066 -52.363  11.836  1.00  0.00     0.164 HD
ENDROOT
BRANCH   1   7
HETATM    7  C   UNL     1     -41.661 -48.804  11.182  1.00  0.00     0.051 A 
HETATM    8  C   UNL     1     -42.479 -47.781  10.695  1.00  0.00     0.034 A 
HETATM    9  C   UNL     1     -41.981 -46.492  10.532  1.00  0.00     0.044 A 
HETATM   10  C   UNL     1     -40.655 -46.279  10.850  1.00  0.00     0.128 A 
HETATM   11  N   UNL     1     -39.789 -47.239  11.270  1.00  0.00    -0.355 N 
HETATM   12  C   UNL     1     -40.321 -48.480  11.416  1.00  0.00     0.118 A 
ATOM     13  HN  UNL     1     -38.807 -47.041  11.462  1.00  0.00     0.166 HD
BRANCH  10  14
HETATM   14  S   UNL     1     -40.001 -44.629  10.772  1.00  0.00     0.187 S 
HETATM   15  C   UNL     1     -38.912 -44.616   9.379  1.00  0.00     0.168 C 
HETATM   16  O   UNL     1     -39.190 -44.433  11.966  1.00  0.00    -0.222 OA
HETATM   17  O   UNL     1     -41.112 -43.740  10.480  1.00  0.00    -0.222 OA
ENDBRANCH  10  14
ENDBRANCH   1   7
BRANCH   4  18
HETATM   18  C   UNL     1     -43.788 -52.354  13.827  1.00  0.00     0.094 C 
BRANCH  18  19
HETATM   19  C   UNL     1     -45.245 -52.514  13.462  1.00  0.00     0.009 A 
HETATM   20  C   UNL     1     -46.028 -51.406  12.799  1.00  0.00     0.007 A 
HETATM   21  C   UNL     1     -46.288 -51.745  14.238  1.00  0.00     0.007 A 
ENDBRANCH  18  19
BRANCH  18  22
HETATM   22  C   UNL     1     -43.217 -53.670  14.298  1.00  0.00     0.009 A 
HETATM   23  C   UNL     1     -44.116 -54.840  14.622  1.00  0.00     0.007 A 
HETATM   24  C   UNL     1     -43.316 -54.184  15.716  1.00  0.00     0.007 A 
ENDBRANCH  18  22
ENDBRANCH   4  18
TORSDOF 5
ENDMDL
MODEL 5
REMARK VINA RESULT:      -5.5      1.784      2.164
REMARK  5 active torsions:
REMARK  status: ('A' for Active; 'I' for Inactive)
REMARK    1  A    between atoms: S_2  and  C_5 
REMARK    2  A    between atoms: C_8  and  N_9 
REMARK       I    between atoms: N_9  and  C_10 
REMARK       I    between atoms: C_10  and  N_12 
REMARK    3  A    between atoms: N_12  and  C_13 
REMARK    4  A    between atoms: C_13  and  C_14 
REMARK    5  A    between atoms: C_13  and  C_17 
ROOT
HETATM    1  N   UNL     1     -41.780 -50.820  11.768  1.00  0.00    -0.308 N 
HETATM    2  C   UNL     1     -42.378 -49.579  11.730  1.00  0.00     0.321 C 
HETATM    3  O   UNL     1     -43.218 -49.179  12.526  1.00  0.00    -0.247 OA
HETATM    4  N   UNL     1     -41.957 -48.803  10.680  1.00  0.00    -0.338 N 
HETATM    5  H   UNL     1     -41.295 -51.111  10.933  1.00  0.00     0.170 HD
HETATM    6  H   UNL     1     -41.180 -49.094  10.112  1.00  0.00     0.164 HD
ENDROOT
BRANCH   1   7
HETATM    7  C   UNL     1     -42.038 -51.805  12.755  1.00  0.00     0.051 A 
HETATM    8  C   UNL     1     -43.007 -52.803  12.609  1.00  0.00     0.034 A 
HETATM    9  C   UNL     1     -43.147 -53.799  13.570  1.00  0.00     0.044 A 
HETATM   10  C   UNL     1     -42.312 -53.745  14.668  1.00  0.00     0.128 A 
HETATM   11  N   UNL     1     -41.393 -52.771  14.902  1.00  0.00    -0.355 N 
HETATM   12  C   UNL     1     -41.290 -51.822  13.936  1.00  0.00     0.118 A 
ATOM     13  HN  UNL     1     -40.819 -52.755  15.745  1.00  0.00     0.166 HD
BRANCH  10  14
HETATM   14  S   UNL     1     -42.370 -55.057  15.864  1.00  0.00     0.187 S 
HETATM   15  C   UNL     1     -43.059 -54.336  17.325  1.00  0.00     0.168 C 
HETATM   16  O   UNL     1     -40.993 -55.425  16.163  1.00  0.00    -0.222 OA
HETATM   17  O   UNL     1     -43.310 -56.048  15.370  1.00  0.00    -0.222 OA
ENDBRANCH  10  14
ENDBRANCH   1   7
BRANCH   4  18
HETATM   18  C   UNL     1     -42.402 -47.425  10.563  1.00  0.00     0.094 C 
BRANCH  18  19
HETATM   19  C   UNL     1     -41.193 -46.520  10.574  1.00  0.00     0.009 A 
HETATM   20  C   UNL     1     -40.035 -46.747  11.518  1.00  0.00     0.007 A 
HETATM   21  C   UNL     1     -40.972 -45.598  11.752  1.00  0.00     0.007 A 
ENDBRANCH  18  19
BRANCH  18  22
HETATM   22  C   UNL     1     -43.224 -47.187   9.319  1.00  0.00     0.009 A 
HETATM   23  C   UNL     1     -43.871 -45.848   9.054  1.00  0.00     0.007 A 
HETATM   24  C   UNL     1     -44.730 -47.058   9.302  1.00  0.00     0.007 A 
ENDBRANCH  18  22
ENDBRANCH   4  18
TORSDOF 5
ENDMDL
MODEL 6
REMARK VINA RESULT:      -5.3      3.344      8.210
REMARK  5 active torsions:
REMARK  status: ('A' for Active; 'I' for Inactive)
REMARK    1  A    between atoms: S_2  and  C_5 
REMARK    2  A    between atoms: C_8  and  N_9 
REMARK       I    between atoms: N_9  and  C_10 
REMARK       I    between atoms: C_10  and  N_12 
REMARK    3  A    between atoms: N_12  and  C_13 
REMARK    4  A    between atoms: C_13  and  C_14 
REMARK    5  A    between atoms: C_13  and  C_17 
ROOT
HETATM    1  N   UNL     1     -39.966 -50.733  11.988  1.00  0.00    -0.308 N 
HETATM    2  C   UNL     1     -40.349 -51.384  13.142  1.00  0.00     0.321 C 
HETATM    3  O   UNL     1     -40.927 -50.861  14.085  1.00  0.00    -0.247 OA
HETATM    4  N   UNL     1     -40.000 -52.711  13.158  1.00  0.00    -0.338 N 
HETATM    5  H   UNL     1     -39.296 -51.209  11.404  1.00  0.00     0.170 HD
HETATM    6  H   UNL     1     -39.640 -53.153  12.330  1.00  0.00     0.164 HD
ENDROOT
BRANCH   1   7
HETATM    7  C   UNL     1     -40.213 -49.361  11.723  1.00  0.00     0.051 A 
HETATM    8  C   UNL     1     -39.337 -48.338  12.096  1.00  0.00     0.034 A 
HETATM    9  C   UNL     1     -39.587 -47.021  11.722  1.00  0.00     0.044 A 
HETATM   10  C   UNL     1     -40.734 -46.774  10.994  1.00  0.00     0.128 A 
HETATM   11  N   UNL     1     -41.657 -47.711  10.650  1.00  0.00    -0.355 N 
HETATM   12  C   UNL     1     -41.369 -48.981  11.035  1.00  0.00     0.118 A 
ATOM     13  HN  UNL     1     -42.507 -47.476  10.138  1.00  0.00     0.166 HD
BRANCH  10  14
HETATM   14  S   UNL     1     -41.039 -45.131  10.392  1.00  0.00     0.187 S 
HETATM   15  C   UNL     1     -41.209 -44.122  11.834  1.00  0.00     0.168 C 
HETATM   16  O   UNL     1     -42.330 -45.155   9.718  1.00  0.00    -0.222 OA
HETATM   17  O   UNL     1     -39.844 -44.703   9.685  1.00  0.00    -0.222 OA
ENDBRANCH  10  14
ENDBRANCH   1   7
BRANCH   4  18
HETATM   18  C   UNL     1     -40.432 -53.568  14.249  1.00  0.00     0.094 C 
BRANCH  18  19
HETATM   19  C   UNL     1     -41.558 -54.448  13.760  1.00  0.00     0.009 A 
HETATM   20  C   UNL     1     -42.777 -53.878  13.075  1.00  0.00     0.007 A 
HETATM   21  C   UNL     1     -42.889 -54.408  14.474  1.00  0.00     0.007 A 
ENDBRANCH  18  19
BRANCH  18  22
HETATM   22  C   UNL     1     -39.308 -54.411  14.801  1.00  0.00     0.009 A 
HETATM   23  C   UNL     1     -39.569 -55.478  15.838  1.00  0.00     0.007 A 
HETATM   24  C   UNL     1     -38.744 -54.272  16.197  1.00  0.00     0.007 A 
ENDBRANCH  18  22
ENDBRANCH   4  18
TORSDOF 5
ENDMDL
MODEL 7
REMARK VINA RESULT:      -5.2      2.341      3.288
REMARK  5 active torsions:
REMARK  status: ('A' for Active; 'I' for Inactive)
REMARK    1  A    between atoms: S_2  and  C_5 
REMARK    2  A    between atoms: C_8  and  N_9 
REMARK       I    between atoms: N_9  and  C_10 
REMARK       I    between atoms: C_10  and  N_12 
REMARK    3  A    between atoms: N_12  and  C_13 
REMARK    4  A    between atoms: C_13  and  C_14 
REMARK    5  A    between atoms: C_13  and  C_17 
ROOT
HETATM    1  N   UNL     1     -43.633 -50.196  12.662  1.00  0.00    -0.308 N 
HETATM    2  C   UNL     1     -42.694 -49.500  11.932  1.00  0.00     0.321 C 
HETATM    3  O   UNL     1     -41.517 -49.814  11.818  1.00  0.00    -0.247 OA
HETATM    4  N   UNL     1     -43.198 -48.373  11.333  1.00  0.00    -0.338 N 
HETATM    5  H   UNL     1     -44.492 -49.711  12.871  1.00  0.00     0.170 HD
HETATM    6  H   UNL     1     -44.188 -48.197  11.332  1.00  0.00     0.164 HD
ENDROOT
BRANCH   1   7
HETATM    7  C   UNL     1     -43.368 -51.397  13.371  1.00  0.00     0.051 A 
HETATM    8  C   UNL     1     -43.098 -52.616  12.742  1.00  0.00     0.034 A 
HETATM    9  C   UNL     1     -42.750 -53.736  13.490  1.00  0.00     0.044 A 
HETATM   10  C   UNL     1     -42.706 -53.595  14.863  1.00  0.00     0.128 A 
HETATM   11  N   UNL     1     -43.015 -52.458  15.541  1.00  0.00    -0.355 N 
HETATM   12  C   UNL     1     -43.346 -51.391  14.769  1.00  0.00     0.118 A 
ATOM     13  HN  UNL     1     -42.999 -52.410  16.560  1.00  0.00     0.166 HD
BRANCH  10  14
HETATM   14  S   UNL     1     -42.154 -54.961  15.856  1.00  0.00     0.187 S 
HETATM   15  C   UNL     1     -42.342 -54.434  17.533  1.00  0.00     0.168 C 
HETATM   16  O   UNL     1     -40.729 -55.126  15.603  1.00  0.00    -0.222 OA
HETATM   17  O   UNL     1     -43.077 -56.060  15.626  1.00  0.00    -0.222 OA
ENDBRANCH  10  14
ENDBRANCH   1   7
BRANCH   4  18
HETATM   18  C   UNL     1     -42.369 -47.590  10.432  1.00  0.00     0.094 C 
BRANCH  18  19
HETATM   19  C   UNL     1     -43.261 -46.910   9.419  1.00  0.00     0.009 A 
HETATM   20  C   UNL     1     -44.617 -47.463   9.050  1.00  0.00     0.007 A 
HETATM   21  C   UNL     1     -43.482 -47.563   8.074  1.00  0.00     0.007 A 
ENDBRANCH  18  19
BRANCH  18  22
HETATM   22  C   UNL     1     -41.528 -46.570  11.159  1.00  0.00     0.009 A 
HETATM   23  C   UNL     1     -40.745 -45.522  10.404  1.00  0.00     0.007 A 
HETATM   24  C   UNL     1     -40.016 -46.578  11.192  1.00  0.00     0.007 A 
ENDBRANCH  18  22
ENDBRANCH   4  18
TORSDOF 5
ENDMDL
MODEL 8
REMARK VINA RESULT:      -5.1     14.806     16.865
REMARK  5 active torsions:
REMARK  status: ('A' for Active; 'I' for Inactive)
REMARK    1  A    between atoms: S_2  and  C_5 
REMARK    2  A    between atoms: C_8  and  N_9 
REMARK       I    between atoms: N_9  and  C_10 
REMARK       I    between atoms: C_10  and  N_12 
REMARK    3  A    between atoms: N_12  and  C_13 
REMARK    4  A    between atoms: C_13  and  C_14 
REMARK    5  A    between atoms: C_13  and  C_17 
ROOT
HETATM    1  N   UNL     1     -51.042 -49.208  -0.437  1.00  0.00    -0.308 N 
HETATM    2  C   UNL     1     -50.628 -50.513  -0.274  1.00  0.00     0.321 C 
HETATM    3  O   UNL     1     -49.837 -50.899   0.575  1.00  0.00    -0.247 OA
HETATM    4  N   UNL     1     -51.181 -51.376  -1.187  1.00  0.00    -0.338 N 
HETATM    5  H   UNL     1     -51.499 -48.986  -1.308  1.00  0.00     0.170 HD
HETATM    6  H   UNL     1     -51.920 -51.069  -1.795  1.00  0.00     0.164 HD
ENDROOT
BRANCH   1   7
HETATM    7  C   UNL     1     -50.623 -48.127   0.380  1.00  0.00     0.051 A 
HETATM    8  C   UNL     1     -49.368 -47.521   0.266  1.00  0.00     0.034 A 
HETATM    9  C   UNL     1     -49.051 -46.402   1.030  1.00  0.00     0.044 A 
HETATM   10  C   UNL     1     -50.011 -45.937   1.906  1.00  0.00     0.128 A 
HETATM   11  N   UNL     1     -51.225 -46.513   2.109  1.00  0.00    -0.355 N 
HETATM   12  C   UNL     1     -51.491 -47.601   1.341  1.00  0.00     0.118 A 
ATOM     13  HN  UNL     1     -51.892 -46.152   2.793  1.00  0.00     0.166 HD
BRANCH  10  14
HETATM   14  S   UNL     1     -49.701 -44.444   2.817  1.00  0.00     0.187 S 
HETATM   15  C   UNL     1     -49.170 -43.259   1.617  1.00  0.00     0.168 C 
HETATM   16  O   UNL     1     -48.575 -44.708   3.702  1.00  0.00    -0.222 OA
HETATM   17  O   UNL     1     -50.974 -43.996   3.354  1.00  0.00    -0.222 OA
ENDBRANCH  10  14
ENDBRANCH   1   7
BRANCH   4  18
HETATM   18  C   UNL     1     -50.940 -52.805  -1.082  1.00  0.00     0.094 C 
BRANCH  18  19
HETATM   19  C   UNL     1     -52.218 -53.540  -1.414  1.00  0.00     0.009 A 
HETATM   20  C   UNL     1     -53.555 -53.104  -0.863  1.00  0.00     0.007 A 
HETATM   21  C   UNL     1     -52.904 -54.350  -0.339  1.00  0.00     0.007 A 
ENDBRANCH  18  19
BRANCH  18  22
HETATM   22  C   UNL     1     -49.819 -53.270  -1.979  1.00  0.00     0.009 A 
HETATM   23  C   UNL     1     -49.545 -54.741  -2.188  1.00  0.00     0.007 A 
HETATM   24  C   UNL     1     -48.528 -53.882  -1.485  1.00  0.00     0.007 A 
ENDBRANCH  18  22
ENDBRANCH   4  18
TORSDOF 5
ENDMDL
MODEL 9
REMARK VINA RESULT:      -5.0      2.949      3.774
REMARK  5 active torsions:
REMARK  status: ('A' for Active; 'I' for Inactive)
REMARK    1  A    between atoms: S_2  and  C_5 
REMARK    2  A    between atoms: C_8  and  N_9 
REMARK       I    between atoms: N_9  and  C_10 
REMARK       I    between atoms: C_10  and  N_12 
REMARK    3  A    between atoms: N_12  and  C_13 
REMARK    4  A    between atoms: C_13  and  C_14 
REMARK    5  A    between atoms: C_13  and  C_17 
ROOT
HETATM    1  N   UNL     1     -40.466 -50.368  13.083  1.00  0.00    -0.308 N 
HETATM    2  C   UNL     1     -40.855 -49.055  12.928  1.00  0.00     0.321 C 
HETATM    3  O   UNL     1     -42.006 -48.648  13.011  1.00  0.00    -0.247 OA
HETATM    4  N   UNL     1     -39.813 -48.209  12.645  1.00  0.00    -0.338 N 
HETATM    5  H   UNL     1     -39.542 -50.605  12.757  1.00  0.00     0.170 HD
HETATM    6  H   UNL     1     -38.863 -48.534  12.705  1.00  0.00     0.164 HD
ENDROOT
BRANCH   1   7
HETATM    7  C   UNL     1     -41.350 -51.436  13.385  1.00  0.00     0.051 A 
HETATM    8  C   UNL     1     -41.470 -51.996  14.660  1.00  0.00     0.034 A 
HETATM    9  C   UNL     1     -42.424 -52.976  14.916  1.00  0.00     0.044 A 
HETATM   10  C   UNL     1     -43.220 -53.377  13.862  1.00  0.00     0.128 A 
HETATM   11  N   UNL     1     -43.117 -52.919  12.587  1.00  0.00    -0.355 N 
HETATM   12  C   UNL     1     -42.174 -51.963  12.386  1.00  0.00     0.118 A 
ATOM     13  HN  UNL     1     -43.708 -53.269  11.832  1.00  0.00     0.166 HD
BRANCH  10  14
HETATM   14  S   UNL     1     -44.531 -54.539  14.162  1.00  0.00     0.187 S 
HETATM   15  C   UNL     1     -45.661 -53.710  15.239  1.00  0.00     0.168 C 
HETATM   16  O   UNL     1     -43.954 -55.653  14.903  1.00  0.00    -0.222 OA
HETATM   17  O   UNL     1     -45.205 -54.764  12.895  1.00  0.00    -0.222 OA
ENDBRANCH  10  14
ENDBRANCH   1   7
BRANCH   4  18
HETATM   18  C   UNL     1     -40.034 -46.774  12.568  1.00  0.00     0.094 C 
BRANCH  18  19
HETATM   19  C   UNL     1     -39.014 -46.077  13.438  1.00  0.00     0.009 A 
HETATM   20  C   UNL     1     -38.723 -46.534  14.848  1.00  0.00     0.007 A 
HETATM   21  C   UNL     1     -39.487 -45.263  14.620  1.00  0.00     0.007 A 
ENDBRANCH  18  19
BRANCH  18  22
HETATM   22  C   UNL     1     -39.960 -46.254  11.153  1.00  0.00     0.009 A 
HETATM   23  C   UNL     1     -39.861 -44.773  10.871  1.00  0.00     0.007 A 
HETATM   24  C   UNL     1     -41.088 -45.535  10.449  1.00  0.00     0.007 A 
ENDBRANCH  18  22
ENDBRANCH   4  18
TORSDOF 5
ENDMDL
