MODEL 1
REMARK VINA RESULT:      -5.9      0.000      0.000
REMARK  5 active torsions:
REMARK  status: ('A' for Active; 'I' for Inactive)
REMARK    1  A    between atoms: N_2  and  C_3 
REMARK    2  A    between atoms: N_7  and  C_8 
REMARK    3  A    between atoms: C_8  and  C_9 
REMARK    4  A    between atoms: C_9  and  O_10 
REMARK    5  A    between atoms: O_10  and  C_11 
ROOT
HETATM    1  C   UNL     1     -40.460 -52.520  12.715  1.00  0.00     0.052 A 
HETATM    2  C   UNL     1     -41.545 -52.156  11.770  1.00  0.00     0.132 A 
HETATM    3  N   UNL     1     -42.769 -52.583  11.796  1.00  0.00    -0.305 N 
ATOM      4  HN  UNL     1     -43.453 -52.280  11.102  1.00  0.00     0.186 HD
HETATM    5  N   UNL     1     -43.107 -53.462  12.798  1.00  0.00    -0.254 N 
HETATM    6  C   UNL     1     -42.204 -53.955  13.736  1.00  0.00     0.285 A 
HETATM    7  O   UNL     1     -42.498 -54.814  14.565  1.00  0.00    -0.265 OA
HETATM    8  C   UNL     1     -40.832 -53.379  13.674  1.00  0.00     0.126 A 
HETATM    9 CL   UNL     1     -39.691 -53.916  14.864  1.00  0.00    -0.076 Cl
ENDROOT
BRANCH   5  10
HETATM   10  C   UNL     1     -44.484 -53.954  12.793  1.00  0.00     0.179 C 
BRANCH  10  11
HETATM   11  C   UNL     1     -45.499 -52.819  12.671  1.00  0.00     0.197 C 
BRANCH  11  12
HETATM   12  O   UNL     1     -44.952 -51.634  13.264  1.00  0.00    -0.349 OA
BRANCH  12  13
HETATM   13  C   UNL     1     -45.438 -51.323  14.505  1.00  0.00     0.068 A 
HETATM   14  C   UNL     1     -46.774 -51.666  14.736  1.00  0.00     0.038 A 
HETATM   15  C   UNL     1     -47.371 -51.396  15.971  1.00  0.00     0.026 A 
HETATM   16  C   UNL     1     -46.625 -50.794  16.981  1.00  0.00     0.034 A 
HETATM   17 CL   UNL     1     -47.353 -50.451  18.501  1.00  0.00    -0.084 Cl
HETATM   18  C   UNL     1     -45.285 -50.476  16.770  1.00  0.00     0.026 A 
HETATM   19  C   UNL     1     -44.691 -50.743  15.533  1.00  0.00     0.038 A 
ENDBRANCH  12  13
ENDBRANCH  11  12
ENDBRANCH  10  11
ENDBRANCH   5  10
BRANCH   1  20
HETATM   20  N   UNL     1     -39.210 -51.921  12.548  1.00  0.00    -0.294 NA
HETATM   21  C   UNL     1     -39.130 -50.468  12.387  1.00  0.00     0.113 C 
HETATM   22  H   UNL     1     -38.757 -52.338  11.729  1.00  0.00     0.127 HD
ENDBRANCH   1  20
TORSDOF 5
ENDMDL
MODEL 2
REMARK VINA RESULT:      -5.8      4.350      5.308
REMARK  5 active torsions:
REMARK  status: ('A' for Active; 'I' for Inactive)
REMARK    1  A    between atoms: N_2  and  C_3 
REMARK    2  A    between atoms: N_7  and  C_8 
REMARK    3  A    between atoms: C_8  and  C_9 
REMARK    4  A    between atoms: C_9  and  O_10 
REMARK    5  A    between atoms: O_10  and  C_11 
ROOT
HETATM    1  C   UNL     1     -41.922 -46.688  10.123  1.00  0.00     0.052 A 
HETATM    2  C   UNL     1     -42.708 -47.939  10.264  1.00  0.00     0.132 A 
HETATM    3  N   UNL     1     -42.422 -48.951  11.021  1.00  0.00    -0.305 N 
ATOM      4  HN  UNL     1     -43.022 -49.776  11.055  1.00  0.00     0.186 HD
HETATM    5  N   UNL     1     -41.277 -48.866  11.778  1.00  0.00    -0.254 N 
HETATM    6  C   UNL     1     -40.391 -47.793  11.729  1.00  0.00     0.285 A 
HETATM    7  O   UNL     1     -39.323 -47.775  12.337  1.00  0.00    -0.265 OA
HETATM    8  C   UNL     1     -40.814 -46.648  10.877  1.00  0.00     0.126 A 
HETATM    9 CL   UNL     1     -39.773 -45.262  10.836  1.00  0.00    -0.076 Cl
ENDROOT
BRANCH   5  10
HETATM   10  C   UNL     1     -40.957 -50.030  12.604  1.00  0.00     0.179 C 
BRANCH  10  11
HETATM   11  C   UNL     1     -42.051 -50.326  13.627  1.00  0.00     0.197 C 
BRANCH  11  12
HETATM   12  O   UNL     1     -43.209 -50.826  12.946  1.00  0.00    -0.349 OA
BRANCH  12  13
HETATM   13  C   UNL     1     -44.323 -50.988  13.726  1.00  0.00     0.068 A 
HETATM   14  C   UNL     1     -44.168 -50.665  15.077  1.00  0.00     0.038 A 
HETATM   15  C   UNL     1     -45.244 -50.791  15.963  1.00  0.00     0.026 A 
HETATM   16  C   UNL     1     -46.479 -51.226  15.490  1.00  0.00     0.034 A 
HETATM   17 CL   UNL     1     -47.805 -51.391  16.573  1.00  0.00    -0.084 Cl
HETATM   18  C   UNL     1     -46.650 -51.521  14.140  1.00  0.00     0.026 A 
HETATM   19  C   UNL     1     -45.572 -51.399  13.257  1.00  0.00     0.038 A 
ENDBRANCH  12  13
ENDBRANCH  11  12
ENDBRANCH  10  11
ENDBRANCH   5  10
BRANCH   1  20
HETATM   20  N   UNL     1     -42.415 -45.688   9.284  1.00  0.00    -0.294 NA
HETATM   21  C   UNL     1     -43.845 -45.662   8.966  1.00  0.00     0.113 C 
HETATM   22  H   UNL     1     -41.912 -45.735   8.393  1.00  0.00     0.127 HD
ENDBRANCH   1  20
TORSDOF 5
ENDMDL
MODEL 3
REMARK VINA RESULT:      -5.7      2.608      3.277
REMARK  5 active torsions:
REMARK  status: ('A' for Active; 'I' for Inactive)
REMARK    1  A    between atoms: N_2  and  C_3 
REMARK    2  A    between atoms: N_7  and  C_8 
REMARK    3  A    between atoms: C_8  and  C_9 
REMARK    4  A    between atoms: C_9  and  O_10 
REMARK    5  A    between atoms: O_10  and  C_11 
ROOT
HETATM    1  C   UNL     1     -40.132 -48.709  11.422  1.00  0.00     0.052 A 
HETATM    2  C   UNL     1     -41.586 -49.000  11.347  1.00  0.00     0.132 A 
HETATM    3  N   UNL     1     -42.172 -50.105  11.685  1.00  0.00    -0.305 N 
ATOM      4  HN  UNL     1     -43.182 -50.219  11.599  1.00  0.00     0.186 HD
HETATM    5  N   UNL     1     -41.375 -51.119  12.163  1.00  0.00    -0.254 N 
HETATM    6  C   UNL     1     -39.988 -51.042  12.247  1.00  0.00     0.285 A 
HETATM    7  O   UNL     1     -39.281 -51.990  12.584  1.00  0.00    -0.265 OA
HETATM    8  C   UNL     1     -39.393 -49.724  11.891  1.00  0.00     0.126 A 
HETATM    9 CL   UNL     1     -37.673 -49.562  12.043  1.00  0.00    -0.076 Cl
ENDROOT
BRANCH   5  10
HETATM   10  C   UNL     1     -42.052 -52.368  12.510  1.00  0.00     0.179 C 
BRANCH  10  11
HETATM   11  C   UNL     1     -43.515 -52.142  12.888  1.00  0.00     0.197 C 
BRANCH  11  12
HETATM   12  O   UNL     1     -43.589 -51.112  13.882  1.00  0.00    -0.349 OA
BRANCH  12  13
HETATM   13  C   UNL     1     -44.719 -51.127  14.656  1.00  0.00     0.068 A 
HETATM   14  C   UNL     1     -44.556 -50.685  15.973  1.00  0.00     0.038 A 
HETATM   15  C   UNL     1     -45.646 -50.656  16.849  1.00  0.00     0.026 A 
HETATM   16  C   UNL     1     -46.903 -51.056  16.401  1.00  0.00     0.034 A 
HETATM   17 CL   UNL     1     -48.246 -51.031  17.474  1.00  0.00    -0.084 Cl
HETATM   18  C   UNL     1     -47.079 -51.468  15.082  1.00  0.00     0.026 A 
HETATM   19  C   UNL     1     -45.988 -51.502  14.209  1.00  0.00     0.038 A 
ENDBRANCH  12  13
ENDBRANCH  11  12
ENDBRANCH  10  11
ENDBRANCH   5  10
BRANCH   1  20
HETATM   20  N   UNL     1     -39.692 -47.438  11.050  1.00  0.00    -0.294 NA
HETATM   21  C   UNL     1     -40.661 -46.343  10.967  1.00  0.00     0.113 C 
HETATM   22  H   UNL     1     -39.239 -47.507  10.134  1.00  0.00     0.127 HD
ENDBRANCH   1  20
TORSDOF 5
ENDMDL
MODEL 4
REMARK VINA RESULT:      -5.7      3.779      5.106
REMARK  5 active torsions:
REMARK  status: ('A' for Active; 'I' for Inactive)
REMARK    1  A    between atoms: N_2  and  C_3 
REMARK    2  A    between atoms: N_7  and  C_8 
REMARK    3  A    between atoms: C_8  and  C_9 
REMARK    4  A    between atoms: C_9  and  O_10 
REMARK    5  A    between atoms: O_10  and  C_11 
ROOT
HETATM    1  C   UNL     1     -39.323 -49.179  11.891  1.00  0.00     0.052 A 
HETATM    2  C   UNL     1     -40.244 -49.461  13.019  1.00  0.00     0.132 A 
HETATM    3  N   UNL     1     -40.109 -50.389  13.914  1.00  0.00    -0.305 N 
ATOM      4  HN  UNL     1     -40.796 -50.513  14.659  1.00  0.00     0.186 HD
HETATM    5  N   UNL     1     -39.003 -51.200  13.818  1.00  0.00    -0.254 N 
HETATM    6  C   UNL     1     -38.066 -51.116  12.792  1.00  0.00     0.285 A 
HETATM    7  O   UNL     1     -37.135 -51.910  12.665  1.00  0.00    -0.265 OA
HETATM    8  C   UNL     1     -38.259 -49.993  11.833  1.00  0.00     0.126 A 
HETATM    9 CL   UNL     1     -37.079 -49.811  10.576  1.00  0.00    -0.076 Cl
ENDROOT
BRANCH   5  10
HETATM   10  C   UNL     1     -38.885 -52.259  14.820  1.00  0.00     0.179 C 
BRANCH  10  11
HETATM   11  C   UNL     1     -39.649 -53.518  14.416  1.00  0.00     0.197 C 
BRANCH  11  12
HETATM   12  O   UNL     1     -40.486 -53.220  13.291  1.00  0.00    -0.349 OA
BRANCH  12  13
HETATM   13  C   UNL     1     -41.789 -53.621  13.407  1.00  0.00     0.068 A 
HETATM   14  C   UNL     1     -42.064 -54.485  14.472  1.00  0.00     0.038 A 
HETATM   15  C   UNL     1     -43.364 -54.954  14.685  1.00  0.00     0.026 A 
HETATM   16  C   UNL     1     -44.393 -54.545  13.839  1.00  0.00     0.034 A 
HETATM   17 CL   UNL     1     -45.993 -55.124  14.089  1.00  0.00    -0.084 Cl
HETATM   18  C   UNL     1     -44.133 -53.662  12.795  1.00  0.00     0.026 A 
HETATM   19  C   UNL     1     -42.832 -53.197  12.580  1.00  0.00     0.038 A 
ENDBRANCH  12  13
ENDBRANCH  11  12
ENDBRANCH  10  11
ENDBRANCH   5  10
BRANCH   1  20
HETATM   20  N   UNL     1     -39.616 -48.104  11.050  1.00  0.00    -0.294 NA
HETATM   21  C   UNL     1     -40.122 -46.859  11.633  1.00  0.00     0.113 C 
HETATM   22  H   UNL     1     -40.307 -48.412  10.358  1.00  0.00     0.127 HD
ENDBRANCH   1  20
TORSDOF 5
ENDMDL
MODEL 5
REMARK VINA RESULT:      -5.7      3.590      6.199
REMARK  5 active torsions:
REMARK  status: ('A' for Active; 'I' for Inactive)
REMARK    1  A    between atoms: N_2  and  C_3 
REMARK    2  A    between atoms: N_7  and  C_8 
REMARK    3  A    between atoms: C_8  and  C_9 
REMARK    4  A    between atoms: C_9  and  O_10 
REMARK    5  A    between atoms: O_10  and  C_11 
ROOT
HETATM    1  C   UNL     1     -44.188 -54.494  13.711  1.00  0.00     0.052 A 
HETATM    2  C   UNL     1     -44.254 -53.587  12.538  1.00  0.00     0.132 A 
HETATM    3  N   UNL     1     -43.274 -52.909  12.029  1.00  0.00    -0.305 N 
ATOM      4  HN  UNL     1     -43.410 -52.306  11.217  1.00  0.00     0.186 HD
HETATM    5  N   UNL     1     -42.042 -53.037  12.627  1.00  0.00    -0.254 N 
HETATM    6  C   UNL     1     -41.810 -53.797  13.770  1.00  0.00     0.285 A 
HETATM    7  O   UNL     1     -40.726 -53.824  14.350  1.00  0.00    -0.265 OA
HETATM    8  C   UNL     1     -42.971 -54.587  14.265  1.00  0.00     0.126 A 
HETATM    9 CL   UNL     1     -42.709 -55.600  15.649  1.00  0.00    -0.076 Cl
ENDROOT
BRANCH   5  10
HETATM   10  C   UNL     1     -40.957 -52.241  12.055  1.00  0.00     0.179 C 
BRANCH  10  11
HETATM   11  C   UNL     1     -40.974 -50.800  12.560  1.00  0.00     0.197 C 
BRANCH  11  12
HETATM   12  O   UNL     1     -41.970 -50.062  11.840  1.00  0.00    -0.349 OA
BRANCH  12  13
HETATM   13  C   UNL     1     -41.604 -48.796  11.467  1.00  0.00     0.068 A 
HETATM   14  C   UNL     1     -40.324 -48.394  11.861  1.00  0.00     0.038 A 
HETATM   15  C   UNL     1     -39.848 -47.122  11.529  1.00  0.00     0.026 A 
HETATM   16  C   UNL     1     -40.650 -46.257  10.789  1.00  0.00     0.034 A 
HETATM   17 CL   UNL     1     -40.077 -44.687  10.383  1.00  0.00    -0.084 Cl
HETATM   18  C   UNL     1     -41.915 -46.660  10.366  1.00  0.00     0.026 A 
HETATM   19  C   UNL     1     -42.391 -47.931  10.703  1.00  0.00     0.038 A 
ENDBRANCH  12  13
ENDBRANCH  11  12
ENDBRANCH  10  11
ENDBRANCH   5  10
BRANCH   1  20
HETATM   20  N   UNL     1     -45.347 -55.173  14.089  1.00  0.00    -0.294 NA
HETATM   21  C   UNL     1     -46.391 -54.453  14.822  1.00  0.00     0.113 C 
HETATM   22  H   UNL     1     -45.079 -55.978  14.664  1.00  0.00     0.127 HD
ENDBRANCH   1  20
TORSDOF 5
ENDMDL
MODEL 6
REMARK VINA RESULT:      -5.6      3.195      6.185
REMARK  5 active torsions:
REMARK  status: ('A' for Active; 'I' for Inactive)
REMARK    1  A    between atoms: N_2  and  C_3 
REMARK    2  A    between atoms: N_7  and  C_8 
REMARK    3  A    between atoms: C_8  and  C_9 
REMARK    4  A    between atoms: C_9  and  O_10 
REMARK    5  A    between atoms: O_10  and  C_11 
ROOT
HETATM    1  C   UNL     1     -44.569 -53.302  12.660  1.00  0.00     0.052 A 
HETATM    2  C   UNL     1     -43.242 -52.782  12.247  1.00  0.00     0.132 A 
HETATM    3  N   UNL     1     -42.088 -53.167  12.694  1.00  0.00    -0.305 N 
ATOM      4  HN  UNL     1     -41.221 -52.752  12.353  1.00  0.00     0.186 HD
HETATM    5  N   UNL     1     -42.081 -54.159  13.646  1.00  0.00    -0.254 N 
HETATM    6  C   UNL     1     -43.233 -54.720  14.190  1.00  0.00     0.285 A 
HETATM    7  O   UNL     1     -43.212 -55.536  15.110  1.00  0.00    -0.265 OA
HETATM    8  C   UNL     1     -44.517 -54.265  13.590  1.00  0.00     0.126 A 
HETATM    9 CL   UNL     1     -45.974 -54.986  14.193  1.00  0.00    -0.076 Cl
ENDROOT
BRANCH   5  10
HETATM   10  C   UNL     1     -40.770 -54.558  14.158  1.00  0.00     0.179 C 
BRANCH  10  11
HETATM   11  C   UNL     1     -39.949 -53.360  14.628  1.00  0.00     0.197 C 
BRANCH  11  12
HETATM   12  O   UNL     1     -39.209 -52.834  13.519  1.00  0.00    -0.349 OA
BRANCH  12  13
HETATM   13  C   UNL     1     -38.870 -51.511  13.617  1.00  0.00     0.068 A 
HETATM   14  C   UNL     1     -39.350 -50.844  14.749  1.00  0.00     0.038 A 
HETATM   15  C   UNL     1     -39.061 -49.491  14.950  1.00  0.00     0.026 A 
HETATM   16  C   UNL     1     -38.276 -48.809  14.023  1.00  0.00     0.034 A 
HETATM   17 CL   UNL     1     -37.922 -47.142  14.257  1.00  0.00    -0.084 Cl
HETATM   18  C   UNL     1     -37.769 -49.472  12.908  1.00  0.00     0.026 A 
HETATM   19  C   UNL     1     -38.063 -50.824  12.707  1.00  0.00     0.038 A 
ENDBRANCH  12  13
ENDBRANCH  11  12
ENDBRANCH  10  11
ENDBRANCH   5  10
BRANCH   1  20
HETATM   20  N   UNL     1     -45.705 -52.788  12.032  1.00  0.00    -0.294 NA
HETATM   21  C   UNL     1     -46.431 -51.682  12.661  1.00  0.00     0.113 C 
HETATM   22  H   UNL     1     -46.377 -53.551  11.902  1.00  0.00     0.127 HD
ENDBRANCH   1  20
TORSDOF 5
ENDMDL
MODEL 7
REMARK VINA RESULT:      -5.6      4.484      6.409
REMARK  5 active torsions:
REMARK  status: ('A' for Active; 'I' for Inactive)
REMARK    1  A    between atoms: N_2  and  C_3 
REMARK    2  A    between atoms: N_7  and  C_8 
REMARK    3  A    between atoms: C_8  and  C_9 
REMARK    4  A    between atoms: C_9  and  O_10 
REMARK    5  A    between atoms: O_10  and  C_11 
ROOT
HETATM    1  C   UNL     1     -41.944 -46.716  10.064  1.00  0.00     0.052 A 
HETATM    2  C   UNL     1     -42.630 -48.012  10.296  1.00  0.00     0.132 A 
HETATM    3  N   UNL     1     -42.284 -48.929  11.144  1.00  0.00    -0.305 N 
ATOM      4  HN  UNL     1     -42.816 -49.795  11.237  1.00  0.00     0.186 HD
HETATM    5  N   UNL     1     -41.170 -48.687  11.914  1.00  0.00    -0.254 N 
HETATM    6  C   UNL     1     -40.374 -47.552  11.790  1.00  0.00     0.285 A 
HETATM    7  O   UNL     1     -39.327 -47.394  12.416  1.00  0.00    -0.265 OA
HETATM    8  C   UNL     1     -40.864 -46.522  10.833  1.00  0.00     0.126 A 
HETATM    9 CL   UNL     1     -39.937 -45.063  10.695  1.00  0.00    -0.076 Cl
ENDROOT
BRANCH   5  10
HETATM   10  C   UNL     1     -40.780 -49.746  12.843  1.00  0.00     0.179 C 
BRANCH  10  11
HETATM   11  C   UNL     1     -40.165 -50.944  12.122  1.00  0.00     0.197 C 
BRANCH  11  12
HETATM   12  O   UNL     1     -41.215 -51.803  11.659  1.00  0.00    -0.349 OA
BRANCH  12  13
HETATM   13  C   UNL     1     -41.656 -52.730  12.565  1.00  0.00     0.068 A 
HETATM   14  C   UNL     1     -40.670 -53.303  13.374  1.00  0.00     0.038 A 
HETATM   15  C   UNL     1     -41.012 -54.259  14.336  1.00  0.00     0.026 A 
HETATM   16  C   UNL     1     -42.345 -54.629  14.498  1.00  0.00     0.034 A 
HETATM   17 CL   UNL     1     -42.773 -55.810  15.672  1.00  0.00    -0.084 Cl
HETATM   18  C   UNL     1     -43.337 -54.040  13.717  1.00  0.00     0.026 A 
HETATM   19  C   UNL     1     -42.993 -53.089  12.752  1.00  0.00     0.038 A 
ENDBRANCH  12  13
ENDBRANCH  11  12
ENDBRANCH  10  11
ENDBRANCH   5  10
BRANCH   1  20
HETATM   20  N   UNL     1     -42.494 -45.835   9.132  1.00  0.00    -0.294 NA
HETATM   21  C   UNL     1     -43.912 -45.953   8.787  1.00  0.00     0.113 C 
HETATM   22  H   UNL     1     -41.966 -45.917   8.257  1.00  0.00     0.127 HD
ENDBRANCH   1  20
TORSDOF 5
ENDMDL
MODEL 8
REMARK VINA RESULT:      -5.3      1.925      2.534
REMARK  5 active torsions:
REMARK  status: ('A' for Active; 'I' for Inactive)
REMARK    1  A    between atoms: N_2  and  C_3 
REMARK    2  A    between atoms: N_7  and  C_8 
REMARK    3  A    between atoms: C_8  and  C_9 
REMARK    4  A    between atoms: C_9  and  O_10 
REMARK    5  A    between atoms: O_10  and  C_11 
ROOT
HETATM    1  C   UNL     1     -40.701 -52.017  12.377  1.00  0.00     0.052 A 
HETATM    2  C   UNL     1     -40.828 -53.491  12.493  1.00  0.00     0.132 A 
HETATM    3  N   UNL     1     -41.924 -54.161  12.665  1.00  0.00    -0.305 N 
ATOM      4  HN  UNL     1     -41.918 -55.179  12.736  1.00  0.00     0.186 HD
HETATM    5  N   UNL     1     -43.094 -53.444  12.749  1.00  0.00    -0.254 N 
HETATM    6  C   UNL     1     -43.156 -52.053  12.719  1.00  0.00     0.285 A 
HETATM    7  O   UNL     1     -44.197 -51.423  12.893  1.00  0.00    -0.265 OA
HETATM    8  C   UNL     1     -41.864 -51.357  12.466  1.00  0.00     0.126 A 
HETATM    9 CL   UNL     1     -41.904 -49.627  12.355  1.00  0.00    -0.076 Cl
ENDROOT
BRANCH   5  10
HETATM   10  C   UNL     1     -44.315 -54.217  12.973  1.00  0.00     0.179 C 
BRANCH  10  11
HETATM   11  C   UNL     1     -44.359 -54.827  14.373  1.00  0.00     0.197 C 
BRANCH  11  12
HETATM   12  O   UNL     1     -45.721 -54.885  14.816  1.00  0.00    -0.349 OA
BRANCH  12  13
HETATM   13  C   UNL     1     -46.178 -53.763  15.454  1.00  0.00     0.068 A 
HETATM   14  C   UNL     1     -45.934 -53.706  16.830  1.00  0.00     0.038 A 
HETATM   15  C   UNL     1     -46.356 -52.602  17.578  1.00  0.00     0.026 A 
HETATM   16  C   UNL     1     -47.009 -51.548  16.944  1.00  0.00     0.034 A 
HETATM   17 CL   UNL     1     -47.538 -50.191  17.858  1.00  0.00    -0.084 Cl
HETATM   18  C   UNL     1     -47.230 -51.583  15.570  1.00  0.00     0.026 A 
HETATM   19  C   UNL     1     -46.812 -52.690  14.824  1.00  0.00     0.038 A 
ENDBRANCH  12  13
ENDBRANCH  11  12
ENDBRANCH  10  11
ENDBRANCH   5  10
BRANCH   1  20
HETATM   20  N   UNL     1     -39.434 -51.478  12.151  1.00  0.00    -0.294 NA
HETATM   21  C   UNL     1     -38.554 -51.219  13.293  1.00  0.00     0.113 C 
HETATM   22  H   UNL     1     -39.543 -50.590  11.650  1.00  0.00     0.127 HD
ENDBRANCH   1  20
TORSDOF 5
ENDMDL
MODEL 9
REMARK VINA RESULT:      -5.1     22.199     23.850
REMARK  5 active torsions:
REMARK  status: ('A' for Active; 'I' for Inactive)
REMARK    1  A    between atoms: N_2  and  C_3 
REMARK    2  A    between atoms: N_7  and  C_8 
REMARK    3  A    between atoms: C_8  and  C_9 
REMARK    4  A    between atoms: C_9  and  O_10 
REMARK    5  A    between atoms: O_10  and  C_11 
ROOT
HETATM    1  C   UNL     1     -26.847 -40.611   0.297  1.00  0.00     0.052 A 
HETATM    2  C   UNL     1     -27.114 -41.077  -1.086  1.00  0.00     0.132 A 
HETATM    3  N   UNL     1     -26.780 -42.221  -1.595  1.00  0.00    -0.305 N 
ATOM      4  HN  UNL     1     -27.004 -42.459  -2.562  1.00  0.00     0.186 HD
HETATM    5  N   UNL     1     -26.109 -43.102  -0.778  1.00  0.00    -0.254 N 
HETATM    6  C   UNL     1     -25.725 -42.810   0.527  1.00  0.00     0.285 A 
HETATM    7  O   UNL     1     -25.042 -43.569   1.212  1.00  0.00    -0.265 OA
HETATM    8  C   UNL     1     -26.191 -41.499   1.058  1.00  0.00     0.126 A 
HETATM    9 CL   UNL     1     -25.790 -41.121   2.703  1.00  0.00    -0.076 Cl
ENDROOT
BRANCH   5  10
HETATM   10  C   UNL     1     -25.716 -44.375  -1.381  1.00  0.00     0.179 C 
BRANCH  10  11
HETATM   11  C   UNL     1     -26.905 -45.113  -1.990  1.00  0.00     0.197 C 
BRANCH  11  12
HETATM   12  O   UNL     1     -28.051 -44.933  -1.149  1.00  0.00    -0.349 OA
BRANCH  12  13
HETATM   13  C   UNL     1     -29.260 -45.163  -1.749  1.00  0.00     0.068 A 
HETATM   14  C   UNL     1     -29.590 -44.300  -2.799  1.00  0.00     0.038 A 
HETATM   15  C   UNL     1     -30.800 -44.448  -3.484  1.00  0.00     0.026 A 
HETATM   16  C   UNL     1     -31.674 -45.471  -3.126  1.00  0.00     0.034 A 
HETATM   17 CL   UNL     1     -33.169 -45.656  -3.957  1.00  0.00    -0.084 Cl
HETATM   18  C   UNL     1     -31.341 -46.354  -2.102  1.00  0.00     0.026 A 
HETATM   19  C   UNL     1     -30.132 -46.202  -1.415  1.00  0.00     0.038 A 
ENDBRANCH  12  13
ENDBRANCH  11  12
ENDBRANCH  10  11
ENDBRANCH   5  10
BRANCH   1  20
HETATM   20  N   UNL     1     -27.324 -39.356   0.676  1.00  0.00    -0.294 NA
HETATM   21  C   UNL     1     -27.702 -38.393  -0.360  1.00  0.00     0.113 C 
HETATM   22  H   UNL     1     -26.615 -38.902   1.261  1.00  0.00     0.127 HD
ENDBRANCH   1  20
TORSDOF 5
ENDMDL
