MODEL 1
REMARK VINA RESULT:      -6.2      0.000      0.000
REMARK  4 active torsions:
REMARK  status: ('A' for Active; 'I' for Inactive)
REMARK    1  A    between atoms: N_2  and  C_3 
REMARK       I    between atoms: N_2  and  C_7 
REMARK    2  A    between atoms: C_3  and  C_4 
REMARK       I    between atoms: C_4  and  N_6 
REMARK    3  A    between atoms: C_7  and  C_9 
REMARK    4  A    between atoms: C_12  and  N_18 
ROOT
HETATM    1  C   UNL     1     -42.598 -48.363  11.800  1.00  0.00     0.140 A 
HETATM    2  N   UNL     1     -42.338 -49.670  11.539  1.00  0.00    -0.184 N 
ATOM      3  HN  UNL     1     -42.149 -49.984  10.587  1.00  0.00     0.184 HD
HETATM    4  C   UNL     1     -42.336 -50.537  12.559  1.00  0.00     0.680 A 
HETATM    5  N   UNL     1     -42.543 -50.148  13.824  1.00  0.00    -0.200 N 
ATOM      6  HN  UNL     1     -42.526 -50.821  14.591  1.00  0.00     0.183 HD
HETATM    7  C   UNL     1     -42.773 -48.840  14.053  1.00  0.00     0.132 A 
HETATM    8  C   UNL     1     -42.825 -47.880  13.072  1.00  0.00     0.082 A 
HETATM    9 CL   UNL     1     -43.187 -46.262  13.513  1.00  0.00    -0.080 Cl
ENDROOT
BRANCH   1  10
HETATM   10  C   UNL     1     -42.533 -47.451  10.612  1.00  0.00     0.272 C 
HETATM   11  N   UNL     1     -43.652 -47.225   9.792  1.00  0.00    -0.342 N 
HETATM   12  C   UNL     1     -43.470 -46.273   8.706  1.00  0.00     0.153 C 
HETATM   13  O   UNL     1     -41.454 -46.918  10.349  1.00  0.00    -0.266 OA
BRANCH  11  14
HETATM   14  C   UNL     1     -45.030 -47.682  10.051  1.00  0.00     0.228 C 
BRANCH  14  15
HETATM   15  C   UNL     1     -45.974 -47.610   8.842  1.00  0.00     0.233 C 
HETATM   16  O   UNL     1     -46.824 -46.732   8.709  1.00  0.00    -0.272 OA
HETATM   17  N   UNL     1     -45.801 -48.547   7.862  1.00  0.00    -0.369 N 
HETATM   18  H   UNL     1     -45.263 -49.381   8.059  1.00  0.00     0.159 HD
HETATM   19  H   UNL     1     -46.475 -48.564   7.107  1.00  0.00     0.159 HD
ENDBRANCH  14  15
ENDBRANCH  11  14
ENDBRANCH   1  10
BRANCH   4  20
HETATM   20  N   UNL     1     -42.152 -51.864  12.288  1.00  0.00    -0.214 N 
HETATM   21  C   UNL     1     -43.215 -52.850  12.481  1.00  0.00     0.167 C 
HETATM   22  C   UNL     1     -42.836 -53.829  13.603  1.00  0.00     0.188 C 
HETATM   23  O   UNL     1     -41.543 -54.420  13.382  1.00  0.00    -0.388 OA
HETATM   24  C   UNL     1     -40.537 -53.399  13.318  1.00  0.00     0.188 C 
HETATM   25  C   UNL     1     -40.803 -52.414  12.172  1.00  0.00     0.167 C 
ENDBRANCH   4  20
TORSDOF 4
ENDMDL
MODEL 2
REMARK VINA RESULT:      -6.1      3.380      4.488
REMARK  4 active torsions:
REMARK  status: ('A' for Active; 'I' for Inactive)
REMARK    1  A    between atoms: N_2  and  C_3 
REMARK       I    between atoms: N_2  and  C_7 
REMARK    2  A    between atoms: C_3  and  C_4 
REMARK       I    between atoms: C_4  and  N_6 
REMARK    3  A    between atoms: C_7  and  C_9 
REMARK    4  A    between atoms: C_12  and  N_18 
ROOT
HETATM    1  C   UNL     1     -41.074 -46.386  10.661  1.00  0.00     0.140 A 
HETATM    2  N   UNL     1     -40.250 -47.361  11.123  1.00  0.00    -0.184 N 
ATOM      3  HN  UNL     1     -39.328 -47.133  11.494  1.00  0.00     0.184 HD
HETATM    4  C   UNL     1     -40.676 -48.630  11.079  1.00  0.00     0.680 A 
HETATM    5  N   UNL     1     -41.896 -48.957  10.633  1.00  0.00    -0.200 N 
ATOM      6  HN  UNL     1     -42.208 -49.927  10.617  1.00  0.00     0.183 HD
HETATM    7  C   UNL     1     -42.699 -47.962  10.204  1.00  0.00     0.132 A 
HETATM    8  C   UNL     1     -42.343 -46.635  10.182  1.00  0.00     0.082 A 
HETATM    9 CL   UNL     1     -43.454 -45.490   9.553  1.00  0.00    -0.080 Cl
ENDROOT
BRANCH   1  10
HETATM   10  C   UNL     1     -40.543 -44.990  10.791  1.00  0.00     0.272 C 
HETATM   11  N   UNL     1     -40.677 -44.257  11.983  1.00  0.00    -0.342 N 
HETATM   12  C   UNL     1     -40.067 -42.936  11.997  1.00  0.00     0.153 C 
HETATM   13  O   UNL     1     -40.002 -44.480   9.808  1.00  0.00    -0.266 OA
BRANCH  11  14
HETATM   14  C   UNL     1     -41.176 -44.772  13.272  1.00  0.00     0.228 C 
BRANCH  14  15
HETATM   15  C   UNL     1     -42.686 -44.605  13.495  1.00  0.00     0.233 C 
HETATM   16  O   UNL     1     -43.225 -43.509  13.624  1.00  0.00    -0.272 OA
HETATM   17  N   UNL     1     -43.443 -45.743  13.491  1.00  0.00    -0.369 N 
HETATM   18  H   UNL     1     -42.992 -46.643  13.599  1.00  0.00     0.159 HD
HETATM   19  H   UNL     1     -44.423 -45.654  13.727  1.00  0.00     0.159 HD
ENDBRANCH  14  15
ENDBRANCH  11  14
ENDBRANCH   1  10
BRANCH   4  20
HETATM   20  N   UNL     1     -39.819 -49.620  11.471  1.00  0.00    -0.214 N 
HETATM   21  C   UNL     1     -40.297 -50.873  12.056  1.00  0.00     0.167 C 
HETATM   22  C   UNL     1     -39.848 -50.980  13.523  1.00  0.00     0.188 C 
HETATM   23  O   UNL     1     -38.429 -50.789  13.662  1.00  0.00    -0.388 OA
HETATM   24  C   UNL     1     -38.054 -49.495  13.171  1.00  0.00     0.188 C 
HETATM   25  C   UNL     1     -38.403 -49.329  11.687  1.00  0.00     0.167 C 
ENDBRANCH   4  20
TORSDOF 4
ENDMDL
MODEL 3
REMARK VINA RESULT:      -6.0      2.607      3.783
REMARK  4 active torsions:
REMARK  status: ('A' for Active; 'I' for Inactive)
REMARK    1  A    between atoms: N_2  and  C_3 
REMARK       I    between atoms: N_2  and  C_7 
REMARK    2  A    between atoms: C_3  and  C_4 
REMARK       I    between atoms: C_4  and  N_6 
REMARK    3  A    between atoms: C_7  and  C_9 
REMARK    4  A    between atoms: C_12  and  N_18 
ROOT
HETATM    1  C   UNL     1     -42.441 -50.234  12.867  1.00  0.00     0.140 A 
HETATM    2  N   UNL     1     -43.590 -50.952  12.967  1.00  0.00    -0.184 N 
ATOM      3  HN  UNL     1     -44.418 -50.552  13.409  1.00  0.00     0.184 HD
HETATM    4  C   UNL     1     -43.611 -52.195  12.471  1.00  0.00     0.680 A 
HETATM    5  N   UNL     1     -42.552 -52.733  11.851  1.00  0.00    -0.200 N 
ATOM      6  HN  UNL     1     -42.589 -53.678  11.469  1.00  0.00     0.183 HD
HETATM    7  C   UNL     1     -41.434 -51.985  11.747  1.00  0.00     0.132 A 
HETATM    8  C   UNL     1     -41.305 -50.713  12.248  1.00  0.00     0.082 A 
HETATM    9 CL   UNL     1     -39.799 -49.908  12.089  1.00  0.00    -0.080 Cl
ENDROOT
BRANCH   1  10
HETATM   10  C   UNL     1     -42.516 -48.836  13.401  1.00  0.00     0.272 C 
HETATM   11  N   UNL     1     -42.942 -47.761  12.600  1.00  0.00    -0.342 N 
HETATM   12  C   UNL     1     -43.025 -46.465  13.255  1.00  0.00     0.153 C 
HETATM   13  O   UNL     1     -42.165 -48.638  14.565  1.00  0.00    -0.266 OA
BRANCH  11  14
HETATM   14  C   UNL     1     -43.513 -47.858  11.244  1.00  0.00     0.228 C 
BRANCH  14  15
HETATM   15  C   UNL     1     -42.565 -47.438  10.110  1.00  0.00     0.233 C 
HETATM   16  O   UNL     1     -42.491 -46.284   9.694  1.00  0.00    -0.272 OA
HETATM   17  N   UNL     1     -41.742 -48.402   9.600  1.00  0.00    -0.369 N 
HETATM   18  H   UNL     1     -41.942 -49.377   9.783  1.00  0.00     0.159 HD
HETATM   19  H   UNL     1     -41.180 -48.159   8.795  1.00  0.00     0.159 HD
ENDBRANCH  14  15
ENDBRANCH  11  14
ENDBRANCH   1  10
BRANCH   4  20
HETATM   20  N   UNL     1     -44.740 -52.946  12.639  1.00  0.00    -0.214 N 
HETATM   21  C   UNL     1     -46.063 -52.337  12.778  1.00  0.00     0.167 C 
HETATM   22  C   UNL     1     -46.623 -52.596  14.186  1.00  0.00     0.188 C 
HETATM   23  O   UNL     1     -46.601 -53.996  14.519  1.00  0.00    -0.388 OA
HETATM   24  C   UNL     1     -45.257 -54.494  14.472  1.00  0.00     0.188 C 
HETATM   25  C   UNL     1     -44.644 -54.338  13.075  1.00  0.00     0.167 C 
ENDBRANCH   4  20
TORSDOF 4
ENDMDL
MODEL 4
REMARK VINA RESULT:      -5.9      2.410      6.319
REMARK  4 active torsions:
REMARK  status: ('A' for Active; 'I' for Inactive)
REMARK    1  A    between atoms: N_2  and  C_3 
REMARK       I    between atoms: N_2  and  C_7 
REMARK    2  A    between atoms: C_3  and  C_4 
REMARK       I    between atoms: C_4  and  N_6 
REMARK    3  A    between atoms: C_7  and  C_9 
REMARK    4  A    between atoms: C_12  and  N_18 
ROOT
HETATM    1  C   UNL     1     -43.470 -50.269  13.341  1.00  0.00     0.140 A 
HETATM    2  N   UNL     1     -43.100 -49.669  12.180  1.00  0.00    -0.184 N 
ATOM      3  HN  UNL     1     -43.191 -50.157  11.289  1.00  0.00     0.184 HD
HETATM    4  C   UNL     1     -42.612 -48.423  12.233  1.00  0.00     0.680 A 
HETATM    5  N   UNL     1     -42.516 -47.744  13.383  1.00  0.00    -0.200 N 
ATOM      6  HN  UNL     1     -42.152 -46.791  13.403  1.00  0.00     0.183 HD
HETATM    7  C   UNL     1     -42.915 -48.358  14.515  1.00  0.00     0.132 A 
HETATM    8  C   UNL     1     -43.402 -49.642  14.568  1.00  0.00     0.082 A 
HETATM    9 CL   UNL     1     -43.816 -50.308  16.093  1.00  0.00    -0.080 Cl
ENDROOT
BRANCH   1  10
HETATM   10  C   UNL     1     -44.053 -51.641  13.191  1.00  0.00     0.272 C 
HETATM   11  N   UNL     1     -43.250 -52.794  13.242  1.00  0.00    -0.342 N 
HETATM   12  C   UNL     1     -43.947 -54.067  13.140  1.00  0.00     0.153 C 
HETATM   13  O   UNL     1     -45.265 -51.739  12.991  1.00  0.00    -0.266 OA
BRANCH  11  14
HETATM   14  C   UNL     1     -41.821 -52.846  13.601  1.00  0.00     0.228 C 
BRANCH  14  15
HETATM   15  C   UNL     1     -40.852 -52.524  12.454  1.00  0.00     0.233 C 
HETATM   16  O   UNL     1     -39.696 -52.149  12.641  1.00  0.00    -0.272 OA
HETATM   17  N   UNL     1     -41.308 -52.724  11.181  1.00  0.00    -0.369 N 
HETATM   18  H   UNL     1     -42.302 -52.823  11.017  1.00  0.00     0.159 HD
HETATM   19  H   UNL     1     -40.711 -52.430  10.419  1.00  0.00     0.159 HD
ENDBRANCH  14  15
ENDBRANCH  11  14
ENDBRANCH   1  10
BRANCH   4  20
HETATM   20  N   UNL     1     -42.166 -47.848  11.076  1.00  0.00    -0.214 N 
HETATM   21  C   UNL     1     -40.873 -47.167  10.996  1.00  0.00     0.167 C 
HETATM   22  C   UNL     1     -41.079 -45.665  10.744  1.00  0.00     0.188 C 
HETATM   23  O   UNL     1     -41.921 -45.426   9.603  1.00  0.00    -0.388 OA
HETATM   24  C   UNL     1     -43.208 -46.027   9.803  1.00  0.00     0.188 C 
HETATM   25  C   UNL     1     -43.100 -47.545   9.993  1.00  0.00     0.167 C 
ENDBRANCH   4  20
TORSDOF 4
ENDMDL
MODEL 5
REMARK VINA RESULT:      -5.8      4.054      5.376
REMARK  4 active torsions:
REMARK  status: ('A' for Active; 'I' for Inactive)
REMARK    1  A    between atoms: N_2  and  C_3 
REMARK       I    between atoms: N_2  and  C_7 
REMARK    2  A    between atoms: C_3  and  C_4 
REMARK       I    between atoms: C_4  and  N_6 
REMARK    3  A    between atoms: C_7  and  C_9 
REMARK    4  A    between atoms: C_12  and  N_18 
ROOT
HETATM    1  C   UNL     1     -38.626 -51.659  13.978  1.00  0.00     0.140 A 
HETATM    2  N   UNL     1     -39.483 -52.685  13.734  1.00  0.00    -0.184 N 
ATOM      3  HN  UNL     1     -39.554 -53.094  12.803  1.00  0.00     0.184 HD
HETATM    4  C   UNL     1     -40.230 -53.146  14.745  1.00  0.00     0.680 A 
HETATM    5  N   UNL     1     -40.130 -52.655  15.987  1.00  0.00    -0.200 N 
ATOM      6  HN  UNL     1     -40.699 -53.026  16.747  1.00  0.00     0.183 HD
HETATM    7  C   UNL     1     -39.252 -51.653  16.201  1.00  0.00     0.132 A 
HETATM    8  C   UNL     1     -38.464 -51.094  15.225  1.00  0.00     0.082 A 
HETATM    9 CL   UNL     1     -37.436 -49.785  15.641  1.00  0.00    -0.080 Cl
ENDROOT
BRANCH   1  10
HETATM   10  C   UNL     1     -37.791 -51.236  12.808  1.00  0.00     0.272 C 
HETATM   11  N   UNL     1     -38.208 -50.218  11.931  1.00  0.00    -0.342 N 
HETATM   12  C   UNL     1     -37.279 -49.864  10.870  1.00  0.00     0.153 C 
HETATM   13  O   UNL     1     -36.728 -51.826  12.609  1.00  0.00    -0.266 OA
BRANCH  11  14
HETATM   14  C   UNL     1     -39.379 -49.340  12.110  1.00  0.00     0.228 C 
BRANCH  14  15
HETATM   15  C   UNL     1     -40.671 -49.839  11.447  1.00  0.00     0.233 C 
HETATM   16  O   UNL     1     -41.311 -50.800  11.870  1.00  0.00    -0.272 OA
HETATM   17  N   UNL     1     -41.133 -49.130  10.374  1.00  0.00    -0.369 N 
HETATM   18  H   UNL     1     -40.514 -48.486   9.899  1.00  0.00     0.159 HD
HETATM   19  H   UNL     1     -41.931 -49.503   9.875  1.00  0.00     0.159 HD
ENDBRANCH  14  15
ENDBRANCH  11  14
ENDBRANCH   1  10
BRANCH   4  20
HETATM   20  N   UNL     1     -41.148 -54.125  14.484  1.00  0.00    -0.214 N 
HETATM   21  C   UNL     1     -41.872 -54.191  13.214  1.00  0.00     0.167 C 
HETATM   22  C   UNL     1     -43.370 -53.934  13.442  1.00  0.00     0.188 C 
HETATM   23  O   UNL     1     -43.912 -54.801  14.453  1.00  0.00    -0.388 OA
HETATM   24  C   UNL     1     -43.228 -54.597  15.698  1.00  0.00     0.188 C 
HETATM   25  C   UNL     1     -41.729 -54.902  15.576  1.00  0.00     0.167 C 
ENDBRANCH   4  20
TORSDOF 4
ENDMDL
MODEL 6
REMARK VINA RESULT:      -5.8      3.257      6.046
REMARK  4 active torsions:
REMARK  status: ('A' for Active; 'I' for Inactive)
REMARK    1  A    between atoms: N_2  and  C_3 
REMARK       I    between atoms: N_2  and  C_7 
REMARK    2  A    between atoms: C_3  and  C_4 
REMARK       I    between atoms: C_4  and  N_6 
REMARK    3  A    between atoms: C_7  and  C_9 
REMARK    4  A    between atoms: C_12  and  N_18 
ROOT
HETATM    1  C   UNL     1     -42.461 -51.260  13.478  1.00  0.00     0.140 A 
HETATM    2  N   UNL     1     -42.140 -50.057  12.935  1.00  0.00    -0.184 N 
ATOM      3  HN  UNL     1     -42.488 -49.191  13.345  1.00  0.00     0.184 HD
HETATM    4  C   UNL     1     -41.358 -50.035  11.848  1.00  0.00     0.680 A 
HETATM    5  N   UNL     1     -40.855 -51.155  11.310  1.00  0.00    -0.200 N 
ATOM      6  HN  UNL     1     -40.252 -51.118  10.489  1.00  0.00     0.183 HD
HETATM    7  C   UNL     1     -41.172 -52.331  11.888  1.00  0.00     0.132 A 
HETATM    8  C   UNL     1     -41.989 -52.459  12.985  1.00  0.00     0.082 A 
HETATM    9 CL   UNL     1     -42.347 -54.030  13.572  1.00  0.00    -0.080 Cl
ENDROOT
BRANCH   1  10
HETATM   10  C   UNL     1     -43.297 -51.195  14.719  1.00  0.00     0.272 C 
HETATM   11  N   UNL     1     -44.700 -51.127  14.662  1.00  0.00    -0.342 N 
HETATM   12  C   UNL     1     -45.396 -51.127  15.940  1.00  0.00     0.153 C 
HETATM   13  O   UNL     1     -42.720 -51.173  15.808  1.00  0.00    -0.266 OA
BRANCH  11  14
HETATM   14  C   UNL     1     -45.532 -51.275  13.454  1.00  0.00     0.228 C 
BRANCH  14  15
HETATM   15  C   UNL     1     -45.868 -52.724  13.072  1.00  0.00     0.233 C 
HETATM   16  O   UNL     1     -45.305 -53.322  12.158  1.00  0.00    -0.272 OA
HETATM   17  N   UNL     1     -46.802 -53.367  13.836  1.00  0.00    -0.369 N 
HETATM   18  H   UNL     1     -47.411 -52.827  14.437  1.00  0.00     0.159 HD
HETATM   19  H   UNL     1     -47.097 -54.288  13.538  1.00  0.00     0.159 HD
ENDBRANCH  14  15
ENDBRANCH  11  14
ENDBRANCH   1  10
BRANCH   4  20
HETATM   20  N   UNL     1     -41.099 -48.832  11.254  1.00  0.00    -0.214 N 
HETATM   21  C   UNL     1     -40.001 -47.970  11.695  1.00  0.00     0.167 C 
HETATM   22  C   UNL     1     -40.556 -46.669  12.297  1.00  0.00     0.188 C 
HETATM   23  O   UNL     1     -41.472 -46.014  11.403  1.00  0.00    -0.388 OA
HETATM   24  C   UNL     1     -42.578 -46.879  11.107  1.00  0.00     0.188 C 
HETATM   25  C   UNL     1     -42.117 -48.178  10.435  1.00  0.00     0.167 C 
ENDBRANCH   4  20
TORSDOF 4
ENDMDL
MODEL 7
REMARK VINA RESULT:      -5.7      3.951      5.275
REMARK  4 active torsions:
REMARK  status: ('A' for Active; 'I' for Inactive)
REMARK    1  A    between atoms: N_2  and  C_3 
REMARK       I    between atoms: N_2  and  C_7 
REMARK    2  A    between atoms: C_3  and  C_4 
REMARK       I    between atoms: C_4  and  N_6 
REMARK    3  A    between atoms: C_7  and  C_9 
REMARK    4  A    between atoms: C_12  and  N_18 
ROOT
HETATM    1  C   UNL     1     -41.625 -51.640  13.937  1.00  0.00     0.140 A 
HETATM    2  N   UNL     1     -42.927 -52.001  13.803  1.00  0.00    -0.184 N 
ATOM      3  HN  UNL     1     -43.673 -51.404  14.159  1.00  0.00     0.184 HD
HETATM    4  C   UNL     1     -43.209 -53.159  13.192  1.00  0.00     0.680 A 
HETATM    5  N   UNL     1     -42.252 -53.945  12.680  1.00  0.00    -0.200 N 
ATOM      6  HN  UNL     1     -42.486 -54.819  12.209  1.00  0.00     0.183 HD
HETATM    7  C   UNL     1     -40.971 -53.546  12.808  1.00  0.00     0.132 A 
HETATM    8  C   UNL     1     -40.580 -52.391  13.441  1.00  0.00     0.082 A 
HETATM    9 CL   UNL     1     -38.905 -52.046  13.575  1.00  0.00    -0.080 Cl
ENDROOT
BRANCH   1  10
HETATM   10  C   UNL     1     -41.398 -50.308  14.585  1.00  0.00     0.272 C 
HETATM   11  N   UNL     1     -41.265 -49.130  13.828  1.00  0.00    -0.342 N 
HETATM   12  C   UNL     1     -41.106 -47.896  14.583  1.00  0.00     0.153 C 
HETATM   13  O   UNL     1     -41.299 -50.269  15.813  1.00  0.00    -0.266 OA
BRANCH  11  14
HETATM   14  C   UNL     1     -41.488 -48.997  12.377  1.00  0.00     0.228 C 
BRANCH  14  15
HETATM   15  C   UNL     1     -40.249 -49.253  11.505  1.00  0.00     0.233 C 
HETATM   16  O   UNL     1     -39.127 -48.853  11.806  1.00  0.00    -0.272 OA
HETATM   17  N   UNL     1     -40.427 -50.007  10.379  1.00  0.00    -0.369 N 
HETATM   18  H   UNL     1     -41.361 -50.154  10.020  1.00  0.00     0.159 HD
HETATM   19  H   UNL     1     -39.639 -50.105   9.752  1.00  0.00     0.159 HD
ENDBRANCH  14  15
ENDBRANCH  11  14
ENDBRANCH   1  10
BRANCH   4  20
HETATM   20  N   UNL     1     -44.513 -53.562  13.126  1.00  0.00    -0.214 N 
HETATM   21  C   UNL     1     -45.577 -52.672  12.658  1.00  0.00     0.167 C 
HETATM   22  C   UNL     1     -46.548 -52.355  13.806  1.00  0.00     0.188 C 
HETATM   23  O   UNL     1     -47.041 -53.551  14.435  1.00  0.00    -0.388 OA
HETATM   24  C   UNL     1     -45.949 -54.314  14.969  1.00  0.00     0.188 C 
HETATM   25  C   UNL     1     -44.963 -54.735  13.872  1.00  0.00     0.167 C 
ENDBRANCH   4  20
TORSDOF 4
ENDMDL
MODEL 8
REMARK VINA RESULT:      -5.6      3.980      5.332
REMARK  4 active torsions:
REMARK  status: ('A' for Active; 'I' for Inactive)
REMARK    1  A    between atoms: N_2  and  C_3 
REMARK       I    between atoms: N_2  and  C_7 
REMARK    2  A    between atoms: C_3  and  C_4 
REMARK       I    between atoms: C_4  and  N_6 
REMARK    3  A    between atoms: C_7  and  C_9 
REMARK    4  A    between atoms: C_12  and  N_18 
ROOT
HETATM    1  C   UNL     1     -41.282 -50.217  13.813  1.00  0.00     0.140 A 
HETATM    2  N   UNL     1     -41.548 -51.548  13.827  1.00  0.00    -0.184 N 
ATOM      3  HN  UNL     1     -40.876 -52.210  14.216  1.00  0.00     0.184 HD
HETATM    4  C   UNL     1     -42.713 -51.973  13.321  1.00  0.00     0.680 A 
HETATM    5  N   UNL     1     -43.631 -51.124  12.839  1.00  0.00    -0.200 N 
ATOM      6  HN  UNL     1     -44.518 -51.464  12.467  1.00  0.00     0.183 HD
HETATM    7  C   UNL     1     -43.346 -49.806  12.861  1.00  0.00     0.132 A 
HETATM    8  C   UNL     1     -42.170 -49.277  13.333  1.00  0.00     0.082 A 
HETATM    9 CL   UNL     1     -41.930 -47.581  13.242  1.00  0.00    -0.080 Cl
ENDROOT
BRANCH   1  10
HETATM   10  C   UNL     1     -39.982 -49.821  14.444  1.00  0.00     0.272 C 
HETATM   11  N   UNL     1     -38.830 -49.580  13.674  1.00  0.00    -0.342 N 
HETATM   12  C   UNL     1     -37.649 -49.147  14.404  1.00  0.00     0.153 C 
HETATM   13  O   UNL     1     -39.934 -49.736  15.672  1.00  0.00    -0.266 OA
BRANCH  11  14
HETATM   14  C   UNL     1     -38.763 -49.514  12.202  1.00  0.00     0.228 C 
BRANCH  14  15
HETATM   15  C   UNL     1     -37.673 -50.387  11.563  1.00  0.00     0.233 C 
HETATM   16  O   UNL     1     -37.244 -51.411  12.089  1.00  0.00    -0.272 OA
HETATM   17  N   UNL     1     -37.219 -50.010  10.330  1.00  0.00    -0.369 N 
HETATM   18  H   UNL     1     -37.406 -49.073   9.995  1.00  0.00     0.159 HD
HETATM   19  H   UNL     1     -36.439 -50.524   9.941  1.00  0.00     0.159 HD
ENDBRANCH  14  15
ENDBRANCH  11  14
ENDBRANCH   1  10
BRANCH   4  20
HETATM   20  N   UNL     1     -42.949 -53.318  13.264  1.00  0.00    -0.214 N 
HETATM   21  C   UNL     1     -44.178 -53.866  12.690  1.00  0.00     0.167 C 
HETATM   22  C   UNL     1     -45.012 -54.557  13.781  1.00  0.00     0.188 C 
HETATM   23  O   UNL     1     -44.239 -55.528  14.508  1.00  0.00    -0.388 OA
HETATM   24  C   UNL     1     -43.115 -54.895  15.136  1.00  0.00     0.188 C 
HETATM   25  C   UNL     1     -42.187 -54.237  14.106  1.00  0.00     0.167 C 
ENDBRANCH   4  20
TORSDOF 4
ENDMDL
MODEL 9
REMARK VINA RESULT:      -5.6      3.743      6.611
REMARK  4 active torsions:
REMARK  status: ('A' for Active; 'I' for Inactive)
REMARK    1  A    between atoms: N_2  and  C_3 
REMARK       I    between atoms: N_2  and  C_7 
REMARK    2  A    between atoms: C_3  and  C_4 
REMARK       I    between atoms: C_4  and  N_6 
REMARK    3  A    between atoms: C_7  and  C_9 
REMARK    4  A    between atoms: C_12  and  N_18 
ROOT
HETATM    1  C   UNL     1     -44.071 -51.873  13.441  1.00  0.00     0.140 A 
HETATM    2  N   UNL     1     -42.980 -51.725  12.646  1.00  0.00    -0.184 N 
ATOM      3  HN  UNL     1     -42.725 -52.447  11.972  1.00  0.00     0.184 HD
HETATM    4  C   UNL     1     -42.248 -50.611  12.767  1.00  0.00     0.680 A 
HETATM    5  N   UNL     1     -42.580 -49.629  13.616  1.00  0.00    -0.200 N 
ATOM      6  HN  UNL     1     -42.017 -48.782  13.687  1.00  0.00     0.183 HD
HETATM    7  C   UNL     1     -43.683 -49.795  14.374  1.00  0.00     0.132 A 
HETATM    8  C   UNL     1     -44.482 -50.913  14.343  1.00  0.00     0.082 A 
HETATM    9 CL   UNL     1     -45.821 -51.004  15.410  1.00  0.00    -0.080 Cl
ENDROOT
BRANCH   1  10
HETATM   10  C   UNL     1     -44.864 -53.123  13.208  1.00  0.00     0.272 C 
HETATM   11  N   UNL     1     -44.785 -54.222  14.082  1.00  0.00    -0.342 N 
HETATM   12  C   UNL     1     -45.649 -55.351  13.774  1.00  0.00     0.153 C 
HETATM   13  O   UNL     1     -45.576 -53.181  12.204  1.00  0.00    -0.266 OA
BRANCH  11  14
HETATM   14  C   UNL     1     -44.087 -54.254  15.381  1.00  0.00     0.228 C 
BRANCH  14  15
HETATM   15  C   UNL     1     -42.797 -55.087  15.402  1.00  0.00     0.233 C 
HETATM   16  O   UNL     1     -42.716 -56.179  15.960  1.00  0.00    -0.272 OA
HETATM   17  N   UNL     1     -41.725 -54.589  14.715  1.00  0.00    -0.369 N 
HETATM   18  H   UNL     1     -41.717 -53.615  14.442  1.00  0.00     0.159 HD
HETATM   19  H   UNL     1     -40.846 -55.084  14.798  1.00  0.00     0.159 HD
ENDBRANCH  14  15
ENDBRANCH  11  14
ENDBRANCH   1  10
BRANCH   4  20
HETATM   20  N   UNL     1     -41.107 -50.496  12.024  1.00  0.00    -0.214 N 
HETATM   21  C   UNL     1     -39.923 -51.314  12.288  1.00  0.00     0.167 C 
HETATM   22  C   UNL     1     -38.763 -50.430  12.774  1.00  0.00     0.188 C 
HETATM   23  O   UNL     1     -38.512 -49.337  11.873  1.00  0.00    -0.388 OA
HETATM   24  C   UNL     1     -39.682 -48.515  11.754  1.00  0.00     0.188 C 
HETATM   25  C   UNL     1     -40.876 -49.307  11.204  1.00  0.00     0.167 C 
ENDBRANCH   4  20
TORSDOF 4
ENDMDL
