MODEL 1
REMARK VINA RESULT:      -6.6      0.000      0.000
REMARK  4 active torsions:
REMARK  status: ('A' for Active; 'I' for Inactive)
REMARK    1  A    between atoms: C_2  and  C_3 
REMARK    2  A    between atoms: C_3  and  C_4 
REMARK    3  A    between atoms: C_6  and  N_7 
REMARK       I    between atoms: N_7  and  C_8 
REMARK       I    between atoms: C_8  and  N_10 
REMARK    4  A    between atoms: N_10  and  C_11 
ROOT
HETATM    1  N   UNL     1     -42.287 -48.278   9.650  1.00  0.00    -0.338 N 
HETATM    2  C   UNL     1     -41.297 -48.532  10.579  1.00  0.00     0.322 C 
HETATM    3  O   UNL     1     -41.054 -47.761  11.501  1.00  0.00    -0.247 OA
HETATM    4  N   UNL     1     -40.714 -49.764  10.407  1.00  0.00    -0.290 N 
HETATM    5  H   UNL     1     -42.195 -48.716   8.744  1.00  0.00     0.164 HD
HETATM    6  H   UNL     1     -41.315 -50.501  10.062  1.00  0.00     0.172 HD
ENDROOT
BRANCH   4   7
HETATM    7  C   UNL     1     -39.643 -50.178  11.171  1.00  0.00     0.178 A 
HETATM    8  N   UNL     1     -38.426 -49.795  10.942  1.00  0.00    -0.346 N 
HETATM    9  C   UNL     1     -37.470 -50.208  11.829  1.00  0.00     0.107 A 
ATOM     10  HN  UNL     1     -38.191 -49.214  10.138  1.00  0.00     0.167 HD
HETATM   11  C   UNL     1     -37.703 -50.981  12.897  1.00  0.00     0.111 A 
HETATM   12  N   UNL     1     -38.972 -51.447  13.166  1.00  0.00    -0.325 N 
HETATM   13  C   UNL     1     -39.215 -52.295  14.315  1.00  0.00     0.159 C 
HETATM   14  C   UNL     1     -40.026 -51.121  12.319  1.00  0.00     0.291 A 
HETATM   15  O   UNL     1     -41.191 -51.492  12.415  1.00  0.00    -0.264 OA
ENDBRANCH   4   7
BRANCH   1  16
HETATM   16  C   UNL     1     -43.105 -47.101   9.758  1.00  0.00     0.090 A 
HETATM   17  C   UNL     1     -44.431 -47.006   9.041  1.00  0.00     0.010 A 
HETATM   18  C   UNL     1     -43.276 -46.135   8.621  1.00  0.00     0.032 A 
BRANCH  17  19
HETATM   19  C   UNL     1     -44.917 -48.087   8.121  1.00  0.00     0.006 C 
BRANCH  19  20
HETATM   20  C   UNL     1     -46.367 -48.489   8.394  1.00  0.00    -0.004 C 
HETATM   21  C   UNL     1     -47.151 -47.444   9.173  1.00  0.00     0.005 C 
ENDBRANCH  19  20
ENDBRANCH  17  19
ENDBRANCH   1  16
TORSDOF 4
ENDMDL
MODEL 2
REMARK VINA RESULT:      -5.7      2.168      2.954
REMARK  4 active torsions:
REMARK  status: ('A' for Active; 'I' for Inactive)
REMARK    1  A    between atoms: C_2  and  C_3 
REMARK    2  A    between atoms: C_3  and  C_4 
REMARK    3  A    between atoms: C_6  and  N_7 
REMARK       I    between atoms: N_7  and  C_8 
REMARK       I    between atoms: C_8  and  N_10 
REMARK    4  A    between atoms: N_10  and  C_11 
ROOT
HETATM    1  N   UNL     1     -41.572 -48.479  10.962  1.00  0.00    -0.338 N 
HETATM    2  C   UNL     1     -41.960 -49.502  11.806  1.00  0.00     0.322 C 
HETATM    3  O   UNL     1     -42.706 -49.312  12.760  1.00  0.00    -0.247 OA
HETATM    4  N   UNL     1     -41.505 -50.731  11.391  1.00  0.00    -0.290 N 
HETATM    5  H   UNL     1     -40.704 -48.599  10.458  1.00  0.00     0.164 HD
HETATM    6  H   UNL     1     -41.436 -50.869  10.392  1.00  0.00     0.172 HD
ENDROOT
BRANCH   4   7
HETATM    7  C   UNL     1     -41.705 -51.872  12.139  1.00  0.00     0.178 A 
HETATM    8  N   UNL     1     -42.874 -52.408  12.307  1.00  0.00    -0.346 N 
HETATM    9  C   UNL     1     -42.920 -53.587  12.997  1.00  0.00     0.107 A 
ATOM     10  HN  UNL     1     -43.719 -51.970  11.942  1.00  0.00     0.167 HD
HETATM   11  C   UNL     1     -41.855 -54.211  13.515  1.00  0.00     0.111 A 
HETATM   12  N   UNL     1     -40.595 -53.666  13.399  1.00  0.00    -0.325 N 
HETATM   13  C   UNL     1     -39.447 -54.339  13.975  1.00  0.00     0.159 C 
HETATM   14  C   UNL     1     -40.420 -52.451  12.744  1.00  0.00     0.291 A 
HETATM   15  O   UNL     1     -39.368 -51.837  12.599  1.00  0.00    -0.264 OA
ENDBRANCH   4   7
BRANCH   1  16
HETATM   16  C   UNL     1     -42.070 -47.145  11.155  1.00  0.00     0.090 A 
HETATM   17  C   UNL     1     -43.289 -46.654  10.409  1.00  0.00     0.010 A 
HETATM   18  C   UNL     1     -41.931 -46.077  10.108  1.00  0.00     0.032 A 
BRANCH  17  19
HETATM   19  C   UNL     1     -43.982 -47.495   9.377  1.00  0.00     0.006 C 
BRANCH  19  20
HETATM   20  C   UNL     1     -45.424 -47.051   9.123  1.00  0.00    -0.004 C 
HETATM   21  C   UNL     1     -46.336 -48.181   8.669  1.00  0.00     0.005 C 
ENDBRANCH  19  20
ENDBRANCH  17  19
ENDBRANCH   1  16
TORSDOF 4
ENDMDL
MODEL 3
REMARK VINA RESULT:      -5.6      3.505      4.496
REMARK  4 active torsions:
REMARK  status: ('A' for Active; 'I' for Inactive)
REMARK    1  A    between atoms: C_2  and  C_3 
REMARK    2  A    between atoms: C_3  and  C_4 
REMARK    3  A    between atoms: C_6  and  N_7 
REMARK       I    between atoms: N_7  and  C_8 
REMARK       I    between atoms: C_8  and  N_10 
REMARK    4  A    between atoms: N_10  and  C_11 
ROOT
HETATM    1  N   UNL     1     -41.859 -49.886  11.409  1.00  0.00    -0.338 N 
HETATM    2  C   UNL     1     -42.090 -50.756  12.458  1.00  0.00     0.322 C 
HETATM    3  O   UNL     1     -42.024 -50.397  13.628  1.00  0.00    -0.247 OA
HETATM    4  N   UNL     1     -42.492 -52.000  12.035  1.00  0.00    -0.290 N 
HETATM    5  H   UNL     1     -41.558 -50.288  10.533  1.00  0.00     0.164 HD
HETATM    6  H   UNL     1     -43.052 -52.027  11.193  1.00  0.00     0.172 HD
ENDROOT
BRANCH   4   7
HETATM    7  C   UNL     1     -42.688 -53.041  12.916  1.00  0.00     0.178 A 
HETATM    8  N   UNL     1     -41.757 -53.479  13.707  1.00  0.00    -0.346 N 
HETATM    9  C   UNL     1     -42.109 -54.458  14.594  1.00  0.00     0.107 A 
ATOM     10  HN  UNL     1     -40.808 -53.109  13.669  1.00  0.00     0.167 HD
HETATM   11  C   UNL     1     -43.330 -54.997  14.690  1.00  0.00     0.111 A 
HETATM   12  N   UNL     1     -44.346 -54.597  13.850  1.00  0.00    -0.325 N 
HETATM   13  C   UNL     1     -45.662 -55.195  13.949  1.00  0.00     0.159 C 
HETATM   14  C   UNL     1     -44.105 -53.628  12.881  1.00  0.00     0.291 A 
HETATM   15  O   UNL     1     -44.900 -53.205  12.048  1.00  0.00    -0.264 OA
ENDBRANCH   4   7
BRANCH   1  16
HETATM   16  C   UNL     1     -41.569 -48.501  11.660  1.00  0.00     0.090 A 
HETATM   17  C   UNL     1     -42.624 -47.438  11.466  1.00  0.00     0.010 A 
HETATM   18  C   UNL     1     -41.428 -47.498  10.552  1.00  0.00     0.032 A 
BRANCH  17  19
HETATM   19  C   UNL     1     -43.987 -47.758  10.925  1.00  0.00     0.006 C 
BRANCH  19  20
HETATM   20  C   UNL     1     -44.241 -47.130   9.553  1.00  0.00    -0.004 C 
HETATM   21  C   UNL     1     -45.604 -47.476   8.971  1.00  0.00     0.005 C 
ENDBRANCH  19  20
ENDBRANCH  17  19
ENDBRANCH   1  16
TORSDOF 4
ENDMDL
MODEL 4
REMARK VINA RESULT:      -5.6      4.062      5.581
REMARK  4 active torsions:
REMARK  status: ('A' for Active; 'I' for Inactive)
REMARK    1  A    between atoms: C_2  and  C_3 
REMARK    2  A    between atoms: C_3  and  C_4 
REMARK    3  A    between atoms: C_6  and  N_7 
REMARK       I    between atoms: N_7  and  C_8 
REMARK       I    between atoms: C_8  and  N_10 
REMARK    4  A    between atoms: N_10  and  C_11 
ROOT
HETATM    1  N   UNL     1     -43.478 -52.949  12.189  1.00  0.00    -0.338 N 
HETATM    2  C   UNL     1     -42.224 -52.421  12.428  1.00  0.00     0.322 C 
HETATM    3  O   UNL     1     -41.436 -52.940  13.210  1.00  0.00    -0.247 OA
HETATM    4  N   UNL     1     -41.944 -51.340  11.625  1.00  0.00    -0.290 N 
HETATM    5  H   UNL     1     -44.192 -52.315  11.858  1.00  0.00     0.164 HD
HETATM    6  H   UNL     1     -42.342 -51.358  10.695  1.00  0.00     0.172 HD
ENDROOT
BRANCH   4   7
HETATM    7  C   UNL     1     -40.783 -50.611  11.764  1.00  0.00     0.178 A 
HETATM    8  N   UNL     1     -39.626 -51.161  11.968  1.00  0.00    -0.346 N 
HETATM    9  C   UNL     1     -38.542 -50.329  11.999  1.00  0.00     0.107 A 
ATOM     10  HN  UNL     1     -39.530 -52.168  12.098  1.00  0.00     0.167 HD
HETATM   11  C   UNL     1     -38.595 -49.000  11.848  1.00  0.00     0.111 A 
HETATM   12  N   UNL     1     -39.802 -48.360  11.667  1.00  0.00    -0.325 N 
HETATM   13  C   UNL     1     -39.855 -46.919  11.519  1.00  0.00     0.159 C 
HETATM   14  C   UNL     1     -40.983 -49.094  11.648  1.00  0.00     0.291 A 
HETATM   15  O   UNL     1     -42.122 -48.656  11.533  1.00  0.00    -0.264 OA
ENDBRANCH   4   7
BRANCH   1  16
HETATM   16  C   UNL     1     -43.891 -54.167  12.831  1.00  0.00     0.090 A 
HETATM   17  C   UNL     1     -45.284 -54.315  13.396  1.00  0.00     0.010 A 
HETATM   18  C   UNL     1     -44.093 -54.262  14.316  1.00  0.00     0.032 A 
BRANCH  17  19
HETATM   19  C   UNL     1     -46.269 -53.182  13.392  1.00  0.00     0.006 C 
BRANCH  19  20
HETATM   20  C   UNL     1     -46.801 -52.856  14.789  1.00  0.00    -0.004 C 
HETATM   21  C   UNL     1     -46.880 -51.364  15.076  1.00  0.00     0.005 C 
ENDBRANCH  19  20
ENDBRANCH  17  19
ENDBRANCH   1  16
TORSDOF 4
ENDMDL
MODEL 5
REMARK VINA RESULT:      -5.6      3.797      5.202
REMARK  4 active torsions:
REMARK  status: ('A' for Active; 'I' for Inactive)
REMARK    1  A    between atoms: C_2  and  C_3 
REMARK    2  A    between atoms: C_3  and  C_4 
REMARK    3  A    between atoms: C_6  and  N_7 
REMARK       I    between atoms: N_7  and  C_8 
REMARK       I    between atoms: C_8  and  N_10 
REMARK    4  A    between atoms: N_10  and  C_11 
ROOT
HETATM    1  N   UNL     1     -44.187 -51.255  12.825  1.00  0.00    -0.338 N 
HETATM    2  C   UNL     1     -42.989 -50.600  13.039  1.00  0.00     0.322 C 
HETATM    3  O   UNL     1     -42.738 -50.031  14.095  1.00  0.00    -0.247 OA
HETATM    4  N   UNL     1     -42.108 -50.756  11.996  1.00  0.00    -0.290 N 
HETATM    5  H   UNL     1     -44.489 -51.365  11.866  1.00  0.00     0.164 HD
HETATM    6  H   UNL     1     -42.146 -51.639  11.504  1.00  0.00     0.172 HD
ENDROOT
BRANCH   4   7
HETATM    7  C   UNL     1     -40.890 -50.110  11.969  1.00  0.00     0.178 A 
HETATM    8  N   UNL     1     -40.769 -48.845  11.709  1.00  0.00    -0.346 N 
HETATM    9  C   UNL     1     -39.514 -48.312  11.802  1.00  0.00     0.107 A 
ATOM     10  HN  UNL     1     -41.574 -48.275  11.448  1.00  0.00     0.167 HD
HETATM   11  C   UNL     1     -38.414 -49.001  12.126  1.00  0.00     0.111 A 
HETATM   12  N   UNL     1     -38.478 -50.355  12.374  1.00  0.00    -0.325 N 
HETATM   13  C   UNL     1     -37.281 -51.099  12.710  1.00  0.00     0.159 C 
HETATM   14  C   UNL     1     -39.696 -51.021  12.282  1.00  0.00     0.291 A 
HETATM   15  O   UNL     1     -39.894 -52.222  12.440  1.00  0.00    -0.264 OA
ENDBRANCH   4   7
BRANCH   1  16
HETATM   16  C   UNL     1     -45.177 -51.324  13.864  1.00  0.00     0.090 A 
HETATM   17  C   UNL     1     -45.833 -52.635  14.228  1.00  0.00     0.010 A 
HETATM   18  C   UNL     1     -46.634 -51.543  13.571  1.00  0.00     0.032 A 
BRANCH  17  19
HETATM   19  C   UNL     1     -45.551 -53.903  13.474  1.00  0.00     0.006 C 
BRANCH  19  20
HETATM   20  C   UNL     1     -44.677 -54.879  14.263  1.00  0.00    -0.004 C 
HETATM   21  C   UNL     1     -43.212 -54.470  14.324  1.00  0.00     0.005 C 
ENDBRANCH  19  20
ENDBRANCH  17  19
ENDBRANCH   1  16
TORSDOF 4
ENDMDL
MODEL 6
REMARK VINA RESULT:      -5.5      3.515      6.412
REMARK  4 active torsions:
REMARK  status: ('A' for Active; 'I' for Inactive)
REMARK    1  A    between atoms: C_2  and  C_3 
REMARK    2  A    between atoms: C_3  and  C_4 
REMARK    3  A    between atoms: C_6  and  N_7 
REMARK       I    between atoms: N_7  and  C_8 
REMARK       I    between atoms: C_8  and  N_10 
REMARK    4  A    between atoms: N_10  and  C_11 
ROOT
HETATM    1  N   UNL     1     -43.746 -53.292  12.699  1.00  0.00    -0.338 N 
HETATM    2  C   UNL     1     -43.120 -52.065  12.802  1.00  0.00     0.322 C 
HETATM    3  O   UNL     1     -43.424 -51.248  13.664  1.00  0.00    -0.247 OA
HETATM    4  N   UNL     1     -42.079 -51.926  11.915  1.00  0.00    -0.290 N 
HETATM    5  H   UNL     1     -43.736 -53.742  11.794  1.00  0.00     0.164 HD
HETATM    6  H   UNL     1     -41.561 -52.767  11.697  1.00  0.00     0.172 HD
ENDROOT
BRANCH   4   7
HETATM    7  C   UNL     1     -41.380 -50.745  11.791  1.00  0.00     0.178 A 
HETATM    8  N   UNL     1     -41.923 -49.647  11.364  1.00  0.00    -0.346 N 
HETATM    9  C   UNL     1     -41.140 -48.526  11.373  1.00  0.00     0.107 A 
ATOM     10  HN  UNL     1     -42.888 -49.621  11.037  1.00  0.00     0.167 HD
HETATM   11  C   UNL     1     -39.864 -48.489  11.775  1.00  0.00     0.111 A 
HETATM   12  N   UNL     1     -39.227 -49.633  12.202  1.00  0.00    -0.325 N 
HETATM   13  C   UNL     1     -37.840 -49.590  12.622  1.00  0.00     0.159 C 
HETATM   14  C   UNL     1     -39.908 -50.847  12.210  1.00  0.00     0.291 A 
HETATM   15  O   UNL     1     -39.458 -51.942  12.528  1.00  0.00    -0.264 OA
ENDBRANCH   4   7
BRANCH   1  16
HETATM   16  C   UNL     1     -44.763 -53.673  13.640  1.00  0.00     0.090 A 
HETATM   17  C   UNL     1     -44.450 -54.596  14.793  1.00  0.00     0.010 A 
HETATM   18  C   UNL     1     -45.346 -55.057  13.674  1.00  0.00     0.032 A 
BRANCH  17  19
HETATM   19  C   UNL     1     -43.098 -55.225  14.965  1.00  0.00     0.006 C 
BRANCH  19  20
HETATM   20  C   UNL     1     -42.148 -54.365  15.801  1.00  0.00    -0.004 C 
HETATM   21  C   UNL     1     -40.857 -54.009  15.078  1.00  0.00     0.005 C 
ENDBRANCH  19  20
ENDBRANCH  17  19
ENDBRANCH   1  16
TORSDOF 4
ENDMDL
MODEL 7
REMARK VINA RESULT:      -5.4      3.741      6.348
REMARK  4 active torsions:
REMARK  status: ('A' for Active; 'I' for Inactive)
REMARK    1  A    between atoms: C_2  and  C_3 
REMARK    2  A    between atoms: C_3  and  C_4 
REMARK    3  A    between atoms: C_6  and  N_7 
REMARK       I    between atoms: N_7  and  C_8 
REMARK       I    between atoms: C_8  and  N_10 
REMARK    4  A    between atoms: N_10  and  C_11 
ROOT
HETATM    1  N   UNL     1     -40.550 -50.762  11.194  1.00  0.00    -0.338 N 
HETATM    2  C   UNL     1     -41.609 -51.124  12.004  1.00  0.00     0.322 C 
HETATM    3  O   UNL     1     -42.093 -50.355  12.826  1.00  0.00    -0.247 OA
HETATM    4  N   UNL     1     -42.101 -52.373  11.706  1.00  0.00    -0.290 N 
HETATM    5  H   UNL     1     -39.969 -51.506  10.833  1.00  0.00     0.164 HD
HETATM    6  H   UNL     1     -42.061 -52.649  10.734  1.00  0.00     0.172 HD
ENDROOT
BRANCH   4   7
HETATM    7  C   UNL     1     -43.099 -52.961  12.453  1.00  0.00     0.178 A 
HETATM    8  N   UNL     1     -44.359 -52.746  12.236  1.00  0.00    -0.346 N 
HETATM    9  C   UNL     1     -45.247 -53.461  12.992  1.00  0.00     0.107 A 
ATOM     10  HN  UNL     1     -44.674 -52.077  11.535  1.00  0.00     0.167 HD
HETATM   11  C   UNL     1     -44.906 -54.345  13.938  1.00  0.00     0.111 A 
HETATM   12  N   UNL     1     -43.582 -54.582  14.236  1.00  0.00    -0.325 N 
HETATM   13  C   UNL     1     -43.219 -55.530  15.270  1.00  0.00     0.159 C 
HETATM   14  C   UNL     1     -42.582 -53.894  13.556  1.00  0.00     0.291 A 
HETATM   15  O   UNL     1     -41.373 -53.978  13.741  1.00  0.00    -0.264 OA
ENDBRANCH   4   7
BRANCH   1  16
HETATM   16  C   UNL     1     -39.998 -49.437  11.263  1.00  0.00     0.090 A 
HETATM   17  C   UNL     1     -38.540 -49.217  11.588  1.00  0.00     0.010 A 
HETATM   18  C   UNL     1     -39.607 -48.798  12.564  1.00  0.00     0.032 A 
BRANCH  17  19
HETATM   19  C   UNL     1     -37.622 -50.353  11.937  1.00  0.00     0.006 C 
BRANCH  19  20
HETATM   20  C   UNL     1     -37.570 -50.631  13.440  1.00  0.00    -0.004 C 
HETATM   21  C   UNL     1     -38.384 -51.846  13.861  1.00  0.00     0.005 C 
ENDBRANCH  19  20
ENDBRANCH  17  19
ENDBRANCH   1  16
TORSDOF 4
ENDMDL
MODEL 8
REMARK VINA RESULT:      -5.3      2.561      6.972
REMARK  4 active torsions:
REMARK  status: ('A' for Active; 'I' for Inactive)
REMARK    1  A    between atoms: C_2  and  C_3 
REMARK    2  A    between atoms: C_3  and  C_4 
REMARK    3  A    between atoms: C_6  and  N_7 
REMARK       I    between atoms: N_7  and  C_8 
REMARK       I    between atoms: C_8  and  N_10 
REMARK    4  A    between atoms: N_10  and  C_11 
ROOT
HETATM    1  N   UNL     1     -41.574 -51.643  12.526  1.00  0.00    -0.338 N 
HETATM    2  C   UNL     1     -42.051 -50.382  12.222  1.00  0.00     0.322 C 
HETATM    3  O   UNL     1     -43.023 -49.899  12.791  1.00  0.00    -0.247 OA
HETATM    4  N   UNL     1     -41.260 -49.722  11.312  1.00  0.00    -0.290 N 
HETATM    5  H   UNL     1     -41.049 -52.124  11.808  1.00  0.00     0.164 HD
HETATM    6  H   UNL     1     -40.268 -49.915  11.358  1.00  0.00     0.172 HD
ENDROOT
BRANCH   4   7
HETATM    7  C   UNL     1     -41.606 -48.487  10.806  1.00  0.00     0.178 A 
HETATM    8  N   UNL     1     -42.700 -48.281  10.141  1.00  0.00    -0.346 N 
HETATM    9  C   UNL     1     -42.965 -46.991   9.773  1.00  0.00     0.107 A 
ATOM     10  HN  UNL     1     -43.333 -49.044   9.904  1.00  0.00     0.167 HD
HETATM   11  C   UNL     1     -42.175 -45.944  10.038  1.00  0.00     0.111 A 
HETATM   12  N   UNL     1     -40.983 -46.112  10.708  1.00  0.00    -0.325 N 
HETATM   13  C   UNL     1     -40.125 -44.976  10.979  1.00  0.00     0.159 C 
HETATM   14  C   UNL     1     -40.585 -47.383  11.110  1.00  0.00     0.291 A 
HETATM   15  O   UNL     1     -39.541 -47.683  11.678  1.00  0.00    -0.264 OA
ENDBRANCH   4   7
BRANCH   1  16
HETATM   16  C   UNL     1     -42.188 -52.426  13.562  1.00  0.00     0.090 A 
HETATM   17  C   UNL     1     -41.562 -53.715  14.038  1.00  0.00     0.010 A 
HETATM   18  C   UNL     1     -42.865 -53.737  13.283  1.00  0.00     0.032 A 
BRANCH  17  19
HETATM   19  C   UNL     1     -40.327 -54.283  13.402  1.00  0.00     0.006 C 
BRANCH  19  20
HETATM   20  C   UNL     1     -39.074 -54.076  14.253  1.00  0.00    -0.004 C 
HETATM   21  C   UNL     1     -38.888 -55.137  15.328  1.00  0.00     0.005 C 
ENDBRANCH  19  20
ENDBRANCH  17  19
ENDBRANCH   1  16
TORSDOF 4
ENDMDL
MODEL 9
REMARK VINA RESULT:      -5.2      3.784      6.558
REMARK  4 active torsions:
REMARK  status: ('A' for Active; 'I' for Inactive)
REMARK    1  A    between atoms: C_2  and  C_3 
REMARK    2  A    between atoms: C_3  and  C_4 
REMARK    3  A    between atoms: C_6  and  N_7 
REMARK       I    between atoms: N_7  and  C_8 
REMARK       I    between atoms: C_8  and  N_10 
REMARK    4  A    between atoms: N_10  and  C_11 
ROOT
HETATM    1  N   UNL     1     -42.980 -51.570  13.394  1.00  0.00    -0.338 N 
HETATM    2  C   UNL     1     -42.465 -50.588  12.570  1.00  0.00     0.322 C 
HETATM    3  O   UNL     1     -41.417 -50.739  11.953  1.00  0.00    -0.247 OA
HETATM    4  N   UNL     1     -43.301 -49.504  12.452  1.00  0.00    -0.290 N 
HETATM    5  H   UNL     1     -43.598 -51.273  14.137  1.00  0.00     0.164 HD
HETATM    6  H   UNL     1     -44.293 -49.698  12.486  1.00  0.00     0.172 HD
ENDROOT
BRANCH   4   7
HETATM    7  C   UNL     1     -42.937 -48.376  11.749  1.00  0.00     0.178 A 
HETATM    8  N   UNL     1     -42.743 -48.378  10.466  1.00  0.00    -0.346 N 
HETATM    9  C   UNL     1     -42.472 -47.173   9.880  1.00  0.00     0.107 A 
ATOM     10  HN  UNL     1     -42.791 -49.238   9.921  1.00  0.00     0.167 HD
HETATM   11  C   UNL     1     -42.382 -46.009  10.534  1.00  0.00     0.111 A 
HETATM   12  N   UNL     1     -42.540 -45.955  11.901  1.00  0.00    -0.325 N 
HETATM   13  C   UNL     1     -42.427 -44.694  12.606  1.00  0.00     0.159 C 
HETATM   14  C   UNL     1     -42.790 -47.121  12.619  1.00  0.00     0.291 A 
HETATM   15  O   UNL     1     -42.916 -47.226  13.834  1.00  0.00    -0.264 OA
ENDBRANCH   4   7
BRANCH   1  16
HETATM   16  C   UNL     1     -42.314 -52.836  13.526  1.00  0.00     0.090 A 
HETATM   17  C   UNL     1     -43.052 -54.133  13.288  1.00  0.00     0.010 A 
HETATM   18  C   UNL     1     -42.583 -53.769  14.672  1.00  0.00     0.032 A 
BRANCH  17  19
HETATM   19  C   UNL     1     -44.522 -54.168  12.989  1.00  0.00     0.006 C 
BRANCH  19  20
HETATM   20  C   UNL     1     -45.283 -55.151  13.879  1.00  0.00    -0.004 C 
HETATM   21  C   UNL     1     -46.394 -54.502  14.692  1.00  0.00     0.005 C 
ENDBRANCH  19  20
ENDBRANCH  17  19
ENDBRANCH   1  16
TORSDOF 4
ENDMDL
