MODEL 1
REMARK VINA RESULT:      -6.2      0.000      0.000
REMARK  4 active torsions:
REMARK  status: ('A' for Active; 'I' for Inactive)
REMARK       I    between atoms: C_2  and  N_3 
REMARK       I    between atoms: C_2  and  N_13 
REMARK    1  A    between atoms: N_3  and  C_4 
REMARK    2  A    between atoms: C_4  and  C_5 
REMARK    3  A    between atoms: N_8  and  C_10 
REMARK    4  A    between atoms: N_13  and  C_14 
ROOT
HETATM    1  O   UNL     1     -40.161 -48.614  12.153  1.00  0.00    -0.247 OA
HETATM    2  C   UNL     1     -41.207 -48.789  11.530  1.00  0.00     0.321 C 
HETATM    3  N   UNL     1     -41.956 -49.915  11.622  1.00  0.00    -0.342 N 
HETATM    4  N   UNL     1     -41.653 -47.811  10.692  1.00  0.00    -0.295 N 
HETATM    5  H   UNL     1     -42.824 -49.903  11.090  1.00  0.00     0.164 HD
HETATM    6  H   UNL     1     -41.043 -47.009  10.681  1.00  0.00     0.172 HD
ENDROOT
BRANCH   3   7
HETATM    7  C   UNL     1     -41.625 -51.063  12.438  1.00  0.00     0.130 C 
BRANCH   7   8
HETATM    8  C   UNL     1     -42.855 -51.607  13.161  1.00  0.00     0.033 C 
HETATM    9  C   UNL     1     -43.387 -52.914  12.579  1.00  0.00     0.038 C 
HETATM   10  C   UNL     1     -44.906 -52.796  12.637  1.00  0.00     0.273 C 
HETATM   11  N   UNL     1     -45.228 -51.527  13.303  1.00  0.00     0.093 N 
HETATM   12  C   UNL     1     -44.053 -50.668  13.072  1.00  0.00     0.279 C 
BRANCH  11  13
HETATM   13  C   UNL     1     -45.546 -51.685  14.735  1.00  0.00     0.223 A 
HETATM   14  C   UNL     1     -46.446 -52.802  15.193  1.00  0.00     0.038 A 
HETATM   15  C   UNL     1     -46.958 -51.394  15.173  1.00  0.00     0.038 A 
ENDBRANCH  11  13
ENDBRANCH   7   8
ENDBRANCH   3   7
BRANCH   4  16
HETATM   16  C   UNL     1     -42.779 -47.793   9.864  1.00  0.00     0.108 A 
HETATM   17  C   UNL     1     -44.008 -47.522  10.458  1.00  0.00     0.049 A 
HETATM   18  C   UNL     1     -45.152 -47.482   9.662  1.00  0.00     0.005 A 
HETATM   19  C   UNL     1     -45.037 -47.713   8.298  1.00  0.00     0.017 A 
HETATM   20  C   UNL     1     -43.779 -47.977   7.786  1.00  0.00     0.089 A 
HETATM   21  N   UNL     1     -42.654 -48.023   8.536  1.00  0.00    -0.352 N 
ATOM     22  HN  UNL     1     -41.746 -48.224   8.117  1.00  0.00     0.166 HD
ENDBRANCH   4  16
TORSDOF 4
ENDMDL
MODEL 2
REMARK VINA RESULT:      -6.0      1.262      1.595
REMARK  4 active torsions:
REMARK  status: ('A' for Active; 'I' for Inactive)
REMARK       I    between atoms: C_2  and  N_3 
REMARK       I    between atoms: C_2  and  N_13 
REMARK    1  A    between atoms: N_3  and  C_4 
REMARK    2  A    between atoms: C_4  and  C_5 
REMARK    3  A    between atoms: N_8  and  C_10 
REMARK    4  A    between atoms: N_13  and  C_14 
ROOT
HETATM    1  O   UNL     1     -39.434 -51.095  11.944  1.00  0.00    -0.247 OA
HETATM    2  C   UNL     1     -40.483 -50.513  11.672  1.00  0.00     0.321 C 
HETATM    3  N   UNL     1     -41.709 -51.075  11.807  1.00  0.00    -0.342 N 
HETATM    4  N   UNL     1     -40.432 -49.235  11.202  1.00  0.00    -0.295 N 
HETATM    5  H   UNL     1     -42.493 -50.462  11.593  1.00  0.00     0.164 HD
HETATM    6  H   UNL     1     -39.488 -48.890  11.133  1.00  0.00     0.172 HD
ENDROOT
BRANCH   3   7
HETATM    7  C   UNL     1     -41.952 -52.427  12.263  1.00  0.00     0.130 C 
BRANCH   7   8
HETATM    8  C   UNL     1     -43.257 -52.523  13.051  1.00  0.00     0.033 C 
HETATM    9  C   UNL     1     -44.313 -53.408  12.394  1.00  0.00     0.038 C 
HETATM   10  C   UNL     1     -45.641 -52.696  12.625  1.00  0.00     0.273 C 
HETATM   11  N   UNL     1     -45.372 -51.511  13.452  1.00  0.00     0.093 N 
HETATM   12  C   UNL     1     -43.961 -51.177  13.190  1.00  0.00     0.279 C 
BRANCH  11  13
HETATM   13  C   UNL     1     -45.650 -51.726  14.885  1.00  0.00     0.223 A 
HETATM   14  C   UNL     1     -46.645 -52.771  15.316  1.00  0.00     0.038 A 
HETATM   15  C   UNL     1     -47.006 -51.320  15.401  1.00  0.00     0.038 A 
ENDBRANCH  11  13
ENDBRANCH   7   8
ENDBRANCH   3   7
BRANCH   4  16
HETATM   16  C   UNL     1     -41.472 -48.393  10.798  1.00  0.00     0.108 A 
HETATM   17  C   UNL     1     -42.026 -47.551  11.757  1.00  0.00     0.049 A 
HETATM   18  C   UNL     1     -43.056 -46.687  11.388  1.00  0.00     0.005 A 
HETATM   19  C   UNL     1     -43.503 -46.687  10.074  1.00  0.00     0.017 A 
HETATM   20  C   UNL     1     -42.900 -47.557   9.182  1.00  0.00     0.089 A 
HETATM   21  N   UNL     1     -41.901 -48.405   9.515  1.00  0.00    -0.352 N 
ATOM     22  HN  UNL     1     -41.487 -49.031   8.824  1.00  0.00     0.166 HD
ENDBRANCH   4  16
TORSDOF 4
ENDMDL
MODEL 3
REMARK VINA RESULT:      -6.0      3.744      5.226
REMARK  4 active torsions:
REMARK  status: ('A' for Active; 'I' for Inactive)
REMARK       I    between atoms: C_2  and  N_3 
REMARK       I    between atoms: C_2  and  N_13 
REMARK    1  A    between atoms: N_3  and  C_4 
REMARK    2  A    between atoms: C_4  and  C_5 
REMARK    3  A    between atoms: N_8  and  C_10 
REMARK    4  A    between atoms: N_13  and  C_14 
ROOT
HETATM    1  O   UNL     1     -44.861 -54.444  12.401  1.00  0.00    -0.247 OA
HETATM    2  C   UNL     1     -44.158 -53.443  12.529  1.00  0.00     0.321 C 
HETATM    3  N   UNL     1     -44.654 -52.200  12.745  1.00  0.00    -0.342 N 
HETATM    4  N   UNL     1     -42.804 -53.567  12.448  1.00  0.00    -0.295 N 
HETATM    5  H   UNL     1     -43.956 -51.472  12.883  1.00  0.00     0.164 HD
HETATM    6  H   UNL     1     -42.515 -54.520  12.289  1.00  0.00     0.172 HD
ENDROOT
BRANCH   3   7
HETATM    7  C   UNL     1     -46.062 -51.876  12.833  1.00  0.00     0.130 C 
BRANCH   7   8
HETATM    8  C   UNL     1     -46.443 -51.418  14.239  1.00  0.00     0.033 C 
HETATM    9  C   UNL     1     -45.261 -50.929  15.072  1.00  0.00     0.038 C 
HETATM   10  C   UNL     1     -45.517 -51.445  16.483  1.00  0.00     0.273 C 
HETATM   11  N   UNL     1     -46.825 -52.116  16.481  1.00  0.00     0.093 N 
HETATM   12  C   UNL     1     -47.029 -52.544  15.085  1.00  0.00     0.279 C 
BRANCH  11  13
HETATM   13  C   UNL     1     -47.919 -51.263  16.981  1.00  0.00     0.223 A 
HETATM   14  C   UNL     1     -47.640 -50.197  18.008  1.00  0.00     0.038 A 
HETATM   15  C   UNL     1     -48.352 -51.452  18.412  1.00  0.00     0.038 A 
ENDBRANCH  11  13
ENDBRANCH   7   8
ENDBRANCH   3   7
BRANCH   4  16
HETATM   16  C   UNL     1     -41.812 -52.585  12.526  1.00  0.00     0.108 A 
HETATM   17  C   UNL     1     -41.158 -52.428  13.744  1.00  0.00     0.049 A 
HETATM   18  C   UNL     1     -40.154 -51.467  13.856  1.00  0.00     0.005 A 
HETATM   19  C   UNL     1     -39.832 -50.691  12.752  1.00  0.00     0.017 A 
HETATM   20  C   UNL     1     -40.532 -50.907  11.578  1.00  0.00     0.089 A 
HETATM   21  N   UNL     1     -41.511 -51.832  11.443  1.00  0.00    -0.352 N 
ATOM     22  HN  UNL     1     -42.003 -51.956  10.558  1.00  0.00     0.166 HD
ENDBRANCH   4  16
TORSDOF 4
ENDMDL
MODEL 4
REMARK VINA RESULT:      -5.9      1.758      5.910
REMARK  4 active torsions:
REMARK  status: ('A' for Active; 'I' for Inactive)
REMARK       I    between atoms: C_2  and  N_3 
REMARK       I    between atoms: C_2  and  N_13 
REMARK    1  A    between atoms: N_3  and  C_4 
REMARK    2  A    between atoms: C_4  and  C_5 
REMARK    3  A    between atoms: N_8  and  C_10 
REMARK    4  A    between atoms: N_13  and  C_14 
ROOT
HETATM    1  O   UNL     1     -40.576 -52.558  12.072  1.00  0.00    -0.247 OA
HETATM    2  C   UNL     1     -41.671 -52.030  12.257  1.00  0.00     0.321 C 
HETATM    3  N   UNL     1     -41.927 -50.724  12.003  1.00  0.00    -0.342 N 
HETATM    4  N   UNL     1     -42.696 -52.781  12.748  1.00  0.00    -0.295 N 
HETATM    5  H   UNL     1     -42.891 -50.433  12.154  1.00  0.00     0.164 HD
HETATM    6  H   UNL     1     -42.427 -53.739  12.908  1.00  0.00     0.172 HD
ENDROOT
BRANCH   3   7
HETATM    7  C   UNL     1     -40.956 -49.773  11.506  1.00  0.00     0.130 C 
BRANCH   7   8
HETATM    8  C   UNL     1     -41.632 -48.606  10.790  1.00  0.00     0.033 C 
HETATM    9  C   UNL     1     -41.081 -47.237  11.180  1.00  0.00     0.038 C 
HETATM   10  C   UNL     1     -42.293 -46.315  11.250  1.00  0.00     0.273 C 
HETATM   11  N   UNL     1     -43.468 -47.093  10.831  1.00  0.00     0.093 N 
HETATM   12  C   UNL     1     -43.117 -48.495  11.120  1.00  0.00     0.279 C 
BRANCH  11  13
HETATM   13  C   UNL     1     -43.836 -46.877   9.420  1.00  0.00     0.223 A 
HETATM   14  C   UNL     1     -44.073 -45.483   8.902  1.00  0.00     0.038 A 
HETATM   15  C   UNL     1     -45.236 -46.401   9.128  1.00  0.00     0.038 A 
ENDBRANCH  11  13
ENDBRANCH   7   8
ENDBRANCH   3   7
BRANCH   4  16
HETATM   16  C   UNL     1     -44.003 -52.403  13.069  1.00  0.00     0.108 A 
HETATM   17  C   UNL     1     -44.211 -51.798  14.305  1.00  0.00     0.049 A 
HETATM   18  C   UNL     1     -45.499 -51.396  14.655  1.00  0.00     0.005 A 
HETATM   19  C   UNL     1     -46.542 -51.608  13.764  1.00  0.00     0.017 A 
HETATM   20  C   UNL     1     -46.251 -52.218  12.557  1.00  0.00     0.089 A 
HETATM   21  N   UNL     1     -45.012 -52.619  12.193  1.00  0.00    -0.352 N 
ATOM     22  HN  UNL     1     -44.843 -53.068  11.293  1.00  0.00     0.166 HD
ENDBRANCH   4  16
TORSDOF 4
ENDMDL
MODEL 5
REMARK VINA RESULT:      -5.7      1.767      2.373
REMARK  4 active torsions:
REMARK  status: ('A' for Active; 'I' for Inactive)
REMARK       I    between atoms: C_2  and  N_3 
REMARK       I    between atoms: C_2  and  N_13 
REMARK    1  A    between atoms: N_3  and  C_4 
REMARK    2  A    between atoms: C_4  and  C_5 
REMARK    3  A    between atoms: N_8  and  C_10 
REMARK    4  A    between atoms: N_13  and  C_14 
ROOT
HETATM    1  O   UNL     1     -38.378 -51.207  12.171  1.00  0.00    -0.247 OA
HETATM    2  C   UNL     1     -39.437 -50.584  12.128  1.00  0.00     0.321 C 
HETATM    3  N   UNL     1     -40.584 -51.011  12.711  1.00  0.00    -0.342 N 
HETATM    4  N   UNL     1     -39.482 -49.398  11.459  1.00  0.00    -0.295 N 
HETATM    5  H   UNL     1     -41.371 -50.370  12.639  1.00  0.00     0.164 HD
HETATM    6  H   UNL     1     -38.592 -49.150  11.057  1.00  0.00     0.172 HD
ENDROOT
BRANCH   3   7
HETATM    7  C   UNL     1     -40.728 -52.254  13.437  1.00  0.00     0.130 C 
BRANCH   7   8
HETATM    8  C   UNL     1     -42.194 -52.563  13.730  1.00  0.00     0.033 C 
HETATM    9  C   UNL     1     -42.646 -53.939  13.248  1.00  0.00     0.038 C 
HETATM   10  C   UNL     1     -44.055 -53.738  12.703  1.00  0.00     0.273 C 
HETATM   11  N   UNL     1     -44.429 -52.337  12.945  1.00  0.00     0.093 N 
HETATM   12  C   UNL     1     -43.149 -51.610  13.017  1.00  0.00     0.279 C 
BRANCH  11  13
HETATM   13  C   UNL     1     -45.257 -52.155  14.151  1.00  0.00     0.223 A 
HETATM   14  C   UNL     1     -46.554 -52.907  14.302  1.00  0.00     0.038 A 
HETATM   15  C   UNL     1     -46.575 -51.441  13.992  1.00  0.00     0.038 A 
ENDBRANCH  11  13
ENDBRANCH   7   8
ENDBRANCH   3   7
BRANCH   4  16
HETATM   16  C   UNL     1     -40.563 -48.537  11.245  1.00  0.00     0.108 A 
HETATM   17  C   UNL     1     -40.701 -47.454  12.107  1.00  0.00     0.049 A 
HETATM   18  C   UNL     1     -41.759 -46.566  11.917  1.00  0.00     0.005 A 
HETATM   19  C   UNL     1     -42.647 -46.783  10.873  1.00  0.00     0.017 A 
HETATM   20  C   UNL     1     -42.441 -47.885  10.062  1.00  0.00     0.089 A 
HETATM   21  N   UNL     1     -41.424 -48.762  10.225  1.00  0.00    -0.352 N 
ATOM     22  HN  UNL     1     -41.310 -49.563   9.604  1.00  0.00     0.166 HD
ENDBRANCH   4  16
TORSDOF 4
ENDMDL
MODEL 6
REMARK VINA RESULT:      -5.7      2.458      6.340
REMARK  4 active torsions:
REMARK  status: ('A' for Active; 'I' for Inactive)
REMARK       I    between atoms: C_2  and  N_3 
REMARK       I    between atoms: C_2  and  N_13 
REMARK    1  A    between atoms: N_3  and  C_4 
REMARK    2  A    between atoms: C_4  and  C_5 
REMARK    3  A    between atoms: N_8  and  C_10 
REMARK    4  A    between atoms: N_13  and  C_14 
ROOT
HETATM    1  O   UNL     1     -40.480 -52.818  12.156  1.00  0.00    -0.247 OA
HETATM    2  C   UNL     1     -41.566 -52.247  12.242  1.00  0.00     0.321 C 
HETATM    3  N   UNL     1     -41.790 -50.988  11.793  1.00  0.00    -0.342 N 
HETATM    4  N   UNL     1     -42.614 -52.897  12.823  1.00  0.00    -0.295 N 
HETATM    5  H   UNL     1     -42.749 -50.660  11.884  1.00  0.00     0.164 HD
HETATM    6  H   UNL     1     -42.368 -53.826  13.127  1.00  0.00     0.172 HD
ENDROOT
BRANCH   3   7
HETATM    7  C   UNL     1     -40.792 -50.141  11.177  1.00  0.00     0.130 C 
BRANCH   7   8
HETATM    8  C   UNL     1     -40.895 -48.702  11.677  1.00  0.00     0.033 C 
HETATM    9  C   UNL     1     -41.647 -47.770  10.730  1.00  0.00     0.038 C 
HETATM   10  C   UNL     1     -40.888 -46.448  10.773  1.00  0.00     0.273 C 
HETATM   11  N   UNL     1     -39.812 -46.586  11.765  1.00  0.00     0.093 N 
HETATM   12  C   UNL     1     -39.533 -48.032  11.824  1.00  0.00     0.279 C 
BRANCH  11  13
HETATM   13  C   UNL     1     -40.157 -46.018  13.082  1.00  0.00     0.223 A 
HETATM   14  C   UNL     1     -40.647 -44.598  13.190  1.00  0.00     0.038 A 
HETATM   15  C   UNL     1     -39.258 -44.941  13.634  1.00  0.00     0.038 A 
ENDBRANCH  11  13
ENDBRANCH   7   8
ENDBRANCH   3   7
BRANCH   4  16
HETATM   16  C   UNL     1     -43.917 -52.450  13.063  1.00  0.00     0.108 A 
HETATM   17  C   UNL     1     -44.137 -51.702  14.215  1.00  0.00     0.049 A 
HETATM   18  C   UNL     1     -45.420 -51.229  14.482  1.00  0.00     0.005 A 
HETATM   19  C   UNL     1     -46.446 -51.513  13.592  1.00  0.00     0.017 A 
HETATM   20  C   UNL     1     -46.145 -52.265  12.470  1.00  0.00     0.089 A 
HETATM   21  N   UNL     1     -44.909 -52.737  12.189  1.00  0.00    -0.352 N 
ATOM     22  HN  UNL     1     -44.732 -53.290  11.350  1.00  0.00     0.166 HD
ENDBRANCH   4  16
TORSDOF 4
ENDMDL
MODEL 7
REMARK VINA RESULT:      -5.6      4.111      5.061
REMARK  4 active torsions:
REMARK  status: ('A' for Active; 'I' for Inactive)
REMARK       I    between atoms: C_2  and  N_3 
REMARK       I    between atoms: C_2  and  N_13 
REMARK    1  A    between atoms: N_3  and  C_4 
REMARK    2  A    between atoms: C_4  and  C_5 
REMARK    3  A    between atoms: N_8  and  C_10 
REMARK    4  A    between atoms: N_13  and  C_14 
ROOT
HETATM    1  O   UNL     1     -39.225 -54.213  15.017  1.00  0.00    -0.247 OA
HETATM    2  C   UNL     1     -39.403 -53.271  14.246  1.00  0.00     0.321 C 
HETATM    3  N   UNL     1     -40.429 -53.208  13.362  1.00  0.00    -0.342 N 
HETATM    4  N   UNL     1     -38.531 -52.224  14.262  1.00  0.00    -0.295 N 
HETATM    5  H   UNL     1     -40.484 -52.348  12.822  1.00  0.00     0.164 HD
HETATM    6  H   UNL     1     -37.800 -52.345  14.946  1.00  0.00     0.172 HD
ENDROOT
BRANCH   3   7
HETATM    7  C   UNL     1     -41.433 -54.236  13.188  1.00  0.00     0.130 C 
BRANCH   7   8
HETATM    8  C   UNL     1     -42.792 -53.784  13.716  1.00  0.00     0.033 C 
HETATM    9  C   UNL     1     -43.602 -54.898  14.375  1.00  0.00     0.038 C 
HETATM   10  C   UNL     1     -45.046 -54.658  13.948  1.00  0.00     0.273 C 
HETATM   11  N   UNL     1     -45.076 -53.418  13.160  1.00  0.00     0.093 N 
HETATM   12  C   UNL     1     -43.716 -53.284  12.610  1.00  0.00     0.279 C 
BRANCH  11  13
HETATM   13  C   UNL     1     -45.492 -52.240  13.945  1.00  0.00     0.223 A 
HETATM   14  C   UNL     1     -46.742 -52.290  14.784  1.00  0.00     0.038 A 
HETATM   15  C   UNL     1     -46.735 -51.511  13.504  1.00  0.00     0.038 A 
ENDBRANCH  11  13
ENDBRANCH   7   8
ENDBRANCH   3   7
BRANCH   4  16
HETATM   16  C   UNL     1     -38.506 -51.073  13.469  1.00  0.00     0.108 A 
HETATM   17  C   UNL     1     -37.569 -51.022  12.441  1.00  0.00     0.049 A 
HETATM   18  C   UNL     1     -37.522 -49.896  11.621  1.00  0.00     0.005 A 
HETATM   19  C   UNL     1     -38.410 -48.854  11.849  1.00  0.00     0.017 A 
HETATM   20  C   UNL     1     -39.309 -48.982  12.893  1.00  0.00     0.089 A 
HETATM   21  N   UNL     1     -39.374 -50.063  13.704  1.00  0.00    -0.352 N 
ATOM     22  HN  UNL     1     -40.053 -50.114  14.464  1.00  0.00     0.166 HD
ENDBRANCH   4  16
TORSDOF 4
ENDMDL
MODEL 8
REMARK VINA RESULT:      -5.4      3.068      6.730
REMARK  4 active torsions:
REMARK  status: ('A' for Active; 'I' for Inactive)
REMARK       I    between atoms: C_2  and  N_3 
REMARK       I    between atoms: C_2  and  N_13 
REMARK    1  A    between atoms: N_3  and  C_4 
REMARK    2  A    between atoms: C_4  and  C_5 
REMARK    3  A    between atoms: N_8  and  C_10 
REMARK    4  A    between atoms: N_13  and  C_14 
ROOT
HETATM    1  O   UNL     1     -38.853 -52.568  13.279  1.00  0.00    -0.247 OA
HETATM    2  C   UNL     1     -40.071 -52.572  13.448  1.00  0.00     0.321 C 
HETATM    3  N   UNL     1     -40.767 -51.509  13.920  1.00  0.00    -0.342 N 
HETATM    4  N   UNL     1     -40.779 -53.699  13.158  1.00  0.00    -0.295 N 
HETATM    5  H   UNL     1     -41.776 -51.635  13.963  1.00  0.00     0.164 HD
HETATM    6  H   UNL     1     -40.192 -54.442  12.811  1.00  0.00     0.172 HD
ENDROOT
BRANCH   3   7
HETATM    7  C   UNL     1     -40.180 -50.243  14.305  1.00  0.00     0.130 C 
BRANCH   7   8
HETATM    8  C   UNL     1     -40.590 -49.124  13.350  1.00  0.00     0.033 C 
HETATM    9  C   UNL     1     -41.637 -49.542  12.320  1.00  0.00     0.038 C 
HETATM   10  C   UNL     1     -41.230 -48.850  11.024  1.00  0.00     0.273 C 
HETATM   11  N   UNL     1     -40.065 -48.005  11.318  1.00  0.00     0.093 N 
HETATM   12  C   UNL     1     -39.430 -48.628  12.493  1.00  0.00     0.279 C 
BRANCH  11  13
HETATM   13  C   UNL     1     -40.413 -46.589  11.543  1.00  0.00     0.223 A 
HETATM   14  C   UNL     1     -41.334 -45.874  10.589  1.00  0.00     0.038 A 
HETATM   15  C   UNL     1     -39.866 -45.573  10.574  1.00  0.00     0.038 A 
ENDBRANCH  11  13
ENDBRANCH   7   8
ENDBRANCH   3   7
BRANCH   4  16
HETATM   16  C   UNL     1     -42.147 -53.954  13.298  1.00  0.00     0.108 A 
HETATM   17  C   UNL     1     -42.560 -54.627  14.444  1.00  0.00     0.049 A 
HETATM   18  C   UNL     1     -43.917 -54.888  14.625  1.00  0.00     0.005 A 
HETATM   19  C   UNL     1     -44.823 -54.469  13.661  1.00  0.00     0.017 A 
HETATM   20  C   UNL     1     -44.330 -53.808  12.549  1.00  0.00     0.089 A 
HETATM   21  N   UNL     1     -43.019 -53.544  12.349  1.00  0.00    -0.352 N 
ATOM     22  HN  UNL     1     -42.699 -53.055  11.512  1.00  0.00     0.166 HD
ENDBRANCH   4  16
TORSDOF 4
ENDMDL
MODEL 9
REMARK VINA RESULT:      -5.4      4.222      6.654
REMARK  4 active torsions:
REMARK  status: ('A' for Active; 'I' for Inactive)
REMARK       I    between atoms: C_2  and  N_3 
REMARK       I    between atoms: C_2  and  N_13 
REMARK    1  A    between atoms: N_3  and  C_4 
REMARK    2  A    between atoms: C_4  and  C_5 
REMARK    3  A    between atoms: N_8  and  C_10 
REMARK    4  A    between atoms: N_13  and  C_14 
ROOT
HETATM    1  O   UNL     1     -43.085 -55.955  15.518  1.00  0.00    -0.247 OA
HETATM    2  C   UNL     1     -43.449 -54.961  14.893  1.00  0.00     0.321 C 
HETATM    3  N   UNL     1     -42.603 -54.152  14.209  1.00  0.00    -0.342 N 
HETATM    4  N   UNL     1     -44.772 -54.634  14.877  1.00  0.00    -0.295 N 
HETATM    5  H   UNL     1     -43.048 -53.394  13.695  1.00  0.00     0.164 HD
HETATM    6  H   UNL     1     -45.334 -55.283  15.405  1.00  0.00     0.172 HD
ENDROOT
BRANCH   3   7
HETATM    7  C   UNL     1     -41.169 -54.329  14.137  1.00  0.00     0.130 C 
BRANCH   7   8
HETATM    8  C   UNL     1     -40.449 -52.992  13.976  1.00  0.00     0.033 C 
HETATM    9  C   UNL     1     -41.082 -51.848  14.765  1.00  0.00     0.038 C 
HETATM   10  C   UNL     1     -40.990 -50.627  13.856  1.00  0.00     0.273 C 
HETATM   11  N   UNL     1     -40.258 -51.028  12.646  1.00  0.00     0.093 N 
HETATM   12  C   UNL     1     -40.471 -52.483  12.538  1.00  0.00     0.279 C 
BRANCH  11  13
HETATM   13  C   UNL     1     -38.830 -50.662  12.681  1.00  0.00     0.223 A 
HETATM   14  C   UNL     1     -38.415 -49.259  13.037  1.00  0.00     0.038 A 
HETATM   15  C   UNL     1     -38.323 -49.725  11.615  1.00  0.00     0.038 A 
ENDBRANCH  11  13
ENDBRANCH   7   8
ENDBRANCH   3   7
BRANCH   4  16
HETATM   16  C   UNL     1     -45.414 -53.548  14.275  1.00  0.00     0.108 A 
HETATM   17  C   UNL     1     -45.780 -52.484  15.093  1.00  0.00     0.049 A 
HETATM   18  C   UNL     1     -46.411 -51.377  14.526  1.00  0.00     0.005 A 
HETATM   19  C   UNL     1     -46.658 -51.364  13.160  1.00  0.00     0.017 A 
HETATM   20  C   UNL     1     -46.265 -52.463  12.417  1.00  0.00     0.089 A 
HETATM   21  N   UNL     1     -45.653 -53.549  12.943  1.00  0.00    -0.352 N 
ATOM     22  HN  UNL     1     -45.382 -54.339  12.357  1.00  0.00     0.166 HD
ENDBRANCH   4  16
TORSDOF 4
ENDMDL
