MODEL 1
REMARK VINA RESULT:      -6.1      0.000      0.000
REMARK  4 active torsions:
REMARK  status: ('A' for Active; 'I' for Inactive)
REMARK    1  A    between atoms: C_2  and  C_4 
REMARK    2  A    between atoms: C_9  and  N_10 
REMARK       I    between atoms: N_10  and  C_11 
REMARK       I    between atoms: C_11  and  N_13 
REMARK    3  A    between atoms: N_13  and  C_14 
REMARK    4  A    between atoms: C_17  and  O_18 
ROOT
HETATM    1  N   UNL     1     -39.378 -51.142  11.995  1.00  0.00    -0.288 N 
HETATM    2  C   UNL     1     -39.238 -49.796  11.807  1.00  0.00     0.322 C 
HETATM    3  O   UNL     1     -38.120 -49.302  11.697  1.00  0.00    -0.247 OA
HETATM    4  N   UNL     1     -40.391 -49.077  11.676  1.00  0.00    -0.338 N 
HETATM    5  H   UNL     1     -38.532 -51.691  11.957  1.00  0.00     0.172 HD
HETATM    6  H   UNL     1     -41.239 -49.540  11.986  1.00  0.00     0.164 HD
ENDROOT
BRANCH   1   7
HETATM    7  C   UNL     1     -40.579 -51.778  12.137  1.00  0.00     0.169 A 
HETATM    8  N   UNL     1     -41.370 -52.218  11.185  1.00  0.00    -0.279 N 
HETATM    9  N   UNL     1     -42.468 -52.865  11.687  1.00  0.00    -0.296 N 
ATOM     10  HN  UNL     1     -41.188 -52.093  10.189  1.00  0.00     0.189 HD
HETATM   11  C   UNL     1     -42.462 -52.902  13.004  1.00  0.00     0.073 A 
ATOM     12  HN  UNL     1     -43.203 -53.271  11.108  1.00  0.00     0.187 HD
HETATM   13  S   UNL     1     -41.125 -52.077  13.722  1.00  0.00    -0.037 SA
BRANCH  11  14
HETATM   14  C   UNL     1     -43.509 -53.595  13.825  1.00  0.00     0.036 C 
HETATM   15  C   UNL     1     -44.595 -54.168  12.913  1.00  0.00     0.016 C 
HETATM   16  C   UNL     1     -42.871 -54.712  14.657  1.00  0.00     0.016 C 
ENDBRANCH  11  14
ENDBRANCH   1   7
BRANCH   4  17
HETATM   17  C   UNL     1     -40.478 -47.657  11.385  1.00  0.00     0.086 C 
HETATM   18  C   UNL     1     -40.430 -46.831  12.674  1.00  0.00     0.028 C 
HETATM   19  C   UNL     1     -41.691 -47.000  13.530  1.00  0.00     0.034 C 
HETATM   20  C   UNL     1     -42.985 -46.772  12.748  1.00  0.00     0.118 C 
HETATM   21  C   UNL     1     -43.030 -47.556  11.436  1.00  0.00     0.034 C 
HETATM   22  C   UNL     1     -41.762 -47.370  10.595  1.00  0.00     0.028 C 
BRANCH  20  23
HETATM   23  O   UNL     1     -43.158 -45.381  12.486  1.00  0.00    -0.396 OA
HETATM   24  H   UNL     1     -44.032 -45.105  12.806  1.00  0.00     0.210 HD
ENDBRANCH  20  23
ENDBRANCH   4  17
TORSDOF 4
ENDMDL
MODEL 2
REMARK VINA RESULT:      -6.1      2.721      5.845
REMARK  4 active torsions:
REMARK  status: ('A' for Active; 'I' for Inactive)
REMARK    1  A    between atoms: C_2  and  C_4 
REMARK    2  A    between atoms: C_9  and  N_10 
REMARK       I    between atoms: N_10  and  C_11 
REMARK       I    between atoms: C_11  and  N_13 
REMARK    3  A    between atoms: N_13  and  C_14 
REMARK    4  A    between atoms: C_17  and  O_18 
ROOT
HETATM    1  N   UNL     1     -39.324 -50.990  12.091  1.00  0.00    -0.288 N 
HETATM    2  C   UNL     1     -39.949 -51.880  12.917  1.00  0.00     0.322 C 
HETATM    3  O   UNL     1     -39.320 -52.818  13.400  1.00  0.00    -0.247 OA
HETATM    4  N   UNL     1     -41.254 -51.618  13.219  1.00  0.00    -0.338 N 
HETATM    5  H   UNL     1     -38.329 -51.105  11.975  1.00  0.00     0.172 HD
HETATM    6  H   UNL     1     -41.723 -50.952  12.614  1.00  0.00     0.164 HD
ENDROOT
BRANCH   1   7
HETATM    7  C   UNL     1     -39.943 -49.923  11.501  1.00  0.00     0.169 A 
HETATM    8  N   UNL     1     -40.601 -49.907  10.364  1.00  0.00    -0.279 N 
HETATM    9  N   UNL     1     -41.148 -48.679  10.103  1.00  0.00    -0.296 N 
ATOM     10  HN  UNL     1     -40.694 -50.714   9.747  1.00  0.00     0.189 HD
HETATM   11  C   UNL     1     -40.894 -47.810  11.061  1.00  0.00     0.073 A 
ATOM     12  HN  UNL     1     -41.689 -48.462   9.267  1.00  0.00     0.187 HD
HETATM   13  S   UNL     1     -39.898 -48.435  12.327  1.00  0.00    -0.037 SA
BRANCH  11  14
HETATM   14  C   UNL     1     -41.415 -46.403  11.073  1.00  0.00     0.036 C 
HETATM   15  C   UNL     1     -40.343 -45.445  10.553  1.00  0.00     0.016 C 
HETATM   16  C   UNL     1     -42.679 -46.303  10.214  1.00  0.00     0.016 C 
ENDBRANCH  11  14
ENDBRANCH   1   7
BRANCH   4  17
HETATM   17  C   UNL     1     -42.081 -52.378  14.139  1.00  0.00     0.086 C 
HETATM   18  C   UNL     1     -42.704 -53.591  13.441  1.00  0.00     0.028 C 
HETATM   19  C   UNL     1     -43.761 -53.196  12.403  1.00  0.00     0.034 C 
HETATM   20  C   UNL     1     -44.822 -52.243  12.957  1.00  0.00     0.118 C 
HETATM   21  C   UNL     1     -44.218 -51.049  13.695  1.00  0.00     0.034 C 
HETATM   22  C   UNL     1     -43.166 -51.466  14.730  1.00  0.00     0.028 C 
BRANCH  20  23
HETATM   23  O   UNL     1     -45.708 -52.950  13.823  1.00  0.00    -0.396 OA
HETATM   24  H   UNL     1     -46.621 -52.812  13.523  1.00  0.00     0.210 HD
ENDBRANCH  20  23
ENDBRANCH   4  17
TORSDOF 4
ENDMDL
MODEL 3
REMARK VINA RESULT:      -6.0      2.803      5.705
REMARK  4 active torsions:
REMARK  status: ('A' for Active; 'I' for Inactive)
REMARK    1  A    between atoms: C_2  and  C_4 
REMARK    2  A    between atoms: C_9  and  N_10 
REMARK       I    between atoms: N_10  and  C_11 
REMARK       I    between atoms: C_11  and  N_13 
REMARK    3  A    between atoms: N_13  and  C_14 
REMARK    4  A    between atoms: C_17  and  O_18 
ROOT
HETATM    1  N   UNL     1     -38.488 -50.127  11.654  1.00  0.00    -0.288 N 
HETATM    2  C   UNL     1     -38.453 -51.131  12.580  1.00  0.00     0.322 C 
HETATM    3  O   UNL     1     -37.384 -51.660  12.872  1.00  0.00    -0.247 OA
HETATM    4  N   UNL     1     -39.634 -51.436  13.191  1.00  0.00    -0.338 N 
HETATM    5  H   UNL     1     -37.599 -49.808  11.300  1.00  0.00     0.172 HD
HETATM    6  H   UNL     1     -40.471 -51.091  12.734  1.00  0.00     0.164 HD
ENDROOT
BRANCH   1   7
HETATM    7  C   UNL     1     -39.629 -49.485  11.258  1.00  0.00     0.169 A 
HETATM    8  N   UNL     1     -40.450 -49.834  10.294  1.00  0.00    -0.279 N 
HETATM    9  N   UNL     1     -41.531 -48.996  10.211  1.00  0.00    -0.296 N 
ATOM     10  HN  UNL     1     -40.302 -50.634   9.679  1.00  0.00     0.189 HD
HETATM   11  C   UNL     1     -41.494 -48.048  11.126  1.00  0.00     0.073 A 
ATOM     12  HN  UNL     1     -42.276 -49.094   9.523  1.00  0.00     0.187 HD
HETATM   13  S   UNL     1     -40.079 -48.086  12.117  1.00  0.00    -0.037 SA
BRANCH  11  14
HETATM   14  C   UNL     1     -42.573 -47.022  11.311  1.00  0.00     0.036 C 
HETATM   15  C   UNL     1     -43.848 -47.470  10.596  1.00  0.00     0.016 C 
HETATM   16  C   UNL     1     -42.847 -46.811  12.804  1.00  0.00     0.016 C 
ENDBRANCH  11  14
ENDBRANCH   1   7
BRANCH   4  17
HETATM   17  C   UNL     1     -39.810 -52.403  14.260  1.00  0.00     0.086 C 
HETATM   18  C   UNL     1     -39.808 -53.833  13.711  1.00  0.00     0.028 C 
HETATM   19  C   UNL     1     -41.051 -54.143  12.870  1.00  0.00     0.034 C 
HETATM   20  C   UNL     1     -42.361 -53.802  13.583  1.00  0.00     0.118 C 
HETATM   21  C   UNL     1     -42.364 -52.393  14.175  1.00  0.00     0.034 C 
HETATM   22  C   UNL     1     -41.113 -52.105  15.015  1.00  0.00     0.028 C 
BRANCH  20  23
HETATM   23  O   UNL     1     -42.622 -54.758  14.608  1.00  0.00    -0.396 OA
HETATM   24  H   UNL     1     -42.642 -54.305  15.466  1.00  0.00     0.210 HD
ENDBRANCH  20  23
ENDBRANCH   4  17
TORSDOF 4
ENDMDL
MODEL 4
REMARK VINA RESULT:      -5.8      3.473      6.183
REMARK  4 active torsions:
REMARK  status: ('A' for Active; 'I' for Inactive)
REMARK    1  A    between atoms: C_2  and  C_4 
REMARK    2  A    between atoms: C_9  and  N_10 
REMARK       I    between atoms: N_10  and  C_11 
REMARK       I    between atoms: C_11  and  N_13 
REMARK    3  A    between atoms: N_13  and  C_14 
REMARK    4  A    between atoms: C_17  and  O_18 
ROOT
HETATM    1  N   UNL     1     -41.464 -54.767  14.517  1.00  0.00    -0.288 N 
HETATM    2  C   UNL     1     -42.713 -54.974  15.028  1.00  0.00     0.322 C 
HETATM    3  O   UNL     1     -42.878 -55.775  15.944  1.00  0.00    -0.247 OA
HETATM    4  N   UNL     1     -43.715 -54.198  14.521  1.00  0.00    -0.338 N 
HETATM    5  H   UNL     1     -40.703 -55.239  14.981  1.00  0.00     0.172 HD
HETATM    6  H   UNL     1     -43.512 -53.732  13.643  1.00  0.00     0.164 HD
ENDROOT
BRANCH   1   7
HETATM    7  C   UNL     1     -41.185 -53.905  13.493  1.00  0.00     0.169 A 
HETATM    8  N   UNL     1     -41.098 -54.183  12.213  1.00  0.00    -0.279 N 
HETATM    9  N   UNL     1     -40.864 -53.064  11.458  1.00  0.00    -0.296 N 
ATOM     10  HN  UNL     1     -41.193 -55.122  11.825  1.00  0.00     0.189 HD
HETATM   11  C   UNL     1     -40.795 -51.974  12.196  1.00  0.00     0.073 A 
ATOM     12  HN  UNL     1     -40.757 -53.073  10.444  1.00  0.00     0.187 HD
HETATM   13  S   UNL     1     -40.948 -52.266  13.891  1.00  0.00    -0.037 SA
BRANCH  11  14
HETATM   14  C   UNL     1     -40.605 -50.596  11.635  1.00  0.00     0.036 C 
HETATM   15  C   UNL     1     -41.801 -49.715  11.996  1.00  0.00     0.016 C 
HETATM   16  C   UNL     1     -39.310 -49.981  12.177  1.00  0.00     0.016 C 
ENDBRANCH  11  14
ENDBRANCH   1   7
BRANCH   4  17
HETATM   17  C   UNL     1     -45.094 -54.190  14.975  1.00  0.00     0.086 C 
HETATM   18  C   UNL     1     -46.036 -53.737  13.855  1.00  0.00     0.028 C 
HETATM   19  C   UNL     1     -45.867 -52.254  13.504  1.00  0.00     0.034 C 
HETATM   20  C   UNL     1     -45.940 -51.334  14.724  1.00  0.00     0.118 C 
HETATM   21  C   UNL     1     -45.037 -51.796  15.869  1.00  0.00     0.034 C 
HETATM   22  C   UNL     1     -45.226 -53.280  16.205  1.00  0.00     0.028 C 
BRANCH  20  23
HETATM   23  O   UNL     1     -47.287 -51.235  15.180  1.00  0.00    -0.396 OA
HETATM   24  H   UNL     1     -47.658 -50.387  14.889  1.00  0.00     0.210 HD
ENDBRANCH  20  23
ENDBRANCH   4  17
TORSDOF 4
ENDMDL
MODEL 5
REMARK VINA RESULT:      -5.8      3.486      4.368
REMARK  4 active torsions:
REMARK  status: ('A' for Active; 'I' for Inactive)
REMARK    1  A    between atoms: C_2  and  C_4 
REMARK    2  A    between atoms: C_9  and  N_10 
REMARK       I    between atoms: N_10  and  C_11 
REMARK       I    between atoms: C_11  and  N_13 
REMARK    3  A    between atoms: N_13  and  C_14 
REMARK    4  A    between atoms: C_17  and  O_18 
ROOT
HETATM    1  N   UNL     1     -42.350 -48.736  10.668  1.00  0.00    -0.288 N 
HETATM    2  C   UNL     1     -42.506 -47.419  10.340  1.00  0.00     0.322 C 
HETATM    3  O   UNL     1     -43.604 -46.999   9.985  1.00  0.00    -0.247 OA
HETATM    4  N   UNL     1     -41.415 -46.618  10.507  1.00  0.00    -0.338 N 
HETATM    5  H   UNL     1     -43.187 -49.301  10.675  1.00  0.00     0.172 HD
HETATM    6  H   UNL     1     -40.525 -47.096  10.601  1.00  0.00     0.164 HD
ENDROOT
BRANCH   1   7
HETATM    7  C   UNL     1     -41.168 -49.295  11.064  1.00  0.00     0.169 A 
HETATM    8  N   UNL     1     -40.250 -49.851  10.305  1.00  0.00    -0.279 N 
HETATM    9  N   UNL     1     -39.159 -50.253  11.029  1.00  0.00    -0.296 N 
ATOM     10  HN  UNL     1     -40.339 -49.968   9.296  1.00  0.00     0.189 HD
HETATM   11  C   UNL     1     -39.286 -49.977  12.311  1.00  0.00     0.073 A 
ATOM     12  HN  UNL     1     -38.345 -50.713  10.623  1.00  0.00     0.187 HD
HETATM   13  S   UNL     1     -40.800 -49.255  12.726  1.00  0.00    -0.037 SA
BRANCH  11  14
HETATM   14  C   UNL     1     -38.223 -50.252  13.335  1.00  0.00     0.036 C 
HETATM   15  C   UNL     1     -38.830 -50.976  14.536  1.00  0.00     0.016 C 
HETATM   16  C   UNL     1     -37.103 -51.094  12.716  1.00  0.00     0.016 C 
ENDBRANCH  11  14
ENDBRANCH   1   7
BRANCH   4  17
HETATM   17  C   UNL     1     -41.379 -45.180  10.305  1.00  0.00     0.086 C 
HETATM   18  C   UNL     1     -39.944 -44.650  10.392  1.00  0.00     0.028 C 
HETATM   19  C   UNL     1     -39.371 -44.729  11.812  1.00  0.00     0.034 C 
HETATM   20  C   UNL     1     -40.283 -44.097  12.865  1.00  0.00     0.118 C 
HETATM   21  C   UNL     1     -41.729 -44.582  12.764  1.00  0.00     0.034 C 
HETATM   22  C   UNL     1     -42.283 -44.492  11.337  1.00  0.00     0.028 C 
BRANCH  20  23
HETATM   23  O   UNL     1     -40.241 -42.676  12.757  1.00  0.00    -0.396 OA
HETATM   24  H   UNL     1     -39.854 -42.308  13.568  1.00  0.00     0.210 HD
ENDBRANCH  20  23
ENDBRANCH   4  17
TORSDOF 4
ENDMDL
MODEL 6
REMARK VINA RESULT:      -5.7      2.310      3.299
REMARK  4 active torsions:
REMARK  status: ('A' for Active; 'I' for Inactive)
REMARK    1  A    between atoms: C_2  and  C_4 
REMARK    2  A    between atoms: C_9  and  N_10 
REMARK       I    between atoms: N_10  and  C_11 
REMARK       I    between atoms: C_11  and  N_13 
REMARK    3  A    between atoms: N_13  and  C_14 
REMARK    4  A    between atoms: C_17  and  O_18 
ROOT
HETATM    1  N   UNL     1     -41.247 -53.732  13.418  1.00  0.00    -0.288 N 
HETATM    2  C   UNL     1     -40.137 -52.937  13.398  1.00  0.00     0.322 C 
HETATM    3  O   UNL     1     -39.043 -53.399  13.710  1.00  0.00    -0.247 OA
HETATM    4  N   UNL     1     -40.311 -51.661  12.945  1.00  0.00    -0.338 N 
HETATM    5  H   UNL     1     -41.097 -54.709  13.622  1.00  0.00     0.172 HD
HETATM    6  H   UNL     1     -41.269 -51.329  12.914  1.00  0.00     0.164 HD
ENDROOT
BRANCH   1   7
HETATM    7  C   UNL     1     -42.505 -53.305  13.096  1.00  0.00     0.169 A 
HETATM    8  N   UNL     1     -43.018 -53.159  11.896  1.00  0.00    -0.279 N 
HETATM    9  N   UNL     1     -44.331 -52.772  11.942  1.00  0.00    -0.296 N 
ATOM     10  HN  UNL     1     -42.501 -53.317  11.031  1.00  0.00     0.189 HD
HETATM   11  C   UNL     1     -44.769 -52.649  13.179  1.00  0.00     0.073 A 
ATOM     12  HN  UNL     1     -44.903 -52.598  11.116  1.00  0.00     0.187 HD
HETATM   13  S   UNL     1     -43.562 -52.942  14.380  1.00  0.00    -0.037 SA
BRANCH  11  14
HETATM   14  C   UNL     1     -46.182 -52.293  13.535  1.00  0.00     0.036 C 
HETATM   15  C   UNL     1     -46.199 -51.389  14.767  1.00  0.00     0.016 C 
HETATM   16  C   UNL     1     -46.861 -51.593  12.352  1.00  0.00     0.016 C 
ENDBRANCH  11  14
ENDBRANCH   1   7
BRANCH   4  17
HETATM   17  C   UNL     1     -39.260 -50.676  12.759  1.00  0.00     0.086 C 
HETATM   18  C   UNL     1     -39.146 -49.759  13.981  1.00  0.00     0.028 C 
HETATM   19  C   UNL     1     -40.353 -48.828  14.134  1.00  0.00     0.034 C 
HETATM   20  C   UNL     1     -40.679 -48.048  12.859  1.00  0.00     0.118 C 
HETATM   21  C   UNL     1     -40.754 -48.943  11.621  1.00  0.00     0.034 C 
HETATM   22  C   UNL     1     -39.535 -49.864  11.485  1.00  0.00     0.028 C 
BRANCH  20  23
HETATM   23  O   UNL     1     -39.712 -47.021  12.655  1.00  0.00    -0.396 OA
HETATM   24  H   UNL     1     -39.530 -46.585  13.503  1.00  0.00     0.210 HD
ENDBRANCH  20  23
ENDBRANCH   4  17
TORSDOF 4
ENDMDL
MODEL 7
REMARK VINA RESULT:      -5.6      2.216      3.678
REMARK  4 active torsions:
REMARK  status: ('A' for Active; 'I' for Inactive)
REMARK    1  A    between atoms: C_2  and  C_4 
REMARK    2  A    between atoms: C_9  and  N_10 
REMARK       I    between atoms: N_10  and  C_11 
REMARK       I    between atoms: C_11  and  N_13 
REMARK    3  A    between atoms: N_13  and  C_14 
REMARK    4  A    between atoms: C_17  and  O_18 
ROOT
HETATM    1  N   UNL     1     -42.073 -50.599  11.577  1.00  0.00    -0.288 N 
HETATM    2  C   UNL     1     -41.156 -49.588  11.500  1.00  0.00     0.322 C 
HETATM    3  O   UNL     1     -41.489 -48.487  11.070  1.00  0.00    -0.247 OA
HETATM    4  N   UNL     1     -39.911 -49.857  11.990  1.00  0.00    -0.338 N 
HETATM    5  H   UNL     1     -43.025 -50.362  11.342  1.00  0.00     0.172 HD
HETATM    6  H   UNL     1     -39.691 -50.838  12.123  1.00  0.00     0.164 HD
ENDROOT
BRANCH   1   7
HETATM    7  C   UNL     1     -41.793 -51.857  12.031  1.00  0.00     0.169 A 
HETATM    8  N   UNL     1     -41.200 -52.831  11.379  1.00  0.00    -0.279 N 
HETATM    9  N   UNL     1     -41.025 -53.942  12.161  1.00  0.00    -0.296 N 
ATOM     10  HN  UNL     1     -40.904 -52.768  10.405  1.00  0.00     0.189 HD
HETATM   11  C   UNL     1     -41.482 -53.764  13.384  1.00  0.00     0.073 A 
ATOM     12  HN  UNL     1     -40.590 -54.805  11.836  1.00  0.00     0.187 HD
HETATM   13  S   UNL     1     -42.226 -52.225  13.636  1.00  0.00    -0.037 SA
BRANCH  11  14
HETATM   14  C   UNL     1     -41.374 -54.789  14.475  1.00  0.00     0.036 C 
HETATM   15  C   UNL     1     -40.302 -54.371  15.480  1.00  0.00     0.016 C 
HETATM   16  C   UNL     1     -42.726 -54.953  15.177  1.00  0.00     0.016 C 
ENDBRANCH  11  14
ENDBRANCH   1   7
BRANCH   4  17
HETATM   17  C   UNL     1     -38.815 -48.910  12.087  1.00  0.00     0.086 C 
HETATM   18  C   UNL     1     -37.478 -49.636  12.269  1.00  0.00     0.028 C 
HETATM   19  C   UNL     1     -37.358 -50.318  13.636  1.00  0.00     0.034 C 
HETATM   20  C   UNL     1     -37.667 -49.381  14.806  1.00  0.00     0.118 C 
HETATM   21  C   UNL     1     -38.977 -48.615  14.621  1.00  0.00     0.034 C 
HETATM   22  C   UNL     1     -39.075 -47.939  13.248  1.00  0.00     0.028 C 
BRANCH  20  23
HETATM   23  O   UNL     1     -36.592 -48.463  14.992  1.00  0.00    -0.396 OA
HETATM   24  H   UNL     1     -36.190 -48.618  15.862  1.00  0.00     0.210 HD
ENDBRANCH  20  23
ENDBRANCH   4  17
TORSDOF 4
ENDMDL
MODEL 8
REMARK VINA RESULT:      -5.6      1.794      2.228
REMARK  4 active torsions:
REMARK  status: ('A' for Active; 'I' for Inactive)
REMARK    1  A    between atoms: C_2  and  C_4 
REMARK    2  A    between atoms: C_9  and  N_10 
REMARK       I    between atoms: N_10  and  C_11 
REMARK       I    between atoms: C_11  and  N_13 
REMARK    3  A    between atoms: N_13  and  C_14 
REMARK    4  A    between atoms: C_17  and  O_18 
ROOT
HETATM    1  N   UNL     1     -41.024 -51.900  13.241  1.00  0.00    -0.288 N 
HETATM    2  C   UNL     1     -40.414 -50.698  13.020  1.00  0.00     0.322 C 
HETATM    3  O   UNL     1     -39.243 -50.532  13.349  1.00  0.00    -0.247 OA
HETATM    4  N   UNL     1     -41.148 -49.756  12.359  1.00  0.00    -0.338 N 
HETATM    5  H   UNL     1     -40.442 -52.640  13.606  1.00  0.00     0.172 HD
HETATM    6  H   UNL     1     -42.148 -49.921  12.322  1.00  0.00     0.164 HD
ENDROOT
BRANCH   1   7
HETATM    7  C   UNL     1     -42.323 -52.175  12.918  1.00  0.00     0.169 A 
HETATM    8  N   UNL     1     -42.762 -52.926  11.934  1.00  0.00    -0.279 N 
HETATM    9  N   UNL     1     -44.128 -53.034  11.939  1.00  0.00    -0.296 N 
ATOM     10  HN  UNL     1     -42.158 -53.375  11.246  1.00  0.00     0.189 HD
HETATM   11  C   UNL     1     -44.673 -52.370  12.938  1.00  0.00     0.073 A 
ATOM     12  HN  UNL     1     -44.659 -53.568  11.252  1.00  0.00     0.187 HD
HETATM   13  S   UNL     1     -43.535 -51.504  13.907  1.00  0.00    -0.037 SA
BRANCH  11  14
HETATM   14  C   UNL     1     -46.146 -52.356  13.227  1.00  0.00     0.036 C 
HETATM   15  C   UNL     1     -46.433 -51.460  14.432  1.00  0.00     0.016 C 
HETATM   16  C   UNL     1     -46.918 -51.860  12.000  1.00  0.00     0.016 C 
ENDBRANCH  11  14
ENDBRANCH   1   7
BRANCH   4  17
HETATM   17  C   UNL     1     -40.674 -48.448  11.944  1.00  0.00     0.086 C 
HETATM   18  C   UNL     1     -40.861 -47.418  13.063  1.00  0.00     0.028 C 
HETATM   19  C   UNL     1     -42.336 -47.091  13.323  1.00  0.00     0.034 C 
HETATM   20  C   UNL     1     -43.101 -46.709  12.054  1.00  0.00     0.118 C 
HETATM   21  C   UNL     1     -42.890 -47.704  10.913  1.00  0.00     0.034 C 
HETATM   22  C   UNL     1     -41.409 -48.014  10.668  1.00  0.00     0.028 C 
BRANCH  20  23
HETATM   23  O   UNL     1     -42.722 -45.401  11.632  1.00  0.00    -0.396 OA
HETATM   24  H   UNL     1     -42.651 -45.390  10.664  1.00  0.00     0.210 HD
ENDBRANCH  20  23
ENDBRANCH   4  17
TORSDOF 4
ENDMDL
MODEL 9
REMARK VINA RESULT:      -5.1      2.649      3.283
REMARK  4 active torsions:
REMARK  status: ('A' for Active; 'I' for Inactive)
REMARK    1  A    between atoms: C_2  and  C_4 
REMARK    2  A    between atoms: C_9  and  N_10 
REMARK       I    between atoms: N_10  and  C_11 
REMARK       I    between atoms: C_11  and  N_13 
REMARK    3  A    between atoms: N_13  and  C_14 
REMARK    4  A    between atoms: C_17  and  O_18 
ROOT
HETATM    1  N   UNL     1     -41.150 -52.589  14.339  1.00  0.00    -0.288 N 
HETATM    2  C   UNL     1     -40.143 -52.066  13.578  1.00  0.00     0.322 C 
HETATM    3  O   UNL     1     -39.062 -52.643  13.508  1.00  0.00    -0.247 OA
HETATM    4  N   UNL     1     -40.441 -50.941  12.866  1.00  0.00    -0.338 N 
HETATM    5  H   UNL     1     -40.976 -53.491  14.757  1.00  0.00     0.172 HD
HETATM    6  H   UNL     1     -41.276 -50.442  13.154  1.00  0.00     0.164 HD
ENDROOT
BRANCH   1   7
HETATM    7  C   UNL     1     -42.382 -52.015  14.485  1.00  0.00     0.169 A 
HETATM    8  N   UNL     1     -42.698 -50.972  15.219  1.00  0.00    -0.279 N 
HETATM    9  N   UNL     1     -44.016 -50.628  15.082  1.00  0.00    -0.296 N 
ATOM     10  HN  UNL     1     -42.039 -50.477  15.820  1.00  0.00     0.189 HD
HETATM   11  C   UNL     1     -44.650 -51.417  14.238  1.00  0.00     0.073 A 
ATOM     12  HN  UNL     1     -44.456 -49.851  15.576  1.00  0.00     0.187 HD
HETATM   13  S   UNL     1     -43.671 -52.689  13.601  1.00  0.00    -0.037 SA
BRANCH  11  14
HETATM   14  C   UNL     1     -46.088 -51.242  13.849  1.00  0.00     0.036 C 
HETATM   15  C   UNL     1     -46.405 -52.094  12.620  1.00  0.00     0.016 C 
HETATM   16  C   UNL     1     -47.000 -51.634  15.017  1.00  0.00     0.016 C 
ENDBRANCH  11  14
ENDBRANCH   1   7
BRANCH   4  17
HETATM   17  C   UNL     1     -39.555 -50.269  11.931  1.00  0.00     0.086 C 
HETATM   18  C   UNL     1     -38.820 -49.109  12.611  1.00  0.00     0.028 C 
HETATM   19  C   UNL     1     -39.754 -47.947  12.967  1.00  0.00     0.034 C 
HETATM   20  C   UNL     1     -40.607 -47.476  11.788  1.00  0.00     0.118 C 
HETATM   21  C   UNL     1     -41.314 -48.627  11.071  1.00  0.00     0.034 C 
HETATM   22  C   UNL     1     -40.361 -49.776  10.721  1.00  0.00     0.028 C 
BRANCH  20  23
HETATM   23  O   UNL     1     -39.801 -46.751  10.862  1.00  0.00    -0.396 OA
HETATM   24  H   UNL     1     -38.869 -46.837  11.119  1.00  0.00     0.210 HD
ENDBRANCH  20  23
ENDBRANCH   4  17
TORSDOF 4
ENDMDL
