MODEL 1
REMARK VINA RESULT:      -6.2      0.000      0.000
REMARK  4 active torsions:
REMARK  status: ('A' for Active; 'I' for Inactive)
REMARK    1  A    between atoms: C_2  and  C_3 
REMARK    2  A    between atoms: C_2  and  C_14 
REMARK    3  A    between atoms: C_3  and  N_4 
REMARK       I    between atoms: N_4  and  C_5 
REMARK       I    between atoms: C_5  and  N_7 
REMARK    4  A    between atoms: N_7  and  C_8 
ROOT
HETATM    1  N   UNL     1     -41.856 -50.812  11.639  1.00  0.00    -0.342 N 
HETATM    2  C   UNL     1     -42.220 -51.541  12.741  1.00  0.00     0.316 C 
HETATM    3  O   UNL     1     -41.514 -51.669  13.732  1.00  0.00    -0.247 OA
HETATM    4  N   UNL     1     -43.497 -52.029  12.645  1.00  0.00    -0.336 N 
HETATM    5  H   UNL     1     -42.243 -51.099  10.747  1.00  0.00     0.164 HD
HETATM    6  H   UNL     1     -43.849 -52.162  11.711  1.00  0.00     0.164 HD
ENDROOT
BRANCH   1   7
HETATM    7  C   UNL     1     -40.529 -50.218  11.597  1.00  0.00     0.135 C 
BRANCH   7   8
HETATM    8  C   UNL     1     -40.514 -48.684  11.554  1.00  0.00     0.057 C 
HETATM    9  C   UNL     1     -40.435 -48.061  12.948  1.00  0.00     0.018 C 
BRANCH   8  10
HETATM   10  C   UNL     1     -41.713 -48.158  10.805  1.00  0.00     0.056 A 
HETATM   11  N   UNL     1     -41.888 -48.270   9.502  1.00  0.00    -0.357 N 
HETATM   12  C   UNL     1     -43.098 -47.700   9.137  1.00  0.00     0.012 A 
ATOM     13  HN  UNL     1     -41.230 -48.710   8.859  1.00  0.00     0.166 HD
HETATM   14  C   UNL     1     -43.513 -47.736   7.712  1.00  0.00     0.068 C 
HETATM   15  C   UNL     1     -43.817 -47.145  10.178  1.00  0.00     0.076 A 
HETATM   16  S   UNL     1     -42.971 -47.345  11.652  1.00  0.00    -0.086 SA
ENDBRANCH   8  10
ENDBRANCH   7   8
ENDBRANCH   1   7
BRANCH   4  17
HETATM   17  C   UNL     1     -44.041 -52.850  13.713  1.00  0.00     0.116 C 
HETATM   18  C   UNL     1     -44.351 -54.271  13.267  1.00  0.00     0.054 C 
HETATM   19  C   UNL     1     -45.672 -54.620  13.924  1.00  0.00     0.170 C 
HETATM   20  O   UNL     1     -45.996 -53.566  14.833  1.00  0.00    -0.384 OA
HETATM   21  C   UNL     1     -45.351 -52.368  14.358  1.00  0.00     0.140 C 
HETATM   22  C   UNL     1     -46.321 -51.638  13.433  1.00  0.00     0.041 C 
ENDBRANCH   4  17
TORSDOF 4
ENDMDL
MODEL 2
REMARK VINA RESULT:      -5.9      1.650      1.900
REMARK  4 active torsions:
REMARK  status: ('A' for Active; 'I' for Inactive)
REMARK    1  A    between atoms: C_2  and  C_3 
REMARK    2  A    between atoms: C_2  and  C_14 
REMARK    3  A    between atoms: C_3  and  N_4 
REMARK       I    between atoms: N_4  and  C_5 
REMARK       I    between atoms: C_5  and  N_7 
REMARK    4  A    between atoms: N_7  and  C_8 
ROOT
HETATM    1  N   UNL     1     -43.732 -49.904  12.350  1.00  0.00    -0.342 N 
HETATM    2  C   UNL     1     -43.579 -50.936  13.240  1.00  0.00     0.316 C 
HETATM    3  O   UNL     1     -42.782 -50.918  14.167  1.00  0.00    -0.247 OA
HETATM    4  N   UNL     1     -44.483 -51.944  13.029  1.00  0.00    -0.336 N 
HETATM    5  H   UNL     1     -44.045 -50.144  11.416  1.00  0.00     0.164 HD
HETATM    6  H   UNL     1     -44.842 -52.026  12.093  1.00  0.00     0.164 HD
ENDROOT
BRANCH   1   7
HETATM    7  C   UNL     1     -42.851 -48.753  12.452  1.00  0.00     0.135 C 
BRANCH   7   8
HETATM    8  C   UNL     1     -42.254 -48.282  11.119  1.00  0.00     0.057 C 
HETATM    9  C   UNL     1     -41.004 -47.421  11.309  1.00  0.00     0.018 C 
BRANCH   8  10
HETATM   10  C   UNL     1     -43.284 -47.545  10.301  1.00  0.00     0.056 A 
HETATM   11  N   UNL     1     -44.521 -47.962  10.109  1.00  0.00    -0.357 N 
HETATM   12  C   UNL     1     -45.213 -47.047   9.330  1.00  0.00     0.012 A 
ATOM     13  HN  UNL     1     -44.912 -48.830  10.478  1.00  0.00     0.166 HD
HETATM   14  C   UNL     1     -46.639 -47.304   9.008  1.00  0.00     0.068 C 
HETATM   15  C   UNL     1     -44.474 -45.952   8.926  1.00  0.00     0.076 A 
HETATM   16  S   UNL     1     -42.880 -46.056   9.540  1.00  0.00    -0.086 SA
ENDBRANCH   8  10
ENDBRANCH   7   8
ENDBRANCH   1   7
BRANCH   4  17
HETATM   17  C   UNL     1     -44.449 -53.134  13.864  1.00  0.00     0.116 C 
HETATM   18  C   UNL     1     -44.710 -54.412  13.082  1.00  0.00     0.054 C 
HETATM   19  C   UNL     1     -45.609 -55.250  13.970  1.00  0.00     0.170 C 
HETATM   20  O   UNL     1     -45.694 -54.599  15.239  1.00  0.00    -0.384 OA
HETATM   21  C   UNL     1     -45.456 -53.194  15.024  1.00  0.00     0.140 C 
HETATM   22  C   UNL     1     -46.801 -52.515  14.776  1.00  0.00     0.041 C 
ENDBRANCH   4  17
TORSDOF 4
ENDMDL
MODEL 3
REMARK VINA RESULT:      -5.8      1.996      2.569
REMARK  4 active torsions:
REMARK  status: ('A' for Active; 'I' for Inactive)
REMARK    1  A    between atoms: C_2  and  C_3 
REMARK    2  A    between atoms: C_2  and  C_14 
REMARK    3  A    between atoms: C_3  and  N_4 
REMARK       I    between atoms: N_4  and  C_5 
REMARK       I    between atoms: C_5  and  N_7 
REMARK    4  A    between atoms: N_7  and  C_8 
ROOT
HETATM    1  N   UNL     1     -40.413 -51.285  13.557  1.00  0.00    -0.342 N 
HETATM    2  C   UNL     1     -40.879 -52.556  13.345  1.00  0.00     0.316 C 
HETATM    3  O   UNL     1     -40.191 -53.466  12.903  1.00  0.00    -0.247 OA
HETATM    4  N   UNL     1     -42.172 -52.715  13.771  1.00  0.00    -0.336 N 
HETATM    5  H   UNL     1     -41.086 -50.530  13.489  1.00  0.00     0.164 HD
HETATM    6  H   UNL     1     -42.734 -51.880  13.794  1.00  0.00     0.164 HD
ENDROOT
BRANCH   1   7
HETATM    7  C   UNL     1     -39.050 -50.963  13.166  1.00  0.00     0.135 C 
BRANCH   7   8
HETATM    8  C   UNL     1     -38.905 -50.413  11.740  1.00  0.00     0.057 C 
HETATM    9  C   UNL     1     -37.467 -50.008  11.414  1.00  0.00     0.018 C 
BRANCH   8  10
HETATM   10  C   UNL     1     -39.846 -49.257  11.515  1.00  0.00     0.056 A 
HETATM   11  N   UNL     1     -40.816 -49.248  10.621  1.00  0.00    -0.357 N 
HETATM   12  C   UNL     1     -41.505 -48.046  10.684  1.00  0.00     0.012 A 
ATOM     13  HN  UNL     1     -41.028 -50.011   9.978  1.00  0.00     0.166 HD
HETATM   14  C   UNL     1     -42.661 -47.827   9.778  1.00  0.00     0.068 C 
HETATM   15  C   UNL     1     -41.026 -47.150  11.620  1.00  0.00     0.076 A 
HETATM   16  S   UNL     1     -39.692 -47.823  12.453  1.00  0.00    -0.086 SA
ENDBRANCH   8  10
ENDBRANCH   7   8
ENDBRANCH   1   7
BRANCH   4  17
HETATM   17  C   UNL     1     -42.840 -53.995  13.599  1.00  0.00     0.116 C 
HETATM   18  C   UNL     1     -44.168 -53.875  12.867  1.00  0.00     0.054 C 
HETATM   19  C   UNL     1     -45.113 -54.814  13.592  1.00  0.00     0.170 C 
HETATM   20  O   UNL     1     -44.342 -55.562  14.533  1.00  0.00    -0.384 OA
HETATM   21  C   UNL     1     -43.189 -54.771  14.879  1.00  0.00     0.140 C 
HETATM   22  C   UNL     1     -43.540 -53.923  16.100  1.00  0.00     0.041 C 
ENDBRANCH   4  17
TORSDOF 4
ENDMDL
MODEL 4
REMARK VINA RESULT:      -5.7      2.813      6.543
REMARK  4 active torsions:
REMARK  status: ('A' for Active; 'I' for Inactive)
REMARK    1  A    between atoms: C_2  and  C_3 
REMARK    2  A    between atoms: C_2  and  C_14 
REMARK    3  A    between atoms: C_3  and  N_4 
REMARK       I    between atoms: N_4  and  C_5 
REMARK       I    between atoms: C_5  and  N_7 
REMARK    4  A    between atoms: N_7  and  C_8 
ROOT
HETATM    1  N   UNL     1     -42.175 -50.796  12.034  1.00  0.00    -0.342 N 
HETATM    2  C   UNL     1     -41.602 -49.714  11.417  1.00  0.00     0.316 C 
HETATM    3  O   UNL     1     -40.403 -49.616  11.196  1.00  0.00    -0.247 OA
HETATM    4  N   UNL     1     -42.534 -48.802  10.993  1.00  0.00    -0.336 N 
HETATM    5  H   UNL     1     -43.026 -50.630  12.560  1.00  0.00     0.164 HD
HETATM    6  H   UNL     1     -43.406 -48.797  11.495  1.00  0.00     0.164 HD
ENDROOT
BRANCH   1   7
HETATM    7  C   UNL     1     -41.315 -51.857  12.530  1.00  0.00     0.135 C 
BRANCH   7   8
HETATM    8  C   UNL     1     -41.872 -52.622  13.739  1.00  0.00     0.057 C 
HETATM    9  C   UNL     1     -41.288 -54.029  13.861  1.00  0.00     0.018 C 
BRANCH   8  10
HETATM   10  C   UNL     1     -43.378 -52.676  13.690  1.00  0.00     0.056 A 
HETATM   11  N   UNL     1     -44.176 -51.898  14.397  1.00  0.00    -0.357 N 
HETATM   12  C   UNL     1     -45.500 -52.190  14.104  1.00  0.00     0.012 A 
ATOM     13  HN  UNL     1     -43.866 -51.188  15.060  1.00  0.00     0.166 HD
HETATM   14  C   UNL     1     -46.575 -51.412  14.771  1.00  0.00     0.068 C 
HETATM   15  C   UNL     1     -45.682 -53.206  13.187  1.00  0.00     0.076 A 
HETATM   16  S   UNL     1     -44.169 -53.809  12.665  1.00  0.00    -0.086 SA
ENDBRANCH   8  10
ENDBRANCH   7   8
ENDBRANCH   1   7
BRANCH   4  17
HETATM   17  C   UNL     1     -42.103 -47.576  10.341  1.00  0.00     0.116 C 
HETATM   18  C   UNL     1     -41.912 -46.424  11.315  1.00  0.00     0.054 C 
HETATM   19  C   UNL     1     -42.479 -45.206  10.613  1.00  0.00     0.170 C 
HETATM   20  O   UNL     1     -42.785 -45.583   9.269  1.00  0.00    -0.384 OA
HETATM   21  C   UNL     1     -43.036 -47.002   9.262  1.00  0.00     0.140 C 
HETATM   22  C   UNL     1     -44.531 -47.224   9.485  1.00  0.00     0.041 C 
ENDBRANCH   4  17
TORSDOF 4
ENDMDL
MODEL 5
REMARK VINA RESULT:      -5.2      1.609      2.002
REMARK  4 active torsions:
REMARK  status: ('A' for Active; 'I' for Inactive)
REMARK    1  A    between atoms: C_2  and  C_3 
REMARK    2  A    between atoms: C_2  and  C_14 
REMARK    3  A    between atoms: C_3  and  N_4 
REMARK       I    between atoms: N_4  and  C_5 
REMARK       I    between atoms: C_5  and  N_7 
REMARK    4  A    between atoms: N_7  and  C_8 
ROOT
HETATM    1  N   UNL     1     -41.909 -51.169  12.490  1.00  0.00    -0.342 N 
HETATM    2  C   UNL     1     -42.719 -51.561  13.523  1.00  0.00     0.316 C 
HETATM    3  O   UNL     1     -42.759 -50.994  14.607  1.00  0.00    -0.247 OA
HETATM    4  N   UNL     1     -43.544 -52.599  13.174  1.00  0.00    -0.336 N 
HETATM    5  H   UNL     1     -41.605 -51.888  11.844  1.00  0.00     0.164 HD
HETATM    6  H   UNL     1     -43.217 -53.190  12.428  1.00  0.00     0.164 HD
ENDROOT
BRANCH   1   7
HETATM    7  C   UNL     1     -40.983 -50.069  12.703  1.00  0.00     0.135 C 
BRANCH   7   8
HETATM    8  C   UNL     1     -40.235 -49.607  11.444  1.00  0.00     0.057 C 
HETATM    9  C   UNL     1     -38.717 -49.708  11.595  1.00  0.00     0.018 C 
BRANCH   8  10
HETATM   10  C   UNL     1     -40.638 -48.203  11.069  1.00  0.00     0.056 A 
HETATM   11  N   UNL     1     -39.812 -47.175  11.028  1.00  0.00    -0.357 N 
HETATM   12  C   UNL     1     -40.494 -46.036  10.628  1.00  0.00     0.012 A 
ATOM     13  HN  UNL     1     -38.818 -47.213  11.256  1.00  0.00     0.166 HD
HETATM   14  C   UNL     1     -39.749 -44.759  10.488  1.00  0.00     0.068 C 
HETATM   15  C   UNL     1     -41.843 -46.220  10.390  1.00  0.00     0.076 A 
HETATM   16  S   UNL     1     -42.272 -47.854  10.659  1.00  0.00    -0.086 SA
ENDBRANCH   8  10
ENDBRANCH   7   8
ENDBRANCH   1   7
BRANCH   4  17
HETATM   17  C   UNL     1     -44.453 -53.164  14.158  1.00  0.00     0.116 C 
HETATM   18  C   UNL     1     -44.661 -54.660  13.980  1.00  0.00     0.054 C 
HETATM   19  C   UNL     1     -46.140 -54.892  14.214  1.00  0.00     0.170 C 
HETATM   20  O   UNL     1     -46.702 -53.666  14.686  1.00  0.00    -0.384 OA
HETATM   21  C   UNL     1     -45.880 -52.591  14.190  1.00  0.00     0.140 C 
HETATM   22  C   UNL     1     -46.448 -52.136  12.847  1.00  0.00     0.041 C 
ENDBRANCH   4  17
TORSDOF 4
ENDMDL
MODEL 6
REMARK VINA RESULT:      -5.2      2.694      3.417
REMARK  4 active torsions:
REMARK  status: ('A' for Active; 'I' for Inactive)
REMARK    1  A    between atoms: C_2  and  C_3 
REMARK    2  A    between atoms: C_2  and  C_14 
REMARK    3  A    between atoms: C_3  and  N_4 
REMARK       I    between atoms: N_4  and  C_5 
REMARK       I    between atoms: C_5  and  N_7 
REMARK    4  A    between atoms: N_7  and  C_8 
ROOT
HETATM    1  N   UNL     1     -40.133 -51.440  13.700  1.00  0.00    -0.342 N 
HETATM    2  C   UNL     1     -40.685 -52.660  13.409  1.00  0.00     0.316 C 
HETATM    3  O   UNL     1     -40.100 -53.539  12.792  1.00  0.00    -0.247 OA
HETATM    4  N   UNL     1     -41.927 -52.817  13.968  1.00  0.00    -0.336 N 
HETATM    5  H   UNL     1     -40.769 -50.657  13.796  1.00  0.00     0.164 HD
HETATM    6  H   UNL     1     -42.439 -51.970  14.150  1.00  0.00     0.164 HD
ENDROOT
BRANCH   1   7
HETATM    7  C   UNL     1     -38.810 -51.128  13.184  1.00  0.00     0.135 C 
BRANCH   7   8
HETATM    8  C   UNL     1     -38.804 -50.281  11.904  1.00  0.00     0.057 C 
HETATM    9  C   UNL     1     -37.398 -50.097  11.332  1.00  0.00     0.018 C 
BRANCH   8  10
HETATM   10  C   UNL     1     -39.457 -48.944  12.145  1.00  0.00     0.056 A 
HETATM   11  N   UNL     1     -38.977 -48.011  12.944  1.00  0.00    -0.357 N 
HETATM   12  C   UNL     1     -39.806 -46.899  12.925  1.00  0.00     0.012 A 
ATOM     13  HN  UNL     1     -38.122 -48.095  13.495  1.00  0.00     0.166 HD
HETATM   14  C   UNL     1     -39.441 -45.712  13.738  1.00  0.00     0.068 C 
HETATM   15  C   UNL     1     -40.921 -47.020  12.118  1.00  0.00     0.076 A 
HETATM   16  S   UNL     1     -40.934 -48.550  11.354  1.00  0.00    -0.086 SA
ENDBRANCH   8  10
ENDBRANCH   7   8
ENDBRANCH   1   7
BRANCH   4  17
HETATM   17  C   UNL     1     -42.675 -54.042  13.740  1.00  0.00     0.116 C 
HETATM   18  C   UNL     1     -43.938 -53.821  12.922  1.00  0.00     0.054 C 
HETATM   19  C   UNL     1     -44.996 -54.689  13.574  1.00  0.00     0.170 C 
HETATM   20  O   UNL     1     -44.349 -55.497  14.558  1.00  0.00    -0.384 OA
HETATM   21  C   UNL     1     -43.166 -54.795  14.988  1.00  0.00     0.140 C 
HETATM   22  C   UNL     1     -43.535 -53.928  16.189  1.00  0.00     0.041 C 
ENDBRANCH   4  17
TORSDOF 4
ENDMDL
MODEL 7
REMARK VINA RESULT:      -5.2      2.254      2.813
REMARK  4 active torsions:
REMARK  status: ('A' for Active; 'I' for Inactive)
REMARK    1  A    between atoms: C_2  and  C_3 
REMARK    2  A    between atoms: C_2  and  C_14 
REMARK    3  A    between atoms: C_3  and  N_4 
REMARK       I    between atoms: N_4  and  C_5 
REMARK       I    between atoms: C_5  and  N_7 
REMARK    4  A    between atoms: N_7  and  C_8 
ROOT
HETATM    1  N   UNL     1     -42.287 -49.493  13.358  1.00  0.00    -0.342 N 
HETATM    2  C   UNL     1     -43.112 -50.560  13.603  1.00  0.00     0.316 C 
HETATM    3  O   UNL     1     -44.268 -50.627  13.206  1.00  0.00    -0.247 OA
HETATM    4  N   UNL     1     -42.469 -51.578  14.257  1.00  0.00    -0.336 N 
HETATM    5  H   UNL     1     -41.563 -49.305  14.043  1.00  0.00     0.164 HD
HETATM    6  H   UNL     1     -41.675 -51.311  14.815  1.00  0.00     0.164 HD
ENDROOT
BRANCH   1   7
HETATM    7  C   UNL     1     -42.823 -48.337  12.660  1.00  0.00     0.135 C 
BRANCH   7   8
HETATM    8  C   UNL     1     -42.323 -48.169  11.218  1.00  0.00     0.057 C 
HETATM    9  C   UNL     1     -41.029 -47.359  11.139  1.00  0.00     0.018 C 
BRANCH   8  10
HETATM   10  C   UNL     1     -43.389 -47.551  10.351  1.00  0.00     0.056 A 
HETATM   11  N   UNL     1     -44.602 -48.045  10.192  1.00  0.00    -0.357 N 
HETATM   12  C   UNL     1     -45.339 -47.227   9.349  1.00  0.00     0.012 A 
ATOM     13  HN  UNL     1     -44.947 -48.902  10.626  1.00  0.00     0.166 HD
HETATM   14  C   UNL     1     -46.750 -47.582   9.050  1.00  0.00     0.068 C 
HETATM   15  C   UNL     1     -44.658 -46.128   8.864  1.00  0.00     0.076 A 
HETATM   16  S   UNL     1     -43.062 -46.103   9.481  1.00  0.00    -0.086 SA
ENDBRANCH   8  10
ENDBRANCH   7   8
ENDBRANCH   1   7
BRANCH   4  17
HETATM   17  C   UNL     1     -43.200 -52.780  14.624  1.00  0.00     0.116 C 
HETATM   18  C   UNL     1     -42.924 -53.228  16.051  1.00  0.00     0.054 C 
HETATM   19  C   UNL     1     -42.810 -54.739  15.983  1.00  0.00     0.170 C 
HETATM   20  O   UNL     1     -43.190 -55.143  14.666  1.00  0.00    -0.384 OA
HETATM   21  C   UNL     1     -42.932 -54.037  13.779  1.00  0.00     0.140 C 
HETATM   22  C   UNL     1     -41.515 -54.183  13.231  1.00  0.00     0.041 C 
ENDBRANCH   4  17
TORSDOF 4
ENDMDL
MODEL 8
REMARK VINA RESULT:      -5.0      2.667      6.228
REMARK  4 active torsions:
REMARK  status: ('A' for Active; 'I' for Inactive)
REMARK    1  A    between atoms: C_2  and  C_3 
REMARK    2  A    between atoms: C_2  and  C_14 
REMARK    3  A    between atoms: C_3  and  N_4 
REMARK       I    between atoms: N_4  and  C_5 
REMARK       I    between atoms: C_5  and  N_7 
REMARK    4  A    between atoms: N_7  and  C_8 
ROOT
HETATM    1  N   UNL     1     -41.809 -51.846  13.940  1.00  0.00    -0.342 N 
HETATM    2  C   UNL     1     -41.473 -51.253  12.750  1.00  0.00     0.316 C 
HETATM    3  O   UNL     1     -41.502 -51.832  11.673  1.00  0.00    -0.247 OA
HETATM    4  N   UNL     1     -41.195 -49.919  12.893  1.00  0.00    -0.336 N 
HETATM    5  H   UNL     1     -41.360 -51.489  14.775  1.00  0.00     0.164 HD
HETATM    6  H   UNL     1     -40.876 -49.630  13.802  1.00  0.00     0.164 HD
ENDROOT
BRANCH   1   7
HETATM    7  C   UNL     1     -42.142 -53.261  13.950  1.00  0.00     0.135 C 
BRANCH   7   8
HETATM    8  C   UNL     1     -43.376 -53.624  14.787  1.00  0.00     0.057 C 
HETATM    9  C   UNL     1     -43.678 -55.122  14.764  1.00  0.00     0.018 C 
BRANCH   8  10
HETATM   10  C   UNL     1     -44.579 -52.834  14.336  1.00  0.00     0.056 A 
HETATM   11  N   UNL     1     -45.047 -52.827  13.102  1.00  0.00    -0.357 N 
HETATM   12  C   UNL     1     -46.171 -52.017  13.028  1.00  0.00     0.012 A 
ATOM     13  HN  UNL     1     -44.643 -53.341  12.319  1.00  0.00     0.166 HD
HETATM   14  C   UNL     1     -46.880 -51.882  11.731  1.00  0.00     0.068 C 
HETATM   15  C   UNL     1     -46.524 -51.403  14.215  1.00  0.00     0.076 A 
HETATM   16  S   UNL     1     -45.439 -51.854  15.458  1.00  0.00    -0.086 SA
ENDBRANCH   8  10
ENDBRANCH   7   8
ENDBRANCH   1   7
BRANCH   4  17
HETATM   17  C   UNL     1     -40.793 -49.135  11.736  1.00  0.00     0.116 C 
HETATM   18  C   UNL     1     -39.787 -48.047  12.081  1.00  0.00     0.054 C 
HETATM   19  C   UNL     1     -40.215 -46.835  11.277  1.00  0.00     0.170 C 
HETATM   20  O   UNL     1     -41.256 -47.248  10.391  1.00  0.00    -0.384 OA
HETATM   21  C   UNL     1     -41.907 -48.388  10.985  1.00  0.00     0.140 C 
HETATM   22  C   UNL     1     -43.067 -47.884  11.840  1.00  0.00     0.041 C 
ENDBRANCH   4  17
TORSDOF 4
ENDMDL
MODEL 9
REMARK VINA RESULT:      -4.9      2.110      2.590
REMARK  4 active torsions:
REMARK  status: ('A' for Active; 'I' for Inactive)
REMARK    1  A    between atoms: C_2  and  C_3 
REMARK    2  A    between atoms: C_2  and  C_14 
REMARK    3  A    between atoms: C_3  and  N_4 
REMARK       I    between atoms: N_4  and  C_5 
REMARK       I    between atoms: C_5  and  N_7 
REMARK    4  A    between atoms: N_7  and  C_8 
ROOT
HETATM    1  N   UNL     1     -42.737 -48.799  14.405  1.00  0.00    -0.342 N 
HETATM    2  C   UNL     1     -43.406 -49.763  13.696  1.00  0.00     0.316 C 
HETATM    3  O   UNL     1     -43.150 -50.051  12.535  1.00  0.00    -0.247 OA
HETATM    4  N   UNL     1     -44.326 -50.430  14.463  1.00  0.00    -0.336 N 
HETATM    5  H   UNL     1     -43.252 -48.326  15.139  1.00  0.00     0.164 HD
HETATM    6  H   UNL     1     -44.690 -49.924  15.253  1.00  0.00     0.164 HD
ENDROOT
BRANCH   1   7
HETATM    7  C   UNL     1     -41.719 -48.012  13.729  1.00  0.00     0.135 C 
BRANCH   7   8
HETATM    8  C   UNL     1     -42.175 -46.612  13.294  1.00  0.00     0.057 C 
HETATM    9  C   UNL     1     -43.299 -46.064  14.172  1.00  0.00     0.018 C 
BRANCH   8  10
HETATM   10  C   UNL     1     -42.587 -46.612  11.844  1.00  0.00     0.056 A 
HETATM   11  N   UNL     1     -43.700 -47.151  11.384  1.00  0.00    -0.357 N 
HETATM   12  C   UNL     1     -43.787 -46.961  10.013  1.00  0.00     0.012 A 
ATOM     13  HN  UNL     1     -44.395 -47.636  11.953  1.00  0.00     0.166 HD
HETATM   14  C   UNL     1     -44.978 -47.467   9.287  1.00  0.00     0.068 C 
HETATM   15  C   UNL     1     -42.717 -46.291   9.450  1.00  0.00     0.076 A 
HETATM   16  S   UNL     1     -41.579 -45.877  10.659  1.00  0.00    -0.086 SA
ENDBRANCH   8  10
ENDBRANCH   7   8
ENDBRANCH   1   7
BRANCH   4  17
HETATM   17  C   UNL     1     -45.150 -51.469  13.867  1.00  0.00     0.116 C 
HETATM   18  C   UNL     1     -46.559 -51.506  14.438  1.00  0.00     0.054 C 
HETATM   19  C   UNL     1     -46.890 -52.977  14.596  1.00  0.00     0.170 C 
HETATM   20  O   UNL     1     -45.841 -53.726  13.980  1.00  0.00    -0.384 OA
HETATM   21  C   UNL     1     -44.650 -52.916  14.013  1.00  0.00     0.140 C 
HETATM   22  C   UNL     1     -43.891 -53.234  15.299  1.00  0.00     0.041 C 
ENDBRANCH   4  17
TORSDOF 4
ENDMDL
