MODEL 1
REMARK VINA RESULT:      -6.5      0.000      0.000
REMARK  5 active torsions:
REMARK  status: ('A' for Active; 'I' for Inactive)
REMARK    1  A    between atoms: O_2  and  C_3 
REMARK    2  A    between atoms: C_7  and  C_9 
REMARK    3  A    between atoms: C_9  and  O_10 
REMARK    4  A    between atoms: C_9  and  C_11 
REMARK    5  A    between atoms: C_11  and  N_12 
ROOT
HETATM    1  N   UNL     1     -43.854 -53.298  12.859  1.00  0.00    -0.284 N 
HETATM    2  N   UNL     1     -43.205 -52.622  11.871  1.00  0.00    -0.308 N 
ATOM      3  HN  UNL     1     -43.609 -52.156  11.058  1.00  0.00     0.186 HD
HETATM    4  C   UNL     1     -41.914 -52.709  12.214  1.00  0.00     0.122 A 
HETATM    5  C   UNL     1     -41.732 -53.480  13.366  1.00  0.00     0.032 A 
HETATM    6  C   UNL     1     -40.597 -53.907  14.124  1.00  0.00     0.122 A 
HETATM    7  N   UNL     1     -40.749 -54.673  15.167  1.00  0.00    -0.306 N 
ATOM      8  HN  UNL     1     -39.938 -54.977  15.705  1.00  0.00     0.186 HD
HETATM    9  N   UNL     1     -42.040 -55.078  15.544  1.00  0.00    -0.261 N 
HETATM   10  C   UNL     1     -42.136 -55.942  16.703  1.00  0.00     0.181 C 
HETATM   11  C   UNL     1     -43.228 -54.711  14.879  1.00  0.00     0.290 A 
HETATM   12  O   UNL     1     -44.344 -55.085  15.227  1.00  0.00    -0.264 OA
HETATM   13  C   UNL     1     -42.991 -53.867  13.748  1.00  0.00     0.133 A 
ENDROOT
BRANCH   1  14
HETATM   14  C   UNL     1     -45.304 -53.405  12.837  1.00  0.00     0.186 C 
BRANCH  14  15
HETATM   15  C   UNL     1     -46.056 -52.095  13.134  1.00  0.00     0.171 C 
BRANCH  15  16
HETATM   16  C   UNL     1     -46.102 -51.616  14.577  1.00  0.00    -0.025 A 
HETATM   17  C   UNL     1     -44.986 -50.967  15.132  1.00  0.00     0.010 A 
HETATM   18  C   UNL     1     -45.005 -50.493  16.445  1.00  0.00     0.003 A 
HETATM   19  C   UNL     1     -46.153 -50.635  17.223  1.00  0.00     0.037 A 
HETATM   20  C   UNL     1     -47.285 -51.240  16.682  1.00  0.00     0.068 A 
HETATM   21  C   UNL     1     -47.254 -51.735  15.373  1.00  0.00     0.046 A 
BRANCH  20  22
HETATM   22  O   UNL     1     -48.466 -51.433  17.347  1.00  0.00    -0.356 OA
HETATM   23  C   UNL     1     -48.362 -51.489  18.765  1.00  0.00     0.210 C 
ENDBRANCH  20  22
ENDBRANCH  15  16
BRANCH  15  24
HETATM   24  O   UNL     1     -45.549 -51.054  12.284  1.00  0.00    -0.389 OA
HETATM   25  H   UNL     1     -46.209 -50.329  12.361  1.00  0.00     0.210 HD
ENDBRANCH  15  24
ENDBRANCH  14  15
ENDBRANCH   1  14
TORSDOF 5
ENDMDL
MODEL 2
REMARK VINA RESULT:      -6.4      3.551      5.801
REMARK  5 active torsions:
REMARK  status: ('A' for Active; 'I' for Inactive)
REMARK    1  A    between atoms: O_2  and  C_3 
REMARK    2  A    between atoms: C_7  and  C_9 
REMARK    3  A    between atoms: C_9  and  O_10 
REMARK    4  A    between atoms: C_9  and  C_11 
REMARK    5  A    between atoms: C_11  and  N_12 
ROOT
HETATM    1  N   UNL     1     -39.631 -51.107  12.875  1.00  0.00    -0.284 N 
HETATM    2  N   UNL     1     -38.489 -51.115  12.133  1.00  0.00    -0.308 N 
ATOM      3  HN  UNL     1     -37.810 -51.870  12.033  1.00  0.00     0.186 HD
HETATM    4  C   UNL     1     -38.462 -49.903  11.566  1.00  0.00     0.122 A 
HETATM    5  C   UNL     1     -39.534 -49.109  11.984  1.00  0.00     0.032 A 
HETATM    6  C   UNL     1     -39.958 -47.768  11.723  1.00  0.00     0.122 A 
HETATM    7  N   UNL     1     -41.017 -47.285  12.306  1.00  0.00    -0.306 N 
ATOM      8  HN  UNL     1     -41.316 -46.327  12.119  1.00  0.00     0.186 HD
HETATM    9  N   UNL     1     -41.745 -48.091  13.197  1.00  0.00    -0.261 N 
HETATM   10  C   UNL     1     -42.902 -47.485  13.823  1.00  0.00     0.181 C 
HETATM   11  C   UNL     1     -41.427 -49.426  13.520  1.00  0.00     0.290 A 
HETATM   12  O   UNL     1     -42.077 -50.107  14.308  1.00  0.00    -0.264 OA
HETATM   13  C   UNL     1     -40.258 -49.896  12.843  1.00  0.00     0.133 A 
ENDROOT
BRANCH   1  14
HETATM   14  C   UNL     1     -40.013 -52.284  13.638  1.00  0.00     0.186 C 
BRANCH  14  15
HETATM   15  C   UNL     1     -40.699 -53.393  12.819  1.00  0.00     0.171 C 
BRANCH  15  16
HETATM   16  C   UNL     1     -42.125 -53.771  13.191  1.00  0.00    -0.025 A 
HETATM   17  C   UNL     1     -42.360 -54.581  14.315  1.00  0.00     0.010 A 
HETATM   18  C   UNL     1     -43.658 -54.925  14.697  1.00  0.00     0.003 A 
HETATM   19  C   UNL     1     -44.750 -54.444  13.978  1.00  0.00     0.037 A 
HETATM   20  C   UNL     1     -44.543 -53.608  12.883  1.00  0.00     0.068 A 
HETATM   21  C   UNL     1     -43.240 -53.284  12.489  1.00  0.00     0.046 A 
BRANCH  20  22
HETATM   22  O   UNL     1     -45.534 -53.075  12.103  1.00  0.00    -0.356 OA
HETATM   23  C   UNL     1     -46.349 -52.098  12.740  1.00  0.00     0.210 C 
ENDBRANCH  20  22
ENDBRANCH  15  16
BRANCH  15  24
HETATM   24  O   UNL     1     -40.624 -53.066  11.422  1.00  0.00    -0.389 OA
HETATM   25  H   UNL     1     -39.660 -53.017  11.232  1.00  0.00     0.210 HD
ENDBRANCH  15  24
ENDBRANCH  14  15
ENDBRANCH   1  14
TORSDOF 5
ENDMDL
MODEL 3
REMARK VINA RESULT:      -6.2      4.183      6.473
REMARK  5 active torsions:
REMARK  status: ('A' for Active; 'I' for Inactive)
REMARK    1  A    between atoms: O_2  and  C_3 
REMARK    2  A    between atoms: C_7  and  C_9 
REMARK    3  A    between atoms: C_9  and  O_10 
REMARK    4  A    between atoms: C_9  and  C_11 
REMARK    5  A    between atoms: C_11  and  N_12 
ROOT
HETATM    1  N   UNL     1     -40.510 -50.214  12.724  1.00  0.00    -0.284 N 
HETATM    2  N   UNL     1     -39.960 -50.585  13.913  1.00  0.00    -0.308 N 
ATOM      3  HN  UNL     1     -39.980 -51.504  14.355  1.00  0.00     0.186 HD
HETATM    4  C   UNL     1     -39.386 -49.464  14.368  1.00  0.00     0.122 A 
HETATM    5  C   UNL     1     -39.617 -48.379  13.516  1.00  0.00     0.032 A 
HETATM    6  C   UNL     1     -39.272 -46.991  13.536  1.00  0.00     0.122 A 
HETATM    7  N   UNL     1     -39.671 -46.197  12.584  1.00  0.00    -0.306 N 
ATOM      8  HN  UNL     1     -39.425 -45.208  12.602  1.00  0.00     0.186 HD
HETATM    9  N   UNL     1     -40.446 -46.714  11.533  1.00  0.00    -0.261 N 
HETATM   10  C   UNL     1     -40.871 -45.773  10.517  1.00  0.00     0.181 C 
HETATM   11  C   UNL     1     -40.836 -48.063  11.405  1.00  0.00     0.290 A 
HETATM   12  O   UNL     1     -41.520 -48.488  10.479  1.00  0.00    -0.264 OA
HETATM   13  C   UNL     1     -40.360 -48.881  12.479  1.00  0.00     0.133 A 
ENDROOT
BRANCH   1  14
HETATM   14  C   UNL     1     -41.219 -51.190  11.912  1.00  0.00     0.186 C 
BRANCH  14  15
HETATM   15  C   UNL     1     -41.067 -52.651  12.374  1.00  0.00     0.171 C 
BRANCH  15  16
HETATM   16  C   UNL     1     -42.295 -53.346  12.943  1.00  0.00    -0.025 A 
HETATM   17  C   UNL     1     -42.154 -54.243  14.016  1.00  0.00     0.010 A 
HETATM   18  C   UNL     1     -43.263 -54.878  14.576  1.00  0.00     0.003 A 
HETATM   19  C   UNL     1     -44.542 -54.609  14.092  1.00  0.00     0.037 A 
HETATM   20  C   UNL     1     -44.711 -53.695  13.055  1.00  0.00     0.068 A 
HETATM   21  C   UNL     1     -43.594 -53.078  12.480  1.00  0.00     0.046 A 
BRANCH  20  22
HETATM   22  O   UNL     1     -45.914 -53.350  12.499  1.00  0.00    -0.356 OA
HETATM   23  C   UNL     1     -46.282 -51.984  12.648  1.00  0.00     0.210 C 
ENDBRANCH  20  22
ENDBRANCH  15  16
BRANCH  15  24
HETATM   24  O   UNL     1     -40.509 -53.431  11.305  1.00  0.00    -0.389 OA
HETATM   25  H   UNL     1     -40.376 -54.324  11.695  1.00  0.00     0.210 HD
ENDBRANCH  15  24
ENDBRANCH  14  15
ENDBRANCH   1  14
TORSDOF 5
ENDMDL
MODEL 4
REMARK VINA RESULT:      -6.0      4.072      5.775
REMARK  5 active torsions:
REMARK  status: ('A' for Active; 'I' for Inactive)
REMARK    1  A    between atoms: O_2  and  C_3 
REMARK    2  A    between atoms: C_7  and  C_9 
REMARK    3  A    between atoms: C_9  and  O_10 
REMARK    4  A    between atoms: C_9  and  C_11 
REMARK    5  A    between atoms: C_11  and  N_12 
ROOT
HETATM    1  N   UNL     1     -39.947 -50.490  12.359  1.00  0.00    -0.284 N 
HETATM    2  N   UNL     1     -39.042 -50.482  11.342  1.00  0.00    -0.308 N 
ATOM      3  HN  UNL     1     -39.098 -50.969  10.447  1.00  0.00     0.186 HD
HETATM    4  C   UNL     1     -38.061 -49.686  11.787  1.00  0.00     0.122 A 
HETATM    5  C   UNL     1     -38.303 -49.242  13.090  1.00  0.00     0.032 A 
HETATM    6  C   UNL     1     -37.593 -48.425  14.025  1.00  0.00     0.122 A 
HETATM    7  N   UNL     1     -38.076 -48.210  15.216  1.00  0.00    -0.306 N 
ATOM      8  HN  UNL     1     -37.566 -47.628  15.880  1.00  0.00     0.186 HD
HETATM    9  N   UNL     1     -39.304 -48.788  15.578  1.00  0.00    -0.261 N 
HETATM   10  C   UNL     1     -39.774 -48.522  16.922  1.00  0.00     0.181 C 
HETATM   11  C   UNL     1     -40.093 -49.599  14.737  1.00  0.00     0.290 A 
HETATM   12  O   UNL     1     -41.161 -50.098  15.082  1.00  0.00    -0.264 OA
HETATM   13  C   UNL     1     -39.509 -49.791  13.445  1.00  0.00     0.133 A 
ENDROOT
BRANCH   1  14
HETATM   14  C   UNL     1     -41.180 -51.250  12.232  1.00  0.00     0.186 C 
BRANCH  14  15
HETATM   15  C   UNL     1     -41.047 -52.756  12.522  1.00  0.00     0.171 C 
BRANCH  15  16
HETATM   16  C   UNL     1     -42.250 -53.473  13.116  1.00  0.00    -0.025 A 
HETATM   17  C   UNL     1     -43.518 -53.306  12.534  1.00  0.00     0.010 A 
HETATM   18  C   UNL     1     -44.637 -53.968  13.040  1.00  0.00     0.003 A 
HETATM   19  C   UNL     1     -44.506 -54.835  14.125  1.00  0.00     0.037 A 
HETATM   20  C   UNL     1     -43.253 -55.046  14.694  1.00  0.00     0.068 A 
HETATM   21  C   UNL     1     -42.137 -54.361  14.199  1.00  0.00     0.046 A 
BRANCH  20  22
HETATM   22  O   UNL     1     -43.001 -55.871  15.758  1.00  0.00    -0.356 OA
HETATM   23  C   UNL     1     -42.629 -55.212  16.963  1.00  0.00     0.210 C 
ENDBRANCH  20  22
ENDBRANCH  15  16
BRANCH  15  24
HETATM   24  O   UNL     1     -40.608 -53.431  11.333  1.00  0.00    -0.389 OA
HETATM   25  H   UNL     1     -41.439 -53.691  10.875  1.00  0.00     0.210 HD
ENDBRANCH  15  24
ENDBRANCH  14  15
ENDBRANCH   1  14
TORSDOF 5
ENDMDL
MODEL 5
REMARK VINA RESULT:      -6.0      4.858      7.009
REMARK  5 active torsions:
REMARK  status: ('A' for Active; 'I' for Inactive)
REMARK    1  A    between atoms: O_2  and  C_3 
REMARK    2  A    between atoms: C_7  and  C_9 
REMARK    3  A    between atoms: C_9  and  O_10 
REMARK    4  A    between atoms: C_9  and  C_11 
REMARK    5  A    between atoms: C_11  and  N_12 
ROOT
HETATM    1  N   UNL     1     -42.162 -48.465  11.533  1.00  0.00    -0.284 N 
HETATM    2  N   UNL     1     -42.722 -48.457  10.292  1.00  0.00    -0.308 N 
ATOM      3  HN  UNL     1     -43.328 -49.161   9.872  1.00  0.00     0.186 HD
HETATM    4  C   UNL     1     -42.292 -47.310   9.750  1.00  0.00     0.122 A 
HETATM    5  C   UNL     1     -41.422 -46.625  10.605  1.00  0.00     0.032 A 
HETATM    6  C   UNL     1     -40.675 -45.409  10.518  1.00  0.00     0.122 A 
HETATM    7  N   UNL     1     -39.901 -45.038  11.498  1.00  0.00    -0.306 N 
ATOM      8  HN  UNL     1     -39.368 -44.170  11.433  1.00  0.00     0.186 HD
HETATM    9  N   UNL     1     -39.806 -45.842  12.646  1.00  0.00    -0.261 N 
HETATM   10  C   UNL     1     -38.915 -45.379  13.690  1.00  0.00     0.181 C 
HETATM   11  C   UNL     1     -40.502 -47.051  12.844  1.00  0.00     0.290 A 
HETATM   12  O   UNL     1     -40.395 -47.739  13.855  1.00  0.00    -0.264 OA
HETATM   13  C   UNL     1     -41.336 -47.398  11.734  1.00  0.00     0.133 A 
ENDROOT
BRANCH   1  14
HETATM   14  C   UNL     1     -42.421 -49.569  12.443  1.00  0.00     0.186 C 
BRANCH  14  15
HETATM   15  C   UNL     1     -41.418 -50.733  12.351  1.00  0.00     0.171 C 
BRANCH  15  16
HETATM   16  C   UNL     1     -41.850 -52.087  12.894  1.00  0.00    -0.025 A 
HETATM   17  C   UNL     1     -41.022 -52.771  13.801  1.00  0.00     0.010 A 
HETATM   18  C   UNL     1     -41.401 -54.002  14.336  1.00  0.00     0.003 A 
HETATM   19  C   UNL     1     -42.630 -54.565  13.996  1.00  0.00     0.037 A 
HETATM   20  C   UNL     1     -43.484 -53.888  13.129  1.00  0.00     0.068 A 
HETATM   21  C   UNL     1     -43.091 -52.664  12.576  1.00  0.00     0.046 A 
BRANCH  20  22
HETATM   22  O   UNL     1     -44.713 -54.339  12.724  1.00  0.00    -0.356 OA
HETATM   23  C   UNL     1     -45.451 -55.054  13.709  1.00  0.00     0.210 C 
ENDBRANCH  20  22
ENDBRANCH  15  16
BRANCH  15  24
HETATM   24  O   UNL     1     -40.969 -50.867  10.993  1.00  0.00    -0.389 OA
HETATM   25  H   UNL     1     -41.795 -50.976  10.469  1.00  0.00     0.210 HD
ENDBRANCH  15  24
ENDBRANCH  14  15
ENDBRANCH   1  14
TORSDOF 5
ENDMDL
MODEL 6
REMARK VINA RESULT:      -5.8      3.727      6.134
REMARK  5 active torsions:
REMARK  status: ('A' for Active; 'I' for Inactive)
REMARK    1  A    between atoms: O_2  and  C_3 
REMARK    2  A    between atoms: C_7  and  C_9 
REMARK    3  A    between atoms: C_9  and  O_10 
REMARK    4  A    between atoms: C_9  and  C_11 
REMARK    5  A    between atoms: C_11  and  N_12 
ROOT
HETATM    1  N   UNL     1     -39.609 -51.989  15.250  1.00  0.00    -0.284 N 
HETATM    2  N   UNL     1     -40.598 -51.569  16.087  1.00  0.00    -0.308 N 
ATOM      3  HN  UNL     1     -41.058 -52.096  16.829  1.00  0.00     0.186 HD
HETATM    4  C   UNL     1     -40.828 -50.305  15.709  1.00  0.00     0.122 A 
HETATM    5  C   UNL     1     -40.045 -49.941  14.609  1.00  0.00     0.032 A 
HETATM    6  C   UNL     1     -39.916 -48.762  13.810  1.00  0.00     0.122 A 
HETATM    7  N   UNL     1     -39.096 -48.735  12.799  1.00  0.00    -0.306 N 
ATOM      8  HN  UNL     1     -39.007 -47.893  12.230  1.00  0.00     0.186 HD
HETATM    9  N   UNL     1     -38.334 -49.876  12.497  1.00  0.00    -0.261 N 
HETATM   10  C   UNL     1     -37.455 -49.783  11.349  1.00  0.00     0.181 C 
HETATM   11  C   UNL     1     -38.371 -51.086  13.219  1.00  0.00     0.290 A 
HETATM   12  O   UNL     1     -37.700 -52.071  12.929  1.00  0.00    -0.264 OA
HETATM   13  C   UNL     1     -39.287 -51.046  14.318  1.00  0.00     0.133 A 
ENDROOT
BRANCH   1  14
HETATM   14  C   UNL     1     -39.074 -53.335  15.371  1.00  0.00     0.186 C 
BRANCH  14  15
HETATM   15  C   UNL     1     -39.726 -54.378  14.447  1.00  0.00     0.171 C 
BRANCH  15  16
HETATM   16  C   UNL     1     -41.134 -54.098  13.944  1.00  0.00    -0.025 A 
HETATM   17  C   UNL     1     -41.319 -53.344  12.772  1.00  0.00     0.010 A 
HETATM   18  C   UNL     1     -42.596 -53.090  12.271  1.00  0.00     0.003 A 
HETATM   19  C   UNL     1     -43.717 -53.609  12.917  1.00  0.00     0.037 A 
HETATM   20  C   UNL     1     -43.557 -54.390  14.059  1.00  0.00     0.068 A 
HETATM   21  C   UNL     1     -42.276 -54.623  14.571  1.00  0.00     0.046 A 
BRANCH  20  22
HETATM   22  O   UNL     1     -44.580 -54.952  14.776  1.00  0.00    -0.356 OA
HETATM   23  C   UNL     1     -45.786 -55.163  14.050  1.00  0.00     0.210 C 
ENDBRANCH  20  22
ENDBRANCH  15  16
BRANCH  15  24
HETATM   24  O   UNL     1     -38.851 -54.645  13.339  1.00  0.00    -0.389 OA
HETATM   25  H   UNL     1     -38.377 -55.469  13.592  1.00  0.00     0.210 HD
ENDBRANCH  15  24
ENDBRANCH  14  15
ENDBRANCH   1  14
TORSDOF 5
ENDMDL
MODEL 7
REMARK VINA RESULT:      -5.8      3.746      5.466
REMARK  5 active torsions:
REMARK  status: ('A' for Active; 'I' for Inactive)
REMARK    1  A    between atoms: O_2  and  C_3 
REMARK    2  A    between atoms: C_7  and  C_9 
REMARK    3  A    between atoms: C_9  and  O_10 
REMARK    4  A    between atoms: C_9  and  C_11 
REMARK    5  A    between atoms: C_11  and  N_12 
ROOT
HETATM    1  N   UNL     1     -40.522 -50.597  11.887  1.00  0.00    -0.284 N 
HETATM    2  N   UNL     1     -41.088 -49.728  11.004  1.00  0.00    -0.308 N 
ATOM      3  HN  UNL     1     -41.723 -49.938  10.235  1.00  0.00     0.186 HD
HETATM    4  C   UNL     1     -40.616 -48.532  11.381  1.00  0.00     0.122 A 
HETATM    5  C   UNL     1     -39.717 -48.640  12.445  1.00  0.00     0.032 A 
HETATM    6  C   UNL     1     -38.923 -47.713  13.192  1.00  0.00     0.122 A 
HETATM    7  N   UNL     1     -38.131 -48.132  14.137  1.00  0.00    -0.306 N 
ATOM      8  HN  UNL     1     -37.565 -47.469  14.666  1.00  0.00     0.186 HD
HETATM    9  N   UNL     1     -38.060 -49.506  14.420  1.00  0.00    -0.261 N 
HETATM   10  C   UNL     1     -37.147 -49.905  15.471  1.00  0.00     0.181 C 
HETATM   11  C   UNL     1     -38.802 -50.506  13.758  1.00  0.00     0.290 A 
HETATM   12  O   UNL     1     -38.716 -51.702  14.021  1.00  0.00    -0.264 OA
HETATM   13  C   UNL     1     -39.655 -49.978  12.737  1.00  0.00     0.133 A 
ENDROOT
BRANCH   1  14
HETATM   14  C   UNL     1     -40.819 -52.018  11.802  1.00  0.00     0.186 C 
BRANCH  14  15
HETATM   15  C   UNL     1     -42.277 -52.396  12.120  1.00  0.00     0.171 C 
BRANCH  15  16
HETATM   16  C   UNL     1     -42.521 -53.426  13.212  1.00  0.00    -0.025 A 
HETATM   17  C   UNL     1     -41.456 -53.838  14.032  1.00  0.00     0.010 A 
HETATM   18  C   UNL     1     -41.651 -54.763  15.058  1.00  0.00     0.003 A 
HETATM   19  C   UNL     1     -42.924 -55.276  15.305  1.00  0.00     0.037 A 
HETATM   20  C   UNL     1     -44.002 -54.854  14.530  1.00  0.00     0.068 A 
HETATM   21  C   UNL     1     -43.797 -53.944  13.487  1.00  0.00     0.046 A 
BRANCH  20  22
HETATM   22  O   UNL     1     -45.293 -55.285  14.679  1.00  0.00    -0.356 OA
HETATM   23  C   UNL     1     -46.285 -54.267  14.609  1.00  0.00     0.210 C 
ENDBRANCH  20  22
ENDBRANCH  15  16
BRANCH  15  24
HETATM   24  O   UNL     1     -43.028 -51.202  12.391  1.00  0.00    -0.389 OA
HETATM   25  H   UNL     1     -43.003 -50.697  11.547  1.00  0.00     0.210 HD
ENDBRANCH  15  24
ENDBRANCH  14  15
ENDBRANCH   1  14
TORSDOF 5
ENDMDL
MODEL 8
REMARK VINA RESULT:      -5.7      3.340      6.663
REMARK  5 active torsions:
REMARK  status: ('A' for Active; 'I' for Inactive)
REMARK    1  A    between atoms: O_2  and  C_3 
REMARK    2  A    between atoms: C_7  and  C_9 
REMARK    3  A    between atoms: C_9  and  O_10 
REMARK    4  A    between atoms: C_9  and  C_11 
REMARK    5  A    between atoms: C_11  and  N_12 
ROOT
HETATM    1  N   UNL     1     -42.408 -53.486  14.519  1.00  0.00    -0.284 N 
HETATM    2  N   UNL     1     -42.106 -54.713  15.026  1.00  0.00    -0.308 N 
ATOM      3  HN  UNL     1     -41.203 -55.051  15.358  1.00  0.00     0.186 HD
HETATM    4  C   UNL     1     -43.270 -55.375  14.988  1.00  0.00     0.122 A 
HETATM    5  C   UNL     1     -44.285 -54.607  14.409  1.00  0.00     0.032 A 
HETATM    6  C   UNL     1     -45.665 -54.828  14.102  1.00  0.00     0.122 A 
HETATM    7  N   UNL     1     -46.367 -53.902  13.513  1.00  0.00    -0.306 N 
ATOM      8  HN  UNL     1     -47.350 -54.063  13.295  1.00  0.00     0.186 HD
HETATM    9  N   UNL     1     -45.759 -52.681  13.180  1.00  0.00    -0.261 N 
HETATM   10  C   UNL     1     -46.593 -51.703  12.512  1.00  0.00     0.181 C 
HETATM   11  C   UNL     1     -44.414 -52.351  13.442  1.00  0.00     0.290 A 
HETATM   12  O   UNL     1     -43.905 -51.277  13.134  1.00  0.00    -0.264 OA
HETATM   13  C   UNL     1     -43.701 -53.407  14.094  1.00  0.00     0.133 A 
ENDROOT
BRANCH   1  14
HETATM   14  C   UNL     1     -41.377 -52.466  14.416  1.00  0.00     0.186 C 
BRANCH  14  15
HETATM   15  C   UNL     1     -40.622 -52.439  13.075  1.00  0.00     0.171 C 
BRANCH  15  16
HETATM   16  C   UNL     1     -39.641 -51.301  12.836  1.00  0.00    -0.025 A 
HETATM   17  C   UNL     1     -38.278 -51.483  13.126  1.00  0.00     0.010 A 
HETATM   18  C   UNL     1     -37.350 -50.468  12.895  1.00  0.00     0.003 A 
HETATM   19  C   UNL     1     -37.761 -49.256  12.342  1.00  0.00     0.037 A 
HETATM   20  C   UNL     1     -39.100 -49.066  12.011  1.00  0.00     0.068 A 
HETATM   21  C   UNL     1     -40.032 -50.078  12.266  1.00  0.00     0.046 A 
BRANCH  20  22
HETATM   22  O   UNL     1     -39.620 -47.923  11.463  1.00  0.00    -0.356 OA
HETATM   23  C   UNL     1     -40.162 -46.996  12.397  1.00  0.00     0.210 C 
ENDBRANCH  20  22
ENDBRANCH  15  16
BRANCH  15  24
HETATM   24  O   UNL     1     -39.970 -53.703  12.872  1.00  0.00    -0.389 OA
HETATM   25  H   UNL     1     -40.351 -54.291  13.563  1.00  0.00     0.210 HD
ENDBRANCH  15  24
ENDBRANCH  14  15
ENDBRANCH   1  14
TORSDOF 5
ENDMDL
MODEL 9
REMARK VINA RESULT:      -5.7      5.171      7.941
REMARK  5 active torsions:
REMARK  status: ('A' for Active; 'I' for Inactive)
REMARK    1  A    between atoms: O_2  and  C_3 
REMARK    2  A    between atoms: C_7  and  C_9 
REMARK    3  A    between atoms: C_9  and  O_10 
REMARK    4  A    between atoms: C_9  and  C_11 
REMARK    5  A    between atoms: C_11  and  N_12 
ROOT
HETATM    1  N   UNL     1     -42.432 -48.090  11.021  1.00  0.00    -0.284 N 
HETATM    2  N   UNL     1     -42.612 -48.178   9.675  1.00  0.00    -0.308 N 
ATOM      3  HN  UNL     1     -42.554 -49.009   9.086  1.00  0.00     0.186 HD
HETATM    4  C   UNL     1     -42.883 -46.921   9.301  1.00  0.00     0.122 A 
HETATM    5  C   UNL     1     -42.817 -46.033  10.379  1.00  0.00     0.032 A 
HETATM    6  C   UNL     1     -42.982 -44.620  10.532  1.00  0.00     0.122 A 
HETATM    7  N   UNL     1     -42.821 -44.059  11.696  1.00  0.00    -0.306 N 
ATOM      8  HN  UNL     1     -42.938 -43.051  11.802  1.00  0.00     0.186 HD
HETATM    9  N   UNL     1     -42.484 -44.852  12.805  1.00  0.00    -0.261 N 
HETATM   10  C   UNL     1     -42.304 -44.161  14.066  1.00  0.00     0.181 C 
HETATM   11  C   UNL     1     -42.307 -46.250  12.774  1.00  0.00     0.290 A 
HETATM   12  O   UNL     1     -42.006 -46.919  13.758  1.00  0.00    -0.264 OA
HETATM   13  C   UNL     1     -42.503 -46.803  11.468  1.00  0.00     0.133 A 
ENDROOT
BRANCH   1  14
HETATM   14  C   UNL     1     -42.131 -49.283  11.797  1.00  0.00     0.186 C 
BRANCH  14  15
HETATM   15  C   UNL     1     -40.696 -49.816  11.635  1.00  0.00     0.171 C 
BRANCH  15  16
HETATM   16  C   UNL     1     -40.309 -51.059  12.421  1.00  0.00    -0.025 A 
HETATM   17  C   UNL     1     -39.130 -51.061  13.186  1.00  0.00     0.010 A 
HETATM   18  C   UNL     1     -38.759 -52.177  13.938  1.00  0.00     0.003 A 
HETATM   19  C   UNL     1     -39.575 -53.307  13.961  1.00  0.00     0.037 A 
HETATM   20  C   UNL     1     -40.767 -53.315  13.241  1.00  0.00     0.068 A 
HETATM   21  C   UNL     1     -41.124 -52.203  12.470  1.00  0.00     0.046 A 
BRANCH  20  22
HETATM   22  O   UNL     1     -41.647 -54.363  13.188  1.00  0.00    -0.356 OA
HETATM   23  C   UNL     1     -42.419 -54.567  14.366  1.00  0.00     0.210 C 
ENDBRANCH  20  22
ENDBRANCH  15  16
BRANCH  15  24
HETATM   24  O   UNL     1     -40.416 -50.008  10.239  1.00  0.00    -0.389 OA
HETATM   25  H   UNL     1     -40.939 -49.309   9.784  1.00  0.00     0.210 HD
ENDBRANCH  15  24
ENDBRANCH  14  15
ENDBRANCH   1  14
TORSDOF 5
ENDMDL
