MODEL 1
REMARK VINA RESULT:      -6.8      0.000      0.000
REMARK  5 active torsions:
REMARK  status: ('A' for Active; 'I' for Inactive)
REMARK    1  A    between atoms: C_4  and  N_5 
REMARK       I    between atoms: N_5  and  C_6 
REMARK       I    between atoms: C_6  and  N_8 
REMARK    2  A    between atoms: N_8  and  C_9 
REMARK    3  A    between atoms: C_9  and  C_10 
REMARK    4  A    between atoms: C_10  and  C_11 
REMARK    5  A    between atoms: C_11  and  N_12 
ROOT
HETATM    1  N   UNL     1     -41.484 -47.837  10.199  1.00  0.00    -0.293 N 
HETATM    2  C   UNL     1     -41.059 -48.787  11.083  1.00  0.00     0.321 C 
HETATM    3  O   UNL     1     -39.935 -48.706  11.576  1.00  0.00    -0.247 OA
HETATM    4  N   UNL     1     -41.920 -49.802  11.357  1.00  0.00    -0.343 N 
HETATM    5  H   UNL     1     -40.798 -47.123   9.997  1.00  0.00     0.172 HD
HETATM    6  H   UNL     1     -42.862 -49.710  10.984  1.00  0.00     0.164 HD
ENDROOT
BRANCH   1   7
HETATM    7  C   UNL     1     -42.715 -47.749   9.577  1.00  0.00     0.132 A 
HETATM    8  C   UNL     1     -43.920 -47.348  10.206  1.00  0.00     0.084 A 
HETATM    9  C   UNL     1     -44.867 -47.416   9.213  1.00  0.00     0.076 A 
HETATM   10  C   UNL     1     -46.313 -47.156   9.124  1.00  0.00     0.079 C 
HETATM   11  O   UNL     1     -44.275 -47.830   8.064  1.00  0.00    -0.241 OA
HETATM   12  N   UNL     1     -42.936 -48.038   8.289  1.00  0.00    -0.245 N 
ATOM     13  HN  UNL     1     -42.245 -48.352   7.607  1.00  0.00     0.196 HD
ENDBRANCH   1   7
BRANCH   4  14
HETATM   14  C   UNL     1     -41.657 -50.880  12.281  1.00  0.00     0.126 C 
BRANCH  14  15
HETATM   15  C   UNL     1     -42.441 -50.714  13.576  1.00  0.00     0.039 C 
BRANCH  15  16
HETATM   16  C   UNL     1     -42.975 -52.061  14.072  1.00  0.00     0.127 C 
BRANCH  16  17
HETATM   17  N   UNL     1     -44.424 -52.122  13.986  1.00  0.00    -0.352 N 
HETATM   18  C   UNL     1     -45.261 -51.216  14.726  1.00  0.00     0.126 C 
HETATM   19  C   UNL     1     -46.652 -51.402  14.151  1.00  0.00     0.029 C 
HETATM   20  C   UNL     1     -46.458 -52.124  12.825  1.00  0.00     0.104 C 
HETATM   21  C   UNL     1     -45.069 -52.694  12.901  1.00  0.00     0.219 C 
HETATM   22  O   UNL     1     -44.576 -53.455  12.083  1.00  0.00    -0.273 OA
ENDBRANCH  16  17
ENDBRANCH  15  16
ENDBRANCH  14  15
ENDBRANCH   4  14
TORSDOF 5
ENDMDL
MODEL 2
REMARK VINA RESULT:      -6.5      1.633      2.041
REMARK  5 active torsions:
REMARK  status: ('A' for Active; 'I' for Inactive)
REMARK    1  A    between atoms: C_4  and  N_5 
REMARK       I    between atoms: N_5  and  C_6 
REMARK       I    between atoms: C_6  and  N_8 
REMARK    2  A    between atoms: N_8  and  C_9 
REMARK    3  A    between atoms: C_9  and  C_10 
REMARK    4  A    between atoms: C_10  and  C_11 
REMARK    5  A    between atoms: C_11  and  N_12 
ROOT
HETATM    1  N   UNL     1     -41.461 -47.586  10.276  1.00  0.00    -0.293 N 
HETATM    2  C   UNL     1     -40.862 -48.554  11.031  1.00  0.00     0.321 C 
HETATM    3  O   UNL     1     -39.778 -48.329  11.568  1.00  0.00    -0.247 OA
HETATM    4  N   UNL     1     -41.508 -49.745  11.130  1.00  0.00    -0.343 N 
HETATM    5  H   UNL     1     -40.928 -46.731  10.200  1.00  0.00     0.172 HD
HETATM    6  H   UNL     1     -42.447 -49.785  10.742  1.00  0.00     0.164 HD
ENDROOT
BRANCH   1   7
HETATM    7  C   UNL     1     -42.682 -47.650   9.632  1.00  0.00     0.132 A 
HETATM    8  C   UNL     1     -43.935 -47.372  10.230  1.00  0.00     0.084 A 
HETATM    9  C   UNL     1     -44.850 -47.567   9.223  1.00  0.00     0.076 A 
HETATM   10  C   UNL     1     -46.314 -47.471   9.104  1.00  0.00     0.079 C 
HETATM   11  O   UNL     1     -44.194 -47.937   8.095  1.00  0.00    -0.241 OA
HETATM   12  N   UNL     1     -42.844 -47.990   8.347  1.00  0.00    -0.245 N 
ATOM     13  HN  UNL     1     -42.110 -48.240   7.685  1.00  0.00     0.196 HD
ENDBRANCH   1   7
BRANCH   4  14
HETATM   14  C   UNL     1     -41.042 -50.875  11.901  1.00  0.00     0.126 C 
BRANCH  14  15
HETATM   15  C   UNL     1     -42.123 -51.398  12.838  1.00  0.00     0.039 C 
BRANCH  15  16
HETATM   16  C   UNL     1     -42.909 -52.539  12.186  1.00  0.00     0.127 C 
BRANCH  16  17
HETATM   17  N   UNL     1     -43.054 -53.668  13.091  1.00  0.00    -0.352 N 
HETATM   18  C   UNL     1     -42.082 -53.942  14.115  1.00  0.00     0.126 C 
HETATM   19  C   UNL     1     -42.728 -54.987  15.005  1.00  0.00     0.029 C 
HETATM   20  C   UNL     1     -44.212 -54.960  14.664  1.00  0.00     0.104 C 
HETATM   21  C   UNL     1     -44.285 -54.252  13.340  1.00  0.00     0.219 C 
HETATM   22  O   UNL     1     -45.293 -54.138  12.660  1.00  0.00    -0.273 OA
ENDBRANCH  16  17
ENDBRANCH  15  16
ENDBRANCH  14  15
ENDBRANCH   4  14
TORSDOF 5
ENDMDL
MODEL 3
REMARK VINA RESULT:      -6.2      2.786      3.339
REMARK  5 active torsions:
REMARK  status: ('A' for Active; 'I' for Inactive)
REMARK    1  A    between atoms: C_4  and  N_5 
REMARK       I    between atoms: N_5  and  C_6 
REMARK       I    between atoms: C_6  and  N_8 
REMARK    2  A    between atoms: N_8  and  C_9 
REMARK    3  A    between atoms: C_9  and  C_10 
REMARK    4  A    between atoms: C_10  and  C_11 
REMARK    5  A    between atoms: C_11  and  N_12 
ROOT
HETATM    1  N   UNL     1     -41.906 -47.066   9.990  1.00  0.00    -0.293 N 
HETATM    2  C   UNL     1     -41.074 -47.863  10.724  1.00  0.00     0.321 C 
HETATM    3  O   UNL     1     -40.086 -47.376  11.272  1.00  0.00    -0.247 OA
HETATM    4  N   UNL     1     -41.385 -49.184  10.787  1.00  0.00    -0.343 N 
HETATM    5  H   UNL     1     -41.616 -46.099   9.940  1.00  0.00     0.172 HD
HETATM    6  H   UNL     1     -42.280 -49.458  10.392  1.00  0.00     0.164 HD
ENDROOT
BRANCH   1   7
HETATM    7  C   UNL     1     -43.068 -47.430   9.337  1.00  0.00     0.132 A 
HETATM    8  C   UNL     1     -44.369 -47.374   9.895  1.00  0.00     0.084 A 
HETATM    9  C   UNL     1     -45.194 -47.830   8.895  1.00  0.00     0.076 A 
HETATM   10  C   UNL     1     -46.642 -48.050   8.749  1.00  0.00     0.079 C 
HETATM   11  O   UNL     1     -44.442 -48.139   7.808  1.00  0.00    -0.241 OA
HETATM   12  N   UNL     1     -43.119 -47.891   8.082  1.00  0.00    -0.245 N 
ATOM     13  HN  UNL     1     -42.330 -48.032   7.451  1.00  0.00     0.196 HD
ENDBRANCH   1   7
BRANCH   4  14
HETATM   14  C   UNL     1     -40.639 -50.172  11.531  1.00  0.00     0.126 C 
BRANCH  14  15
HETATM   15  C   UNL     1     -41.561 -51.131  12.272  1.00  0.00     0.039 C 
BRANCH  15  16
HETATM   16  C   UNL     1     -41.078 -52.578  12.129  1.00  0.00     0.127 C 
BRANCH  16  17
HETATM   17  N   UNL     1     -40.960 -53.228  13.424  1.00  0.00    -0.352 N 
HETATM   18  C   UNL     1     -42.055 -53.962  14.001  1.00  0.00     0.126 C 
HETATM   19  C   UNL     1     -41.454 -54.712  15.174  1.00  0.00     0.029 C 
HETATM   20  C   UNL     1     -39.948 -54.677  14.959  1.00  0.00     0.104 C 
HETATM   21  C   UNL     1     -39.731 -53.577  13.958  1.00  0.00     0.219 C 
HETATM   22  O   UNL     1     -38.641 -53.146  13.614  1.00  0.00    -0.273 OA
ENDBRANCH  16  17
ENDBRANCH  15  16
ENDBRANCH  14  15
ENDBRANCH   4  14
TORSDOF 5
ENDMDL
MODEL 4
REMARK VINA RESULT:      -6.0      1.535      1.709
REMARK  5 active torsions:
REMARK  status: ('A' for Active; 'I' for Inactive)
REMARK    1  A    between atoms: C_4  and  N_5 
REMARK       I    between atoms: N_5  and  C_6 
REMARK       I    between atoms: C_6  and  N_8 
REMARK    2  A    between atoms: N_8  and  C_9 
REMARK    3  A    between atoms: C_9  and  C_10 
REMARK    4  A    between atoms: C_10  and  C_11 
REMARK    5  A    between atoms: C_11  and  N_12 
ROOT
HETATM    1  N   UNL     1     -41.418 -48.559  11.834  1.00  0.00    -0.293 N 
HETATM    2  C   UNL     1     -41.221 -49.808  12.350  1.00  0.00     0.321 C 
HETATM    3  O   UNL     1     -40.442 -49.967  13.289  1.00  0.00    -0.247 OA
HETATM    4  N   UNL     1     -41.900 -50.830  11.766  1.00  0.00    -0.343 N 
HETATM    5  H   UNL     1     -40.866 -47.837  12.275  1.00  0.00     0.172 HD
HETATM    6  H   UNL     1     -42.599 -50.572  11.075  1.00  0.00     0.164 HD
ENDROOT
BRANCH   1   7
HETATM    7  C   UNL     1     -42.271 -48.191  10.812  1.00  0.00     0.132 A 
HETATM    8  C   UNL     1     -43.592 -47.707  10.985  1.00  0.00     0.084 A 
HETATM    9  C   UNL     1     -44.047 -47.479   9.708  1.00  0.00     0.076 A 
HETATM   10  C   UNL     1     -45.301 -46.989   9.114  1.00  0.00     0.079 C 
HETATM   11  O   UNL     1     -43.069 -47.805   8.826  1.00  0.00    -0.241 OA
HETATM   12  N   UNL     1     -41.964 -48.248   9.510  1.00  0.00    -0.245 N 
ATOM     13  HN  UNL     1     -41.081 -48.560   9.105  1.00  0.00     0.196 HD
ENDBRANCH   1   7
BRANCH   4  14
HETATM   14  C   UNL     1     -41.837 -52.210  12.188  1.00  0.00     0.126 C 
BRANCH  14  15
HETATM   15  C   UNL     1     -43.226 -52.790  12.420  1.00  0.00     0.039 C 
BRANCH  15  16
HETATM   16  C   UNL     1     -43.429 -53.157  13.893  1.00  0.00     0.127 C 
BRANCH  16  17
HETATM   17  N   UNL     1     -44.696 -52.651  14.395  1.00  0.00    -0.352 N 
HETATM   18  C   UNL     1     -45.261 -51.420  13.912  1.00  0.00     0.126 C 
HETATM   19  C   UNL     1     -46.680 -51.399  14.446  1.00  0.00     0.029 C 
HETATM   20  C   UNL     1     -46.980 -52.827  14.880  1.00  0.00     0.104 C 
HETATM   21  C   UNL     1     -45.632 -53.484  14.986  1.00  0.00     0.219 C 
HETATM   22  O   UNL     1     -45.430 -54.602  15.432  1.00  0.00    -0.273 OA
ENDBRANCH  16  17
ENDBRANCH  15  16
ENDBRANCH  14  15
ENDBRANCH   4  14
TORSDOF 5
ENDMDL
MODEL 5
REMARK VINA RESULT:      -5.9      2.103      3.120
REMARK  5 active torsions:
REMARK  status: ('A' for Active; 'I' for Inactive)
REMARK    1  A    between atoms: C_4  and  N_5 
REMARK       I    between atoms: N_5  and  C_6 
REMARK       I    between atoms: C_6  and  N_8 
REMARK    2  A    between atoms: N_8  and  C_9 
REMARK    3  A    between atoms: C_9  and  C_10 
REMARK    4  A    between atoms: C_10  and  C_11 
REMARK    5  A    between atoms: C_11  and  N_12 
ROOT
HETATM    1  N   UNL     1     -39.897 -51.115  12.285  1.00  0.00    -0.293 N 
HETATM    2  C   UNL     1     -40.314 -52.336  12.733  1.00  0.00     0.321 C 
HETATM    3  O   UNL     1     -39.515 -53.090  13.288  1.00  0.00    -0.247 OA
HETATM    4  N   UNL     1     -41.615 -52.661  12.513  1.00  0.00    -0.343 N 
HETATM    5  H   UNL     1     -38.915 -50.931  12.436  1.00  0.00     0.172 HD
HETATM    6  H   UNL     1     -42.211 -51.923  12.149  1.00  0.00     0.164 HD
ENDROOT
BRANCH   1   7
HETATM    7  C   UNL     1     -40.654 -50.134  11.673  1.00  0.00     0.132 A 
HETATM    8  C   UNL     1     -41.579 -49.288  12.334  1.00  0.00     0.084 A 
HETATM    9  C   UNL     1     -42.089 -48.489  11.338  1.00  0.00     0.076 A 
HETATM   10  C   UNL     1     -43.077 -47.400  11.270  1.00  0.00     0.079 C 
HETATM   11  O   UNL     1     -41.511 -48.830  10.159  1.00  0.00    -0.241 OA
HETATM   12  N   UNL     1     -40.619 -49.854  10.365  1.00  0.00    -0.245 N 
ATOM     13  HN  UNL     1     -40.041 -50.311   9.659  1.00  0.00     0.196 HD
ENDBRANCH   1   7
BRANCH   4  14
HETATM   14  C   UNL     1     -42.239 -53.893  12.935  1.00  0.00     0.126 C 
BRANCH  14  15
HETATM   15  C   UNL     1     -42.942 -53.737  14.277  1.00  0.00     0.039 C 
BRANCH  15  16
HETATM   16  C   UNL     1     -44.322 -54.400  14.255  1.00  0.00     0.127 C 
BRANCH  16  17
HETATM   17  N   UNL     1     -45.387 -53.412  14.314  1.00  0.00    -0.352 N 
HETATM   18  C   UNL     1     -45.704 -52.720  15.534  1.00  0.00     0.126 C 
HETATM   19  C   UNL     1     -46.637 -51.598  15.121  1.00  0.00     0.029 C 
HETATM   20  C   UNL     1     -46.484 -51.466  13.613  1.00  0.00     0.104 C 
HETATM   21  C   UNL     1     -45.836 -52.753  13.182  1.00  0.00     0.219 C 
HETATM   22  O   UNL     1     -45.658 -53.095  12.024  1.00  0.00    -0.273 OA
ENDBRANCH  16  17
ENDBRANCH  15  16
ENDBRANCH  14  15
ENDBRANCH   4  14
TORSDOF 5
ENDMDL
MODEL 6
REMARK VINA RESULT:      -5.9      4.000      5.634
REMARK  5 active torsions:
REMARK  status: ('A' for Active; 'I' for Inactive)
REMARK    1  A    between atoms: C_4  and  N_5 
REMARK       I    between atoms: N_5  and  C_6 
REMARK       I    between atoms: C_6  and  N_8 
REMARK    2  A    between atoms: N_8  and  C_9 
REMARK    3  A    between atoms: C_9  and  C_10 
REMARK    4  A    between atoms: C_10  and  C_11 
REMARK    5  A    between atoms: C_11  and  N_12 
ROOT
HETATM    1  N   UNL     1     -41.634 -47.966  10.624  1.00  0.00    -0.293 N 
HETATM    2  C   UNL     1     -40.632 -47.059  10.826  1.00  0.00     0.321 C 
HETATM    3  O   UNL     1     -39.652 -47.370  11.502  1.00  0.00    -0.247 OA
HETATM    4  N   UNL     1     -40.793 -45.830  10.270  1.00  0.00    -0.343 N 
HETATM    5  H   UNL     1     -41.489 -48.853  11.085  1.00  0.00     0.172 HD
HETATM    6  H   UNL     1     -41.583 -45.717   9.641  1.00  0.00     0.164 HD
ENDROOT
BRANCH   1   7
HETATM    7  C   UNL     1     -42.783 -47.804   9.873  1.00  0.00     0.132 A 
HETATM    8  C   UNL     1     -44.055 -47.457  10.393  1.00  0.00     0.084 A 
HETATM    9  C   UNL     1     -44.878 -47.415   9.292  1.00  0.00     0.076 A 
HETATM   10  C   UNL     1     -46.303 -47.133   9.060  1.00  0.00     0.079 C 
HETATM   11  O   UNL     1     -44.152 -47.716   8.186  1.00  0.00    -0.241 OA
HETATM   12  N   UNL     1     -42.849 -47.958   8.545  1.00  0.00    -0.245 N 
ATOM     13  HN  UNL     1     -42.081 -48.207   7.921  1.00  0.00     0.196 HD
ENDBRANCH   1   7
BRANCH   4  14
HETATM   14  C   UNL     1     -39.833 -44.754  10.356  1.00  0.00     0.126 C 
BRANCH  14  15
HETATM   15  C   UNL     1     -40.351 -43.606  11.212  1.00  0.00     0.039 C 
BRANCH  15  16
HETATM   16  C   UNL     1     -39.937 -43.782  12.676  1.00  0.00     0.127 C 
BRANCH  16  17
HETATM   17  N   UNL     1     -40.974 -44.452  13.444  1.00  0.00    -0.352 N 
HETATM   18  C   UNL     1     -42.364 -44.341  13.090  1.00  0.00     0.126 C 
HETATM   19  C   UNL     1     -43.071 -45.391  13.925  1.00  0.00     0.029 C 
HETATM   20  C   UNL     1     -41.978 -46.327  14.424  1.00  0.00     0.104 C 
HETATM   21  C   UNL     1     -40.701 -45.557  14.233  1.00  0.00     0.219 C 
HETATM   22  O   UNL     1     -39.602 -45.911  14.630  1.00  0.00    -0.273 OA
ENDBRANCH  16  17
ENDBRANCH  15  16
ENDBRANCH  14  15
ENDBRANCH   4  14
TORSDOF 5
ENDMDL
MODEL 7
REMARK VINA RESULT:      -5.8      3.844      5.126
REMARK  5 active torsions:
REMARK  status: ('A' for Active; 'I' for Inactive)
REMARK    1  A    between atoms: C_4  and  N_5 
REMARK       I    between atoms: N_5  and  C_6 
REMARK       I    between atoms: C_6  and  N_8 
REMARK    2  A    between atoms: N_8  and  C_9 
REMARK    3  A    between atoms: C_9  and  C_10 
REMARK    4  A    between atoms: C_10  and  C_11 
REMARK    5  A    between atoms: C_11  and  N_12 
ROOT
HETATM    1  N   UNL     1     -43.263 -52.993  11.935  1.00  0.00    -0.293 N 
HETATM    2  C   UNL     1     -43.790 -53.915  12.794  1.00  0.00     0.321 C 
HETATM    3  O   UNL     1     -44.862 -54.457  12.527  1.00  0.00    -0.247 OA
HETATM    4  N   UNL     1     -43.091 -54.168  13.931  1.00  0.00    -0.343 N 
HETATM    5  H   UNL     1     -43.834 -52.810  11.122  1.00  0.00     0.172 HD
HETATM    6  H   UNL     1     -42.167 -53.750  13.996  1.00  0.00     0.164 HD
ENDROOT
BRANCH   1   7
HETATM    7  C   UNL     1     -42.066 -52.314  12.053  1.00  0.00     0.132 A 
HETATM    8  C   UNL     1     -41.916 -51.016  12.602  1.00  0.00     0.084 A 
HETATM    9  C   UNL     1     -40.569 -50.755  12.510  1.00  0.00     0.076 A 
HETATM   10  C   UNL     1     -39.692 -49.629  12.867  1.00  0.00     0.079 C 
HETATM   11  O   UNL     1     -39.950 -51.822  11.944  1.00  0.00    -0.241 OA
HETATM   12  N   UNL     1     -40.880 -52.793  11.659  1.00  0.00    -0.245 N 
ATOM     13  HN  UNL     1     -40.701 -53.701  11.231  1.00  0.00     0.196 HD
ENDBRANCH   1   7
BRANCH   4  14
HETATM   14  C   UNL     1     -43.478 -55.124  14.942  1.00  0.00     0.126 C 
BRANCH  14  15
HETATM   15  C   UNL     1     -43.624 -54.467  16.309  1.00  0.00     0.039 C 
BRANCH  15  16
HETATM   16  C   UNL     1     -45.079 -54.071  16.575  1.00  0.00     0.127 C 
BRANCH  16  17
HETATM   17  N   UNL     1     -45.389 -52.772  16.001  1.00  0.00    -0.352 N 
HETATM   18  C   UNL     1     -44.444 -51.687  16.039  1.00  0.00     0.126 C 
HETATM   19  C   UNL     1     -45.010 -50.636  15.104  1.00  0.00     0.029 C 
HETATM   20  C   UNL     1     -46.058 -51.352  14.264  1.00  0.00     0.104 C 
HETATM   21  C   UNL     1     -46.354 -52.617  15.020  1.00  0.00     0.219 C 
HETATM   22  O   UNL     1     -47.240 -53.411  14.742  1.00  0.00    -0.273 OA
ENDBRANCH  16  17
ENDBRANCH  15  16
ENDBRANCH  14  15
ENDBRANCH   4  14
TORSDOF 5
ENDMDL
MODEL 8
REMARK VINA RESULT:      -5.8      2.639      3.450
REMARK  5 active torsions:
REMARK  status: ('A' for Active; 'I' for Inactive)
REMARK    1  A    between atoms: C_4  and  N_5 
REMARK       I    between atoms: N_5  and  C_6 
REMARK       I    between atoms: C_6  and  N_8 
REMARK    2  A    between atoms: N_8  and  C_9 
REMARK    3  A    between atoms: C_9  and  C_10 
REMARK    4  A    between atoms: C_10  and  C_11 
REMARK    5  A    between atoms: C_11  and  N_12 
ROOT
HETATM    1  N   UNL     1     -39.432 -51.096  12.145  1.00  0.00    -0.293 N 
HETATM    2  C   UNL     1     -39.991 -52.056  12.940  1.00  0.00     0.321 C 
HETATM    3  O   UNL     1     -39.303 -52.992  13.346  1.00  0.00    -0.247 OA
HETATM    4  N   UNL     1     -41.313 -51.927  13.224  1.00  0.00    -0.343 N 
HETATM    5  H   UNL     1     -38.457 -51.252  11.930  1.00  0.00     0.172 HD
HETATM    6  H   UNL     1     -41.757 -51.060  12.931  1.00  0.00     0.164 HD
ENDROOT
BRANCH   1   7
HETATM    7  C   UNL     1     -40.038 -49.967  11.628  1.00  0.00     0.132 A 
HETATM    8  C   UNL     1     -40.098 -48.706  12.271  1.00  0.00     0.084 A 
HETATM    9  C   UNL     1     -40.790 -47.904  11.396  1.00  0.00     0.076 A 
HETATM   10  C   UNL     1     -41.231 -46.500  11.385  1.00  0.00     0.079 C 
HETATM   11  O   UNL     1     -41.125 -48.631  10.300  1.00  0.00    -0.241 OA
HETATM   12  N   UNL     1     -40.658 -49.915  10.443  1.00  0.00    -0.245 N 
ATOM     13  HN  UNL     1     -40.764 -50.680   9.776  1.00  0.00     0.196 HD
ENDBRANCH   1   7
BRANCH   4  14
HETATM   14  C   UNL     1     -42.068 -52.827  14.064  1.00  0.00     0.126 C 
BRANCH  14  15
HETATM   15  C   UNL     1     -42.715 -53.942  13.252  1.00  0.00     0.039 C 
BRANCH  15  16
HETATM   16  C   UNL     1     -43.994 -53.452  12.568  1.00  0.00     0.127 C 
BRANCH  16  17
HETATM   17  N   UNL     1     -44.967 -52.978  13.538  1.00  0.00    -0.352 N 
HETATM   18  C   UNL     1     -45.456 -51.626  13.516  1.00  0.00     0.126 C 
HETATM   19  C   UNL     1     -46.637 -51.616  14.468  1.00  0.00     0.029 C 
HETATM   20  C   UNL     1     -47.009 -53.077  14.680  1.00  0.00     0.104 C 
HETATM   21  C   UNL     1     -45.804 -53.848  14.218  1.00  0.00     0.219 C 
HETATM   22  O   UNL     1     -45.652 -55.053  14.343  1.00  0.00    -0.273 OA
ENDBRANCH  16  17
ENDBRANCH  15  16
ENDBRANCH  14  15
ENDBRANCH   4  14
TORSDOF 5
ENDMDL
MODEL 9
REMARK VINA RESULT:      -5.8      2.940      3.850
REMARK  5 active torsions:
REMARK  status: ('A' for Active; 'I' for Inactive)
REMARK    1  A    between atoms: C_4  and  N_5 
REMARK       I    between atoms: N_5  and  C_6 
REMARK       I    between atoms: C_6  and  N_8 
REMARK    2  A    between atoms: N_8  and  C_9 
REMARK    3  A    between atoms: C_9  and  C_10 
REMARK    4  A    between atoms: C_10  and  C_11 
REMARK    5  A    between atoms: C_11  and  N_12 
ROOT
HETATM    1  N   UNL     1     -38.301 -50.212  11.526  1.00  0.00    -0.293 N 
HETATM    2  C   UNL     1     -38.140 -51.223  12.430  1.00  0.00     0.321 C 
HETATM    3  O   UNL     1     -37.042 -51.765  12.554  1.00  0.00    -0.247 OA
HETATM    4  N   UNL     1     -39.237 -51.594  13.140  1.00  0.00    -0.343 N 
HETATM    5  H   UNL     1     -37.470 -49.995  10.995  1.00  0.00     0.172 HD
HETATM    6  H   UNL     1     -40.061 -51.008  13.040  1.00  0.00     0.164 HD
ENDROOT
BRANCH   1   7
HETATM    7  C   UNL     1     -39.442 -49.474  11.277  1.00  0.00     0.132 A 
HETATM    8  C   UNL     1     -39.774 -48.248  11.905  1.00  0.00     0.084 A 
HETATM    9  C   UNL     1     -40.981 -47.892  11.352  1.00  0.00     0.076 A 
HETATM   10  C   UNL     1     -41.918 -46.768  11.514  1.00  0.00     0.079 C 
HETATM   11  O   UNL     1     -41.352 -48.838  10.453  1.00  0.00    -0.241 OA
HETATM   12  N   UNL     1     -40.396 -49.823  10.405  1.00  0.00    -0.245 N 
ATOM     13  HN  UNL     1     -40.410 -50.659   9.819  1.00  0.00     0.196 HD
ENDBRANCH   1   7
BRANCH   4  14
HETATM   14  C   UNL     1     -39.255 -52.624  14.153  1.00  0.00     0.126 C 
BRANCH  14  15
HETATM   15  C   UNL     1     -40.026 -53.853  13.691  1.00  0.00     0.039 C 
BRANCH  15  16
HETATM   16  C   UNL     1     -41.158 -54.190  14.667  1.00  0.00     0.127 C 
BRANCH  16  17
HETATM   17  N   UNL     1     -42.459 -53.893  14.093  1.00  0.00    -0.352 N 
HETATM   18  C   UNL     1     -42.590 -53.160  12.862  1.00  0.00     0.126 C 
HETATM   19  C   UNL     1     -44.045 -53.316  12.461  1.00  0.00     0.029 C 
HETATM   20  C   UNL     1     -44.580 -54.476  13.288  1.00  0.00     0.104 C 
HETATM   21  C   UNL     1     -43.583 -54.642  14.401  1.00  0.00     0.219 C 
HETATM   22  O   UNL     1     -43.716 -55.390  15.358  1.00  0.00    -0.273 OA
ENDBRANCH  16  17
ENDBRANCH  15  16
ENDBRANCH  14  15
ENDBRANCH   4  14
TORSDOF 5
ENDMDL
