MODEL 1
REMARK VINA RESULT:      -6.7      0.000      0.000
REMARK  4 active torsions:
REMARK  status: ('A' for Active; 'I' for Inactive)
REMARK    1  A    between atoms: C_5  and  N_6 
REMARK       I    between atoms: N_6  and  C_7 
REMARK       I    between atoms: C_7  and  N_9 
REMARK    2  A    between atoms: N_9  and  C_10 
REMARK    3  A    between atoms: C_10  and  C_11 
REMARK    4  A    between atoms: C_11  and  C_12 
ROOT
HETATM    1  N   UNL     1     -43.118 -51.670  12.627  1.00  0.00    -0.336 N 
HETATM    2  C   UNL     1     -41.966 -51.188  12.057  1.00  0.00     0.316 C 
HETATM    3  O   UNL     1     -40.979 -51.868  11.814  1.00  0.00    -0.247 OA
HETATM    4  N   UNL     1     -42.075 -49.849  11.770  1.00  0.00    -0.343 N 
HETATM    5  H   UNL     1     -43.641 -50.997  13.169  1.00  0.00     0.164 HD
HETATM    6  H   UNL     1     -43.017 -49.580  11.521  1.00  0.00     0.164 HD
ENDROOT
BRANCH   1   7
HETATM    7  C   UNL     1     -43.243 -53.079  12.981  1.00  0.00     0.122 C 
HETATM    8  C   UNL     1     -44.659 -53.591  12.744  1.00  0.00     0.065 C 
HETATM    9  C   UNL     1     -45.097 -54.246  14.050  1.00  0.00     0.057 C 
HETATM   10  C   UNL     1     -45.712 -55.627  13.815  1.00  0.00     0.045 C 
HETATM   11  C   UNL     1     -46.111 -53.386  14.811  1.00  0.00     0.045 C 
HETATM   12  O   UNL     1     -43.921 -54.405  14.854  1.00  0.00    -0.369 OA
HETATM   13  C   UNL     1     -42.906 -53.461  14.442  1.00  0.00     0.075 C 
HETATM   14  C   UNL     1     -41.553 -54.170  14.546  1.00  0.00     0.048 C 
HETATM   15  C   UNL     1     -42.918 -52.298  15.443  1.00  0.00     0.048 C 
ENDBRANCH   1   7
BRANCH   4  16
HETATM   16  C   UNL     1     -41.005 -49.196  11.024  1.00  0.00     0.130 C 
BRANCH  16  17
HETATM   17  C   UNL     1     -41.389 -47.781  10.601  1.00  0.00     0.076 C 
BRANCH  17  18
HETATM   18  C   UNL     1     -42.683 -47.740   9.830  1.00  0.00     0.010 A 
HETATM   19  C   UNL     1     -43.887 -47.483  10.482  1.00  0.00     0.025 A 
HETATM   20  C   UNL     1     -45.067 -47.491   9.745  1.00  0.00     0.003 A 
HETATM   21  C   UNL     1     -45.016 -47.747   8.382  1.00  0.00     0.017 A 
HETATM   22  C   UNL     1     -43.778 -47.976   7.806  1.00  0.00     0.088 A 
HETATM   23  N   UNL     1     -42.616 -47.977   8.497  1.00  0.00    -0.369 N 
ATOM     24  HN  UNL     1     -41.724 -48.150   8.033  1.00  0.00     0.165 HD
ENDBRANCH  17  18
ENDBRANCH  16  17
ENDBRANCH   4  16
TORSDOF 4
ENDMDL
MODEL 2
REMARK VINA RESULT:      -6.6      1.305      1.797
REMARK  4 active torsions:
REMARK  status: ('A' for Active; 'I' for Inactive)
REMARK    1  A    between atoms: C_5  and  N_6 
REMARK       I    between atoms: N_6  and  C_7 
REMARK       I    between atoms: C_7  and  N_9 
REMARK    2  A    between atoms: N_9  and  C_10 
REMARK    3  A    between atoms: C_10  and  C_11 
REMARK    4  A    between atoms: C_11  and  C_12 
ROOT
HETATM    1  N   UNL     1     -42.602 -51.199  12.493  1.00  0.00    -0.336 N 
HETATM    2  C   UNL     1     -41.886 -50.031  12.405  1.00  0.00     0.316 C 
HETATM    3  O   UNL     1     -41.274 -49.524  13.334  1.00  0.00    -0.247 OA
HETATM    4  N   UNL     1     -41.923 -49.520  11.130  1.00  0.00    -0.343 N 
HETATM    5  H   UNL     1     -43.383 -51.270  11.858  1.00  0.00     0.164 HD
HETATM    6  H   UNL     1     -41.971 -50.240  10.423  1.00  0.00     0.164 HD
ENDROOT
BRANCH   1   7
HETATM    7  C   UNL     1     -42.669 -51.940  13.747  1.00  0.00     0.122 C 
HETATM    8  C   UNL     1     -42.547 -53.441  13.516  1.00  0.00     0.065 C 
HETATM    9  C   UNL     1     -43.740 -54.078  14.223  1.00  0.00     0.057 C 
HETATM   10  C   UNL     1     -43.318 -55.265  15.092  1.00  0.00     0.045 C 
HETATM   11  C   UNL     1     -44.807 -54.555  13.233  1.00  0.00     0.045 C 
HETATM   12  O   UNL     1     -44.307 -53.073  15.075  1.00  0.00    -0.369 OA
HETATM   13  C   UNL     1     -43.951 -51.756  14.594  1.00  0.00     0.075 C 
HETATM   14  C   UNL     1     -43.701 -50.874  15.820  1.00  0.00     0.048 C 
HETATM   15  C   UNL     1     -45.162 -51.195  13.837  1.00  0.00     0.048 C 
ENDBRANCH   1   7
BRANCH   4  16
HETATM   16  C   UNL     1     -41.097 -48.361  10.808  1.00  0.00     0.130 C 
BRANCH  16  17
HETATM   17  C   UNL     1     -41.941 -47.130  10.497  1.00  0.00     0.076 C 
BRANCH  17  18
HETATM   18  C   UNL     1     -43.125 -47.447   9.619  1.00  0.00     0.010 A 
HETATM   19  C   UNL     1     -44.422 -47.339  10.115  1.00  0.00     0.025 A 
HETATM   20  C   UNL     1     -45.488 -47.678   9.288  1.00  0.00     0.003 A 
HETATM   21  C   UNL     1     -45.236 -48.106   7.993  1.00  0.00     0.017 A 
HETATM   22  C   UNL     1     -43.919 -48.169   7.571  1.00  0.00     0.088 A 
HETATM   23  N   UNL     1     -42.863 -47.850   8.352  1.00  0.00    -0.369 N 
ATOM     24  HN  UNL     1     -41.908 -47.910   8.001  1.00  0.00     0.165 HD
ENDBRANCH  17  18
ENDBRANCH  16  17
ENDBRANCH   4  16
TORSDOF 4
ENDMDL
MODEL 3
REMARK VINA RESULT:      -6.5      1.840      2.890
REMARK  4 active torsions:
REMARK  status: ('A' for Active; 'I' for Inactive)
REMARK    1  A    between atoms: C_5  and  N_6 
REMARK       I    between atoms: N_6  and  C_7 
REMARK       I    between atoms: C_7  and  N_9 
REMARK    2  A    between atoms: N_9  and  C_10 
REMARK    3  A    between atoms: C_10  and  C_11 
REMARK    4  A    between atoms: C_11  and  C_12 
ROOT
HETATM    1  N   UNL     1     -42.339 -50.079  11.708  1.00  0.00    -0.336 N 
HETATM    2  C   UNL     1     -41.941 -48.805  11.388  1.00  0.00     0.316 C 
HETATM    3  O   UNL     1     -40.988 -48.232  11.897  1.00  0.00    -0.247 OA
HETATM    4  N   UNL     1     -42.735 -48.268  10.403  1.00  0.00    -0.343 N 
HETATM    5  H   UNL     1     -43.325 -50.262  11.587  1.00  0.00     0.164 HD
HETATM    6  H   UNL     1     -43.073 -48.963   9.753  1.00  0.00     0.164 HD
ENDROOT
BRANCH   1   7
HETATM    7  C   UNL     1     -41.616 -50.860  12.704  1.00  0.00     0.122 C 
HETATM    8  C   UNL     1     -41.406 -52.297  12.243  1.00  0.00     0.065 C 
HETATM    9  C   UNL     1     -41.926 -53.184  13.371  1.00  0.00     0.057 C 
HETATM   10  C   UNL     1     -40.931 -54.290  13.729  1.00  0.00     0.045 C 
HETATM   11  C   UNL     1     -43.268 -53.833  13.018  1.00  0.00     0.045 C 
HETATM   12  O   UNL     1     -42.100 -52.343  14.519  1.00  0.00    -0.369 OA
HETATM   13  C   UNL     1     -42.262 -50.967  14.106  1.00  0.00     0.075 C 
HETATM   14  C   UNL     1     -41.536 -50.093  15.133  1.00  0.00     0.048 C 
HETATM   15  C   UNL     1     -43.759 -50.636  14.165  1.00  0.00     0.048 C 
ENDBRANCH   1   7
BRANCH   4  16
HETATM   16  C   UNL     1     -42.372 -46.977   9.828  1.00  0.00     0.130 C 
BRANCH  16  17
HETATM   17  C   UNL     1     -43.586 -46.245   9.264  1.00  0.00     0.076 C 
BRANCH  17  18
HETATM   18  C   UNL     1     -44.641 -47.189   8.747  1.00  0.00     0.010 A 
HETATM   19  C   UNL     1     -45.852 -47.333   9.420  1.00  0.00     0.025 A 
HETATM   20  C   UNL     1     -46.787 -48.242   8.935  1.00  0.00     0.003 A 
HETATM   21  C   UNL     1     -46.496 -48.974   7.794  1.00  0.00     0.017 A 
HETATM   22  C   UNL     1     -45.277 -48.760   7.174  1.00  0.00     0.088 A 
HETATM   23  N   UNL     1     -44.348 -47.887   7.623  1.00  0.00    -0.369 N 
ATOM     24  HN  UNL     1     -43.462 -47.759   7.135  1.00  0.00     0.165 HD
ENDBRANCH  17  18
ENDBRANCH  16  17
ENDBRANCH   4  16
TORSDOF 4
ENDMDL
MODEL 4
REMARK VINA RESULT:      -6.5      2.112      7.532
REMARK  4 active torsions:
REMARK  status: ('A' for Active; 'I' for Inactive)
REMARK    1  A    between atoms: C_5  and  N_6 
REMARK       I    between atoms: N_6  and  C_7 
REMARK       I    between atoms: C_7  and  N_9 
REMARK    2  A    between atoms: N_9  and  C_10 
REMARK    3  A    between atoms: C_10  and  C_11 
REMARK    4  A    between atoms: C_11  and  C_12 
ROOT
HETATM    1  N   UNL     1     -41.968 -49.278  11.337  1.00  0.00    -0.336 N 
HETATM    2  C   UNL     1     -41.041 -50.236  11.668  1.00  0.00     0.316 C 
HETATM    3  O   UNL     1     -39.901 -50.274  11.228  1.00  0.00    -0.247 OA
HETATM    4  N   UNL     1     -41.553 -51.129  12.578  1.00  0.00    -0.343 N 
HETATM    5  H   UNL     1     -42.931 -49.581  11.382  1.00  0.00     0.164 HD
HETATM    6  H   UNL     1     -42.217 -50.705  13.210  1.00  0.00     0.164 HD
ENDROOT
BRANCH   1   7
HETATM    7  C   UNL     1     -41.632 -48.201  10.414  1.00  0.00     0.122 C 
HETATM    8  C   UNL     1     -40.713 -47.174  11.064  1.00  0.00     0.065 C 
HETATM    9  C   UNL     1     -41.374 -45.816  10.848  1.00  0.00     0.057 C 
HETATM   10  C   UNL     1     -40.382 -44.779  10.318  1.00  0.00     0.045 C 
HETATM   11  C   UNL     1     -42.004 -45.274  12.134  1.00  0.00     0.045 C 
HETATM   12  O   UNL     1     -42.402 -46.002   9.865  1.00  0.00    -0.369 OA
HETATM   13  C   UNL     1     -42.814 -47.388   9.835  1.00  0.00     0.075 C 
HETATM   14  C   UNL     1     -43.091 -47.750   8.374  1.00  0.00     0.048 C 
HETATM   15  C   UNL     1     -44.130 -47.499  10.616  1.00  0.00     0.048 C 
ENDBRANCH   1   7
BRANCH   4  16
HETATM   16  C   UNL     1     -40.665 -52.130  13.161  1.00  0.00     0.130 C 
BRANCH  16  17
HETATM   17  C   UNL     1     -41.020 -53.541  12.700  1.00  0.00     0.076 C 
BRANCH  17  18
HETATM   18  C   UNL     1     -42.364 -53.994  13.210  1.00  0.00     0.010 A 
HETATM   19  C   UNL     1     -42.481 -54.587  14.465  1.00  0.00     0.025 A 
HETATM   20  C   UNL     1     -43.731 -55.028  14.887  1.00  0.00     0.003 A 
HETATM   21  C   UNL     1     -44.828 -54.862  14.054  1.00  0.00     0.017 A 
HETATM   22  C   UNL     1     -44.631 -54.249  12.829  1.00  0.00     0.088 A 
HETATM   23  N   UNL     1     -43.429 -53.813  12.391  1.00  0.00    -0.369 N 
ATOM     24  HN  UNL     1     -43.328 -53.365  11.480  1.00  0.00     0.165 HD
ENDBRANCH  17  18
ENDBRANCH  16  17
ENDBRANCH   4  16
TORSDOF 4
ENDMDL
MODEL 5
REMARK VINA RESULT:      -6.3      2.472      2.852
REMARK  4 active torsions:
REMARK  status: ('A' for Active; 'I' for Inactive)
REMARK    1  A    between atoms: C_5  and  N_6 
REMARK       I    between atoms: N_6  and  C_7 
REMARK       I    between atoms: C_7  and  N_9 
REMARK    2  A    between atoms: N_9  and  C_10 
REMARK    3  A    between atoms: C_10  and  C_11 
REMARK    4  A    between atoms: C_11  and  C_12 
ROOT
HETATM    1  N   UNL     1     -42.647 -51.854  12.391  1.00  0.00    -0.336 N 
HETATM    2  C   UNL     1     -41.373 -51.482  12.040  1.00  0.00     0.316 C 
HETATM    3  O   UNL     1     -40.392 -52.206  12.134  1.00  0.00    -0.247 OA
HETATM    4  N   UNL     1     -41.348 -50.200  11.545  1.00  0.00    -0.343 N 
HETATM    5  H   UNL     1     -43.246 -51.099  12.694  1.00  0.00     0.164 HD
HETATM    6  H   UNL     1     -42.194 -49.958  11.049  1.00  0.00     0.164 HD
ENDROOT
BRANCH   1   7
HETATM    7  C   UNL     1     -42.919 -53.191  12.906  1.00  0.00     0.122 C 
HETATM    8  C   UNL     1     -44.339 -53.638  12.577  1.00  0.00     0.065 C 
HETATM    9  C   UNL     1     -44.961 -54.080  13.899  1.00  0.00     0.057 C 
HETATM   10  C   UNL     1     -45.654 -55.438  13.775  1.00  0.00     0.045 C 
HETATM   11  C   UNL     1     -45.977 -53.061  14.423  1.00  0.00     0.045 C 
HETATM   12  O   UNL     1     -43.891 -54.204  14.845  1.00  0.00    -0.369 OA
HETATM   13  C   UNL     1     -42.767 -53.391  14.433  1.00  0.00     0.075 C 
HETATM   14  C   UNL     1     -41.493 -54.165  14.780  1.00  0.00     0.048 C 
HETATM   15  C   UNL     1     -42.792 -52.105  15.268  1.00  0.00     0.048 C 
ENDBRANCH   1   7
BRANCH   4  16
HETATM   16  C   UNL     1     -40.106 -49.684  10.982  1.00  0.00     0.130 C 
BRANCH  16  17
HETATM   17  C   UNL     1     -39.337 -48.832  11.987  1.00  0.00     0.076 C 
BRANCH  17  18
HETATM   18  C   UNL     1     -39.653 -47.364  11.860  1.00  0.00     0.010 A 
HETATM   19  C   UNL     1     -39.537 -46.518  12.961  1.00  0.00     0.025 A 
HETATM   20  C   UNL     1     -39.874 -45.176  12.816  1.00  0.00     0.003 A 
HETATM   21  C   UNL     1     -40.309 -44.712  11.583  1.00  0.00     0.017 A 
HETATM   22  C   UNL     1     -40.381 -45.614  10.535  1.00  0.00     0.088 A 
HETATM   23  N   UNL     1     -40.063 -46.922  10.646  1.00  0.00    -0.369 N 
ATOM     24  HN  UNL     1     -40.129 -47.553   9.847  1.00  0.00     0.165 HD
ENDBRANCH  17  18
ENDBRANCH  16  17
ENDBRANCH   4  16
TORSDOF 4
ENDMDL
MODEL 6
REMARK VINA RESULT:      -6.1      2.246      3.396
REMARK  4 active torsions:
REMARK  status: ('A' for Active; 'I' for Inactive)
REMARK    1  A    between atoms: C_5  and  N_6 
REMARK       I    between atoms: N_6  and  C_7 
REMARK       I    between atoms: C_7  and  N_9 
REMARK    2  A    between atoms: N_9  and  C_10 
REMARK    3  A    between atoms: C_10  and  C_11 
REMARK    4  A    between atoms: C_11  and  C_12 
ROOT
HETATM    1  N   UNL     1     -43.218 -51.268  12.818  1.00  0.00    -0.336 N 
HETATM    2  C   UNL     1     -42.607 -50.049  12.660  1.00  0.00     0.316 C 
HETATM    3  O   UNL     1     -42.638 -49.149  13.488  1.00  0.00    -0.247 OA
HETATM    4  N   UNL     1     -41.935 -49.980  11.463  1.00  0.00    -0.343 N 
HETATM    5  H   UNL     1     -43.505 -51.717  11.960  1.00  0.00     0.164 HD
HETATM    6  H   UNL     1     -41.558 -50.872  11.177  1.00  0.00     0.164 HD
ENDROOT
BRANCH   1   7
HETATM    7  C   UNL     1     -43.959 -51.580  14.034  1.00  0.00     0.122 C 
HETATM    8  C   UNL     1     -43.134 -52.437  14.987  1.00  0.00     0.065 C 
HETATM    9  C   UNL     1     -44.002 -53.644  15.332  1.00  0.00     0.057 C 
HETATM   10  C   UNL     1     -44.037 -53.906  16.839  1.00  0.00     0.045 C 
HETATM   11  C   UNL     1     -43.523 -54.916  14.627  1.00  0.00     0.045 C 
HETATM   12  O   UNL     1     -45.334 -53.340  14.895  1.00  0.00    -0.369 OA
HETATM   13  C   UNL     1     -45.298 -52.334  13.857  1.00  0.00     0.075 C 
HETATM   14  C   UNL     1     -46.502 -51.412  14.072  1.00  0.00     0.048 C 
HETATM   15  C   UNL     1     -45.475 -53.049  12.511  1.00  0.00     0.048 C 
ENDBRANCH   1   7
BRANCH   4  16
HETATM   16  C   UNL     1     -41.101 -48.815  11.187  1.00  0.00     0.130 C 
BRANCH  16  17
HETATM   17  C   UNL     1     -41.842 -47.770  10.358  1.00  0.00     0.076 C 
BRANCH  17  18
HETATM   18  C   UNL     1     -41.344 -46.371  10.611  1.00  0.00     0.010 A 
HETATM   19  C   UNL     1     -42.190 -45.406  11.152  1.00  0.00     0.025 A 
HETATM   20  C   UNL     1     -41.706 -44.114  11.337  1.00  0.00     0.003 A 
HETATM   21  C   UNL     1     -40.396 -43.821  10.986  1.00  0.00     0.017 A 
HETATM   22  C   UNL     1     -39.615 -44.841  10.469  1.00  0.00     0.088 A 
HETATM   23  N   UNL     1     -40.058 -46.103  10.277  1.00  0.00    -0.369 N 
ATOM     24  HN  UNL     1     -39.448 -46.826   9.894  1.00  0.00     0.165 HD
ENDBRANCH  17  18
ENDBRANCH  16  17
ENDBRANCH   4  16
TORSDOF 4
ENDMDL
MODEL 7
REMARK VINA RESULT:      -6.1      2.181      3.890
REMARK  4 active torsions:
REMARK  status: ('A' for Active; 'I' for Inactive)
REMARK    1  A    between atoms: C_5  and  N_6 
REMARK       I    between atoms: N_6  and  C_7 
REMARK       I    between atoms: C_7  and  N_9 
REMARK    2  A    between atoms: N_9  and  C_10 
REMARK    3  A    between atoms: C_10  and  C_11 
REMARK    4  A    between atoms: C_11  and  C_12 
ROOT
HETATM    1  N   UNL     1     -43.851 -50.666  12.917  1.00  0.00    -0.336 N 
HETATM    2  C   UNL     1     -43.346 -49.390  12.898  1.00  0.00     0.316 C 
HETATM    3  O   UNL     1     -42.871 -48.822  13.871  1.00  0.00    -0.247 OA
HETATM    4  N   UNL     1     -43.418 -48.845  11.639  1.00  0.00    -0.343 N 
HETATM    5  H   UNL     1     -44.581 -50.847  12.243  1.00  0.00     0.164 HD
HETATM    6  H   UNL     1     -43.311 -49.535  10.909  1.00  0.00     0.164 HD
ENDROOT
BRANCH   1   7
HETATM    7  C   UNL     1     -43.841 -51.455  14.144  1.00  0.00     0.122 C 
HETATM    8  C   UNL     1     -43.228 -52.832  13.918  1.00  0.00     0.065 C 
HETATM    9  C   UNL     1     -44.241 -53.840  14.451  1.00  0.00     0.057 C 
HETATM   10  C   UNL     1     -43.583 -54.882  15.358  1.00  0.00     0.045 C 
HETATM   11  C   UNL     1     -44.972 -54.572  13.321  1.00  0.00     0.045 C 
HETATM   12  O   UNL     1     -45.196 -53.104  15.227  1.00  0.00    -0.369 OA
HETATM   13  C   UNL     1     -45.212 -51.719  14.810  1.00  0.00     0.075 C 
HETATM   14  C   UNL     1     -45.407 -50.867  16.067  1.00  0.00     0.048 C 
HETATM   15  C   UNL     1     -46.432 -51.521  13.901  1.00  0.00     0.048 C 
ENDBRANCH   1   7
BRANCH   4  16
HETATM   16  C   UNL     1     -42.792 -47.551  11.392  1.00  0.00     0.130 C 
BRANCH  16  17
HETATM   17  C   UNL     1     -41.515 -47.685  10.569  1.00  0.00     0.076 C 
BRANCH  17  18
HETATM   18  C   UNL     1     -40.356 -48.205  11.380  1.00  0.00     0.010 A 
HETATM   19  C   UNL     1     -39.898 -47.501  12.491  1.00  0.00     0.025 A 
HETATM   20  C   UNL     1     -38.802 -47.991  13.193  1.00  0.00     0.003 A 
HETATM   21  C   UNL     1     -38.198 -49.169  12.777  1.00  0.00     0.017 A 
HETATM   22  C   UNL     1     -38.724 -49.818  11.673  1.00  0.00     0.088 A 
HETATM   23  N   UNL     1     -39.785 -49.364  10.970  1.00  0.00    -0.369 N 
ATOM     24  HN  UNL     1     -40.142 -49.874  10.162  1.00  0.00     0.165 HD
ENDBRANCH  17  18
ENDBRANCH  16  17
ENDBRANCH   4  16
TORSDOF 4
ENDMDL
MODEL 8
REMARK VINA RESULT:      -6.1      3.536      6.929
REMARK  4 active torsions:
REMARK  status: ('A' for Active; 'I' for Inactive)
REMARK    1  A    between atoms: C_5  and  N_6 
REMARK       I    between atoms: N_6  and  C_7 
REMARK       I    between atoms: C_7  and  N_9 
REMARK    2  A    between atoms: N_9  and  C_10 
REMARK    3  A    between atoms: C_10  and  C_11 
REMARK    4  A    between atoms: C_11  and  C_12 
ROOT
HETATM    1  N   UNL     1     -40.261 -51.188  13.014  1.00  0.00    -0.336 N 
HETATM    2  C   UNL     1     -40.718 -52.482  13.026  1.00  0.00     0.316 C 
HETATM    3  O   UNL     1     -40.007 -53.464  13.187  1.00  0.00    -0.247 OA
HETATM    4  N   UNL     1     -42.082 -52.530  12.861  1.00  0.00    -0.343 N 
HETATM    5  H   UNL     1     -40.804 -50.548  12.453  1.00  0.00     0.164 HD
HETATM    6  H   UNL     1     -42.551 -51.732  13.266  1.00  0.00     0.164 HD
ENDROOT
BRANCH   1   7
HETATM    7  C   UNL     1     -38.846 -50.894  13.211  1.00  0.00     0.122 C 
HETATM    8  C   UNL     1     -38.510 -50.732  14.688  1.00  0.00     0.065 C 
HETATM    9  C   UNL     1     -37.788 -49.393  14.814  1.00  0.00     0.057 C 
HETATM   10  C   UNL     1     -36.506 -49.515  15.641  1.00  0.00     0.045 C 
HETATM   11  C   UNL     1     -38.676 -48.320  15.450  1.00  0.00     0.045 C 
HETATM   12  O   UNL     1     -37.433 -48.983  13.487  1.00  0.00    -0.369 OA
HETATM   13  C   UNL     1     -38.299 -49.622  12.522  1.00  0.00     0.075 C 
HETATM   14  C   UNL     1     -37.445 -49.962  11.297  1.00  0.00     0.048 C 
HETATM   15  C   UNL     1     -39.360 -48.597  12.099  1.00  0.00     0.048 C 
ENDBRANCH   1   7
BRANCH   4  16
HETATM   16  C   UNL     1     -42.766 -53.811  12.996  1.00  0.00     0.130 C 
BRANCH  16  17
HETATM   17  C   UNL     1     -44.206 -53.742  12.497  1.00  0.00     0.076 C 
BRANCH  17  18
HETATM   18  C   UNL     1     -45.129 -53.080  13.488  1.00  0.00     0.010 A 
HETATM   19  C   UNL     1     -45.902 -51.984  13.112  1.00  0.00     0.025 A 
HETATM   20  C   UNL     1     -46.714 -51.375  14.063  1.00  0.00     0.003 A 
HETATM   21  C   UNL     1     -46.740 -51.876  15.357  1.00  0.00     0.017 A 
HETATM   22  C   UNL     1     -45.954 -52.978  15.646  1.00  0.00     0.088 A 
HETATM   23  N   UNL     1     -45.155 -53.589  14.744  1.00  0.00    -0.369 N 
ATOM     24  HN  UNL     1     -44.592 -54.401  14.999  1.00  0.00     0.165 HD
ENDBRANCH  17  18
ENDBRANCH  16  17
ENDBRANCH   4  16
TORSDOF 4
ENDMDL
MODEL 9
REMARK VINA RESULT:      -5.9      2.295      4.081
REMARK  4 active torsions:
REMARK  status: ('A' for Active; 'I' for Inactive)
REMARK    1  A    between atoms: C_5  and  N_6 
REMARK       I    between atoms: N_6  and  C_7 
REMARK       I    between atoms: C_7  and  N_9 
REMARK    2  A    between atoms: N_9  and  C_10 
REMARK    3  A    between atoms: C_10  and  C_11 
REMARK    4  A    between atoms: C_11  and  C_12 
ROOT
HETATM    1  N   UNL     1     -43.677 -50.486  12.891  1.00  0.00    -0.336 N 
HETATM    2  C   UNL     1     -42.498 -50.296  12.214  1.00  0.00     0.316 C 
HETATM    3  O   UNL     1     -41.639 -51.154  12.070  1.00  0.00    -0.247 OA
HETATM    4  N   UNL     1     -42.421 -49.025  11.696  1.00  0.00    -0.343 N 
HETATM    5  H   UNL     1     -44.063 -49.656  13.318  1.00  0.00     0.164 HD
HETATM    6  H   UNL     1     -43.323 -48.658  11.428  1.00  0.00     0.164 HD
ENDROOT
BRANCH   1   7
HETATM    7  C   UNL     1     -43.993 -51.776  13.493  1.00  0.00     0.122 C 
HETATM    8  C   UNL     1     -45.449 -52.160  13.258  1.00  0.00     0.065 C 
HETATM    9  C   UNL     1     -46.026 -52.494  14.631  1.00  0.00     0.057 C 
HETATM   10  C   UNL     1     -46.796 -53.816  14.617  1.00  0.00     0.045 C 
HETATM   11  C   UNL     1     -46.958 -51.393  15.145  1.00  0.00     0.045 C 
HETATM   12  O   UNL     1     -44.917 -52.626  15.531  1.00  0.00    -0.369 OA
HETATM   13  C   UNL     1     -43.774 -51.901  15.019  1.00  0.00     0.075 C 
HETATM   14  C   UNL     1     -42.526 -52.725  15.348  1.00  0.00     0.048 C 
HETATM   15  C   UNL     1     -43.687 -50.572  15.781  1.00  0.00     0.048 C 
ENDBRANCH   1   7
BRANCH   4  16
HETATM   16  C   UNL     1     -41.306 -48.687  10.817  1.00  0.00     0.130 C 
BRANCH  16  17
HETATM   17  C   UNL     1     -40.154 -48.045  11.584  1.00  0.00     0.076 C 
BRANCH  17  18
HETATM   18  C   UNL     1     -39.101 -49.044  11.989  1.00  0.00     0.010 A 
HETATM   19  C   UNL     1     -38.865 -49.316  13.335  1.00  0.00     0.025 A 
HETATM   20  C   UNL     1     -37.859 -50.216  13.673  1.00  0.00     0.003 A 
HETATM   21  C   UNL     1     -37.123 -50.824  12.666  1.00  0.00     0.017 A 
HETATM   22  C   UNL     1     -37.431 -50.512  11.353  1.00  0.00     0.088 A 
HETATM   23  N   UNL     1     -38.400 -49.641  10.994  1.00  0.00    -0.369 N 
ATOM     24  HN  UNL     1     -38.596 -49.440  10.014  1.00  0.00     0.165 HD
ENDBRANCH  17  18
ENDBRANCH  16  17
ENDBRANCH   4  16
TORSDOF 4
ENDMDL
