MODEL 1
REMARK VINA RESULT:      -5.2      0.000      0.000
REMARK  7 active torsions:
REMARK  status: ('A' for Active; 'I' for Inactive)
REMARK    1  A    between atoms: C_2  and  C_3 
REMARK    2  A    between atoms: C_3  and  C_4 
REMARK    3  A    between atoms: C_4  and  S_5 
REMARK    4  A    between atoms: S_5  and  N_8 
REMARK    5  A    between atoms: N_8  and  C_9 
REMARK    6  A    between atoms: C_9  and  C_10 
REMARK    7  A    between atoms: C_10  and  C_13 
ROOT
HETATM    1  C   UNL     1     -42.024 -53.712  15.139  1.00  0.00    -0.001 A 
HETATM    2  C   UNL     1     -40.812 -54.612  15.344  1.00  0.00     0.017 A 
HETATM    3  C   UNL     1     -41.009 -53.435  16.247  1.00  0.00     0.017 A 
ENDROOT
BRANCH   1   4
HETATM    4  C   UNL     1     -43.397 -54.182  15.606  1.00  0.00     0.118 C 
BRANCH   4   5
HETATM    5  N   UNL     1     -43.878 -55.362  14.835  1.00  0.00    -0.219 NA
HETATM    6  H   UNL     1     -43.115 -55.728  14.264  1.00  0.00     0.139 HD
BRANCH   5   7
HETATM    7  S   UNL     1     -45.188 -54.934  13.839  1.00  0.00     0.209 S 
HETATM    8  O   UNL     1     -46.066 -56.082  13.839  1.00  0.00    -0.211 OA
HETATM    9  O   UNL     1     -44.657 -54.399  12.604  1.00  0.00    -0.211 OA
BRANCH   7  10
HETATM   10  C   UNL     1     -46.000 -53.630  14.747  1.00  0.00     0.161 C 
BRANCH  10  11
HETATM   11  C   UNL     1     -46.298 -52.417  13.884  1.00  0.00     0.042 C 
BRANCH  11  12
HETATM   12  C   UNL     1     -46.876 -51.299  14.708  1.00  0.00    -0.036 C 
HETATM   13  C   UNL     1     -47.235 -51.429  15.990  1.00  0.00     0.007 C 
ENDBRANCH  11  12
ENDBRANCH  10  11
ENDBRANCH   7  10
ENDBRANCH   5   7
ENDBRANCH   4   5
ENDBRANCH   1   4
BRANCH   1  14
HETATM   14  C   UNL     1     -42.011 -52.744  13.958  1.00  0.00    -0.046 A 
HETATM   15  C   UNL     1     -42.771 -51.565  13.981  1.00  0.00     0.025 A 
HETATM   16  C   UNL     1     -42.684 -50.670  12.925  1.00  0.00     0.088 A 
HETATM   17  N   UNL     1     -41.904 -50.864  11.844  1.00  0.00    -0.375 N 
HETATM   18  C   UNL     1     -41.184 -52.003  11.818  1.00  0.00     0.088 A 
ATOM     19  HN  UNL     1     -41.860 -50.183  11.086  1.00  0.00     0.164 HD
HETATM   20  C   UNL     1     -41.212 -52.957  12.827  1.00  0.00     0.025 A 
ENDBRANCH   1  14
TORSDOF 7
ENDMDL
MODEL 2
REMARK VINA RESULT:      -4.9      3.853      5.739
REMARK  7 active torsions:
REMARK  status: ('A' for Active; 'I' for Inactive)
REMARK    1  A    between atoms: C_2  and  C_3 
REMARK    2  A    between atoms: C_3  and  C_4 
REMARK    3  A    between atoms: C_4  and  S_5 
REMARK    4  A    between atoms: S_5  and  N_8 
REMARK    5  A    between atoms: N_8  and  C_9 
REMARK    6  A    between atoms: C_9  and  C_10 
REMARK    7  A    between atoms: C_10  and  C_13 
ROOT
HETATM    1  C   UNL     1     -42.340 -47.770  11.356  1.00  0.00    -0.001 A 
HETATM    2  C   UNL     1     -40.911 -47.275  11.170  1.00  0.00     0.017 A 
HETATM    3  C   UNL     1     -41.888 -46.424  11.918  1.00  0.00     0.017 A 
ENDROOT
BRANCH   1   4
HETATM    4  C   UNL     1     -42.631 -48.851  12.391  1.00  0.00     0.118 C 
BRANCH   4   5
HETATM    5  N   UNL     1     -42.237 -50.206  11.914  1.00  0.00    -0.219 NA
HETATM    6  H   UNL     1     -42.659 -50.380  11.000  1.00  0.00     0.139 HD
BRANCH   5   7
HETATM    7  S   UNL     1     -42.738 -51.400  13.015  1.00  0.00     0.209 S 
HETATM    8  O   UNL     1     -41.762 -51.380  14.080  1.00  0.00    -0.211 OA
HETATM    9  O   UNL     1     -43.008 -52.611  12.271  1.00  0.00    -0.211 OA
BRANCH   7  10
HETATM   10  C   UNL     1     -44.268 -50.755  13.669  1.00  0.00     0.161 C 
BRANCH  10  11
HETATM   11  C   UNL     1     -45.489 -51.360  13.002  1.00  0.00     0.042 C 
BRANCH  11  12
HETATM   12  C   UNL     1     -46.586 -51.603  14.003  1.00  0.00    -0.036 C 
HETATM   13  C   UNL     1     -46.471 -51.340  15.309  1.00  0.00     0.007 C 
ENDBRANCH  11  12
ENDBRANCH  10  11
ENDBRANCH   7  10
ENDBRANCH   5   7
ENDBRANCH   4   5
ENDBRANCH   1   4
BRANCH   1  14
HETATM   14  C   UNL     1     -43.283 -47.716  10.156  1.00  0.00    -0.046 A 
HETATM   15  C   UNL     1     -42.792 -47.812   8.845  1.00  0.00     0.025 A 
HETATM   16  C   UNL     1     -43.678 -47.833   7.779  1.00  0.00     0.088 A 
HETATM   17  N   UNL     1     -45.016 -47.755   7.918  1.00  0.00    -0.375 N 
HETATM   18  C   UNL     1     -45.485 -47.650   9.177  1.00  0.00     0.088 A 
ATOM     19  HN  UNL     1     -45.641 -47.776   7.112  1.00  0.00     0.164 HD
HETATM   20  C   UNL     1     -44.673 -47.618  10.303  1.00  0.00     0.025 A 
ENDBRANCH   1  14
TORSDOF 7
ENDMDL
MODEL 3
REMARK VINA RESULT:      -4.9      2.071      3.803
REMARK  7 active torsions:
REMARK  status: ('A' for Active; 'I' for Inactive)
REMARK    1  A    between atoms: C_2  and  C_3 
REMARK    2  A    between atoms: C_3  and  C_4 
REMARK    3  A    between atoms: C_4  and  S_5 
REMARK    4  A    between atoms: S_5  and  N_8 
REMARK    5  A    between atoms: N_8  and  C_9 
REMARK    6  A    between atoms: C_9  and  C_10 
REMARK    7  A    between atoms: C_10  and  C_13 
ROOT
HETATM    1  C   UNL     1     -43.230 -50.192  13.904  1.00  0.00    -0.001 A 
HETATM    2  C   UNL     1     -42.446 -50.535  15.164  1.00  0.00     0.017 A 
HETATM    3  C   UNL     1     -43.174 -49.231  15.090  1.00  0.00     0.017 A 
ENDROOT
BRANCH   1   4
HETATM    4  C   UNL     1     -44.581 -50.854  13.656  1.00  0.00     0.118 C 
BRANCH   4   5
HETATM    5  N   UNL     1     -44.466 -52.048  12.773  1.00  0.00    -0.219 NA
HETATM    6  H   UNL     1     -44.892 -51.843  11.868  1.00  0.00     0.139 HD
BRANCH   5   7
HETATM    7  S   UNL     1     -45.233 -53.392  13.477  1.00  0.00     0.209 S 
HETATM    8  O   UNL     1     -45.028 -54.484  12.554  1.00  0.00    -0.211 OA
HETATM    9  O   UNL     1     -46.564 -52.991  13.877  1.00  0.00    -0.211 OA
BRANCH   7  10
HETATM   10  C   UNL     1     -44.254 -53.721  14.933  1.00  0.00     0.161 C 
BRANCH  10  11
HETATM   11  C   UNL     1     -43.182 -54.767  14.690  1.00  0.00     0.042 C 
BRANCH  11  12
HETATM   12  C   UNL     1     -41.877 -54.122  14.308  1.00  0.00    -0.036 C 
HETATM   13  C   UNL     1     -41.384 -54.124  13.065  1.00  0.00     0.007 C 
ENDBRANCH  11  12
ENDBRANCH  10  11
ENDBRANCH   7  10
ENDBRANCH   5   7
ENDBRANCH   4   5
ENDBRANCH   1   4
BRANCH   1  14
HETATM   14  C   UNL     1     -42.448 -49.772  12.661  1.00  0.00    -0.046 A 
HETATM   15  C   UNL     1     -42.884 -48.707  11.858  1.00  0.00     0.025 A 
HETATM   16  C   UNL     1     -42.116 -48.302  10.777  1.00  0.00     0.088 A 
HETATM   17  N   UNL     1     -40.951 -48.882  10.429  1.00  0.00    -0.375 N 
HETATM   18  C   UNL     1     -40.540 -49.913  11.194  1.00  0.00     0.088 A 
ATOM     19  HN  UNL     1     -40.408 -48.558   9.629  1.00  0.00     0.164 HD
HETATM   20  C   UNL     1     -41.246 -50.389  12.292  1.00  0.00     0.025 A 
ENDBRANCH   1  14
TORSDOF 7
ENDMDL
MODEL 4
REMARK VINA RESULT:      -4.9      2.044      2.737
REMARK  7 active torsions:
REMARK  status: ('A' for Active; 'I' for Inactive)
REMARK    1  A    between atoms: C_2  and  C_3 
REMARK    2  A    between atoms: C_3  and  C_4 
REMARK    3  A    between atoms: C_4  and  S_5 
REMARK    4  A    between atoms: S_5  and  N_8 
REMARK    5  A    between atoms: N_8  and  C_9 
REMARK    6  A    between atoms: C_9  and  C_10 
REMARK    7  A    between atoms: C_10  and  C_13 
ROOT
HETATM    1  C   UNL     1     -41.325 -52.717  13.178  1.00  0.00    -0.001 A 
HETATM    2  C   UNL     1     -41.115 -54.204  12.921  1.00  0.00     0.017 A 
HETATM    3  C   UNL     1     -41.156 -53.705  14.330  1.00  0.00     0.017 A 
ENDROOT
BRANCH   1   4
HETATM    4  C   UNL     1     -42.718 -52.118  13.023  1.00  0.00     0.118 C 
BRANCH   4   5
HETATM    5  N   UNL     1     -43.545 -52.867  12.037  1.00  0.00    -0.219 NA
HETATM    6  H   UNL     1     -43.688 -52.291  11.206  1.00  0.00     0.139 HD
BRANCH   5   7
HETATM    7  S   UNL     1     -45.049 -53.288  12.710  1.00  0.00     0.209 S 
HETATM    8  O   UNL     1     -44.973 -54.707  12.974  1.00  0.00    -0.211 OA
HETATM    9  O   UNL     1     -46.088 -52.740  11.866  1.00  0.00    -0.211 OA
BRANCH   7  10
HETATM   10  C   UNL     1     -45.058 -52.444  14.282  1.00  0.00     0.161 C 
BRANCH  10  11
HETATM   11  C   UNL     1     -46.092 -51.333  14.342  1.00  0.00     0.042 C 
BRANCH  11  12
HETATM   12  C   UNL     1     -47.176 -51.660  15.333  1.00  0.00    -0.036 C 
HETATM   13  C   UNL     1     -47.168 -51.249  16.605  1.00  0.00     0.007 C 
ENDBRANCH  11  12
ENDBRANCH  10  11
ENDBRANCH   7  10
ENDBRANCH   5   7
ENDBRANCH   4   5
ENDBRANCH   1   4
BRANCH   1  14
HETATM   14  C   UNL     1     -40.153 -51.770  12.927  1.00  0.00    -0.046 A 
HETATM   15  C   UNL     1     -38.934 -51.934  13.601  1.00  0.00     0.025 A 
HETATM   16  C   UNL     1     -37.865 -51.103  13.300  1.00  0.00     0.088 A 
HETATM   17  N   UNL     1     -37.921 -50.116  12.386  1.00  0.00    -0.375 N 
HETATM   18  C   UNL     1     -39.097 -49.952  11.748  1.00  0.00     0.088 A 
ATOM     19  HN  UNL     1     -37.115 -49.524  12.186  1.00  0.00     0.164 HD
HETATM   20  C   UNL     1     -40.221 -50.733  11.987  1.00  0.00     0.025 A 
ENDBRANCH   1  14
TORSDOF 7
ENDMDL
MODEL 5
REMARK VINA RESULT:      -4.8      7.994      9.623
REMARK  7 active torsions:
REMARK  status: ('A' for Active; 'I' for Inactive)
REMARK    1  A    between atoms: C_2  and  C_3 
REMARK    2  A    between atoms: C_3  and  C_4 
REMARK    3  A    between atoms: C_4  and  S_5 
REMARK    4  A    between atoms: S_5  and  N_8 
REMARK    5  A    between atoms: N_8  and  C_9 
REMARK    6  A    between atoms: C_9  and  C_10 
REMARK    7  A    between atoms: C_10  and  C_13 
ROOT
HETATM    1  C   UNL     1     -42.862 -46.820  10.806  1.00  0.00    -0.001 A 
HETATM    2  C   UNL     1     -43.177 -47.296  12.219  1.00  0.00     0.017 A 
HETATM    3  C   UNL     1     -42.006 -47.882  11.494  1.00  0.00     0.017 A 
ENDROOT
BRANCH   1   4
HETATM    4  C   UNL     1     -42.192 -45.466  10.601  1.00  0.00     0.118 C 
BRANCH   4   5
HETATM    5  N   UNL     1     -42.824 -44.398  11.425  1.00  0.00    -0.219 NA
HETATM    6  H   UNL     1     -43.705 -44.114  10.995  1.00  0.00     0.139 HD
BRANCH   5   7
HETATM    7  S   UNL     1     -41.791 -43.054  11.560  1.00  0.00     0.209 S 
HETATM    8  O   UNL     1     -41.940 -42.585  12.919  1.00  0.00    -0.211 OA
HETATM    9  O   UNL     1     -42.043 -42.179  10.436  1.00  0.00    -0.211 OA
BRANCH   7  10
HETATM   10  C   UNL     1     -40.159 -43.759  11.406  1.00  0.00     0.161 C 
BRANCH  10  11
HETATM   11  C   UNL     1     -39.404 -43.777  12.723  1.00  0.00     0.042 C 
BRANCH  11  12
HETATM   12  C   UNL     1     -39.302 -45.176  13.266  1.00  0.00    -0.036 C 
HETATM   13  C   UNL     1     -40.241 -45.749  14.027  1.00  0.00     0.007 C 
ENDBRANCH  11  12
ENDBRANCH  10  11
ENDBRANCH   7  10
ENDBRANCH   5   7
ENDBRANCH   4   5
ENDBRANCH   1   4
BRANCH   1  14
HETATM   14  C   UNL     1     -43.753 -47.310   9.666  1.00  0.00    -0.046 A 
HETATM   15  C   UNL     1     -43.205 -47.677   8.427  1.00  0.00     0.025 A 
HETATM   16  C   UNL     1     -44.028 -48.186   7.435  1.00  0.00     0.088 A 
HETATM   17  N   UNL     1     -45.358 -48.348   7.578  1.00  0.00    -0.375 N 
HETATM   18  C   UNL     1     -45.884 -47.983   8.764  1.00  0.00     0.088 A 
ATOM     19  HN  UNL     1     -45.936 -48.729   6.829  1.00  0.00     0.164 HD
HETATM   20  C   UNL     1     -45.137 -47.461   9.812  1.00  0.00     0.025 A 
ENDBRANCH   1  14
TORSDOF 7
ENDMDL
MODEL 6
REMARK VINA RESULT:      -4.8      2.755      5.390
REMARK  7 active torsions:
REMARK  status: ('A' for Active; 'I' for Inactive)
REMARK    1  A    between atoms: C_2  and  C_3 
REMARK    2  A    between atoms: C_3  and  C_4 
REMARK    3  A    between atoms: C_4  and  S_5 
REMARK    4  A    between atoms: S_5  and  N_8 
REMARK    5  A    between atoms: N_8  and  C_9 
REMARK    6  A    between atoms: C_9  and  C_10 
REMARK    7  A    between atoms: C_10  and  C_13 
ROOT
HETATM    1  C   UNL     1     -45.346 -51.578  13.519  1.00  0.00    -0.001 A 
HETATM    2  C   UNL     1     -45.861 -52.830  12.821  1.00  0.00     0.017 A 
HETATM    3  C   UNL     1     -46.423 -51.498  12.440  1.00  0.00     0.017 A 
ENDROOT
BRANCH   1   4
HETATM    4  C   UNL     1     -43.984 -51.009  13.134  1.00  0.00     0.118 C 
BRANCH   4   5
HETATM    5  N   UNL     1     -43.141 -52.008  12.420  1.00  0.00    -0.219 NA
HETATM    6  H   UNL     1     -43.575 -52.930  12.488  1.00  0.00     0.139 HD
BRANCH   5   7
HETATM    7  S   UNL     1     -41.577 -52.059  13.084  1.00  0.00     0.209 S 
HETATM    8  O   UNL     1     -41.308 -50.717  13.548  1.00  0.00    -0.211 OA
HETATM    9  O   UNL     1     -40.705 -52.709  12.130  1.00  0.00    -0.211 OA
BRANCH   7  10
HETATM   10  C   UNL     1     -41.763 -53.103  14.520  1.00  0.00     0.161 C 
BRANCH  10  11
HETATM   11  C   UNL     1     -42.254 -54.495  14.170  1.00  0.00     0.042 C 
BRANCH  11  12
HETATM   12  C   UNL     1     -43.522 -54.822  14.912  1.00  0.00    -0.036 C 
HETATM   13  C   UNL     1     -43.899 -54.213  16.041  1.00  0.00     0.007 C 
ENDBRANCH  11  12
ENDBRANCH  10  11
ENDBRANCH   7  10
ENDBRANCH   5   7
ENDBRANCH   4   5
ENDBRANCH   1   4
BRANCH   1  14
HETATM   14  C   UNL     1     -45.806 -51.309  14.951  1.00  0.00    -0.046 A 
HETATM   15  C   UNL     1     -44.976 -50.640  15.863  1.00  0.00     0.025 A 
HETATM   16  C   UNL     1     -45.447 -50.346  17.134  1.00  0.00     0.088 A 
HETATM   17  N   UNL     1     -46.679 -50.676  17.568  1.00  0.00    -0.375 N 
HETATM   18  C   UNL     1     -47.470 -51.331  16.693  1.00  0.00     0.088 A 
ATOM     19  HN  UNL     1     -46.997 -50.443  18.508  1.00  0.00     0.164 HD
HETATM   20  C   UNL     1     -47.081 -51.670  15.404  1.00  0.00     0.025 A 
ENDBRANCH   1  14
TORSDOF 7
ENDMDL
MODEL 7
REMARK VINA RESULT:      -4.7      1.780      2.728
REMARK  7 active torsions:
REMARK  status: ('A' for Active; 'I' for Inactive)
REMARK    1  A    between atoms: C_2  and  C_3 
REMARK    2  A    between atoms: C_3  and  C_4 
REMARK    3  A    between atoms: C_4  and  S_5 
REMARK    4  A    between atoms: S_5  and  N_8 
REMARK    5  A    between atoms: N_8  and  C_9 
REMARK    6  A    between atoms: C_9  and  C_10 
REMARK    7  A    between atoms: C_10  and  C_13 
ROOT
HETATM    1  C   UNL     1     -42.683 -53.271  15.825  1.00  0.00    -0.001 A 
HETATM    2  C   UNL     1     -42.676 -51.998  16.662  1.00  0.00     0.017 A 
HETATM    3  C   UNL     1     -43.037 -51.918  15.213  1.00  0.00     0.017 A 
ENDROOT
BRANCH   1   4
HETATM    4  C   UNL     1     -43.841 -54.254  15.963  1.00  0.00     0.118 C 
BRANCH   4   5
HETATM    5  N   UNL     1     -43.883 -55.232  14.841  1.00  0.00    -0.219 NA
HETATM    6  H   UNL     1     -43.015 -55.172  14.305  1.00  0.00     0.139 HD
BRANCH   5   7
HETATM    7  S   UNL     1     -45.209 -54.922  13.823  1.00  0.00     0.209 S 
HETATM    8  O   UNL     1     -45.937 -56.168  13.742  1.00  0.00    -0.211 OA
HETATM    9  O   UNL     1     -44.717 -54.265  12.632  1.00  0.00    -0.211 OA
BRANCH   7  10
HETATM   10  C   UNL     1     -46.202 -53.774  14.762  1.00  0.00     0.161 C 
BRANCH  10  11
HETATM   11  C   UNL     1     -46.630 -52.569  13.946  1.00  0.00     0.042 C 
BRANCH  11  12
HETATM   12  C   UNL     1     -46.664 -51.327  14.795  1.00  0.00    -0.036 C 
HETATM   13  C   UNL     1     -46.783 -51.341  16.127  1.00  0.00     0.007 C 
ENDBRANCH  11  12
ENDBRANCH  10  11
ENDBRANCH   7  10
ENDBRANCH   5   7
ENDBRANCH   4   5
ENDBRANCH   1   4
BRANCH   1  14
HETATM   14  C   UNL     1     -41.340 -53.868  15.409  1.00  0.00    -0.046 A 
HETATM   15  C   UNL     1     -40.581 -54.635  16.306  1.00  0.00     0.025 A 
HETATM   16  C   UNL     1     -39.400 -55.224  15.879  1.00  0.00     0.088 A 
HETATM   17  N   UNL     1     -38.914 -55.099  14.629  1.00  0.00    -0.375 N 
HETATM   18  C   UNL     1     -39.638 -54.350  13.773  1.00  0.00     0.088 A 
ATOM     19  HN  UNL     1     -38.043 -55.548  14.346  1.00  0.00     0.164 HD
HETATM   20  C   UNL     1     -40.828 -53.721  14.114  1.00  0.00     0.025 A 
ENDBRANCH   1  14
TORSDOF 7
ENDMDL
MODEL 8
REMARK VINA RESULT:      -4.7      1.850      2.479
REMARK  7 active torsions:
REMARK  status: ('A' for Active; 'I' for Inactive)
REMARK    1  A    between atoms: C_2  and  C_3 
REMARK    2  A    between atoms: C_3  and  C_4 
REMARK    3  A    between atoms: C_4  and  S_5 
REMARK    4  A    between atoms: S_5  and  N_8 
REMARK    5  A    between atoms: N_8  and  C_9 
REMARK    6  A    between atoms: C_9  and  C_10 
REMARK    7  A    between atoms: C_10  and  C_13 
ROOT
HETATM    1  C   UNL     1     -41.627 -51.865  14.027  1.00  0.00    -0.001 A 
HETATM    2  C   UNL     1     -40.984 -52.552  15.225  1.00  0.00     0.017 A 
HETATM    3  C   UNL     1     -41.723 -51.267  15.429  1.00  0.00     0.017 A 
ENDROOT
BRANCH   1   4
HETATM    4  C   UNL     1     -42.930 -52.415  13.455  1.00  0.00     0.118 C 
BRANCH   4   5
HETATM    5  N   UNL     1     -42.931 -53.903  13.394  1.00  0.00    -0.219 NA
HETATM    6  H   UNL     1     -42.863 -54.203  12.420  1.00  0.00     0.139 HD
BRANCH   5   7
HETATM    7  S   UNL     1     -44.348 -54.532  14.092  1.00  0.00     0.209 S 
HETATM    8  O   UNL     1     -43.907 -55.569  14.997  1.00  0.00    -0.211 OA
HETATM    9  O   UNL     1     -45.284 -54.818  13.028  1.00  0.00    -0.211 OA
BRANCH   7  10
HETATM   10  C   UNL     1     -44.968 -53.180  15.078  1.00  0.00     0.161 C 
BRANCH  10  11
HETATM   11  C   UNL     1     -46.406 -52.827  14.744  1.00  0.00     0.042 C 
BRANCH  11  12
HETATM   12  C   UNL     1     -46.474 -51.569  13.921  1.00  0.00    -0.036 C 
HETATM   13  C   UNL     1     -46.624 -51.558  12.592  1.00  0.00     0.007 C 
ENDBRANCH  11  12
ENDBRANCH  10  11
ENDBRANCH   7  10
ENDBRANCH   5   7
ENDBRANCH   4   5
ENDBRANCH   1   4
BRANCH   1  14
HETATM   14  C   UNL     1     -40.718 -51.131  13.043  1.00  0.00    -0.046 A 
HETATM   15  C   UNL     1     -39.325 -51.294  13.087  1.00  0.00     0.025 A 
HETATM   16  C   UNL     1     -38.530 -50.672  12.136  1.00  0.00     0.088 A 
HETATM   17  N   UNL     1     -39.016 -49.892  11.151  1.00  0.00    -0.375 N 
HETATM   18  C   UNL     1     -40.354 -49.726  11.119  1.00  0.00     0.088 A 
ATOM     19  HN  UNL     1     -38.404 -49.451  10.465  1.00  0.00     0.164 HD
HETATM   20  C   UNL     1     -41.226 -50.307  12.031  1.00  0.00     0.025 A 
ENDBRANCH   1  14
TORSDOF 7
ENDMDL
MODEL 9
REMARK VINA RESULT:      -4.5      2.640      5.754
REMARK  7 active torsions:
REMARK  status: ('A' for Active; 'I' for Inactive)
REMARK    1  A    between atoms: C_2  and  C_3 
REMARK    2  A    between atoms: C_3  and  C_4 
REMARK    3  A    between atoms: C_4  and  S_5 
REMARK    4  A    between atoms: S_5  and  N_8 
REMARK    5  A    between atoms: N_8  and  C_9 
REMARK    6  A    between atoms: C_9  and  C_10 
REMARK    7  A    between atoms: C_10  and  C_13 
ROOT
HETATM    1  C   UNL     1     -45.968 -51.910  15.352  1.00  0.00    -0.001 A 
HETATM    2  C   UNL     1     -46.997 -52.649  14.505  1.00  0.00     0.017 A 
HETATM    3  C   UNL     1     -46.349 -51.416  13.958  1.00  0.00     0.017 A 
ENDROOT
BRANCH   1   4
HETATM    4  C   UNL     1     -44.560 -52.478  15.487  1.00  0.00     0.118 C 
BRANCH   4   5
HETATM    5  N   UNL     1     -44.566 -53.882  15.983  1.00  0.00    -0.219 NA
HETATM    6  H   UNL     1     -44.023 -53.940  16.846  1.00  0.00     0.139 HD
BRANCH   5   7
HETATM    7  S   UNL     1     -43.908 -54.933  14.819  1.00  0.00     0.209 S 
HETATM    8  O   UNL     1     -45.042 -55.531  14.151  1.00  0.00    -0.211 OA
HETATM    9  O   UNL     1     -42.906 -55.750  15.466  1.00  0.00    -0.211 OA
BRANCH   7  10
HETATM   10  C   UNL     1     -43.114 -53.833  13.659  1.00  0.00     0.161 C 
BRANCH  10  11
HETATM   11  C   UNL     1     -41.710 -54.281  13.297  1.00  0.00     0.042 C 
BRANCH  11  12
HETATM   12  C   UNL     1     -40.679 -53.383  13.926  1.00  0.00    -0.036 C 
HETATM   13  C   UNL     1     -39.415 -53.752  14.157  1.00  0.00     0.007 C 
ENDBRANCH  11  12
ENDBRANCH  10  11
ENDBRANCH   7  10
ENDBRANCH   5   7
ENDBRANCH   4   5
ENDBRANCH   1   4
BRANCH   1  14
HETATM   14  C   UNL     1     -46.470 -51.069  16.525  1.00  0.00    -0.046 A 
HETATM   15  C   UNL     1     -45.612 -50.192  17.204  1.00  0.00     0.025 A 
HETATM   16  C   UNL     1     -46.112 -49.388  18.218  1.00  0.00     0.088 A 
HETATM   17  N   UNL     1     -47.400 -49.399  18.611  1.00  0.00    -0.375 N 
HETATM   18  C   UNL     1     -48.220 -50.252  17.965  1.00  0.00     0.088 A 
ATOM     19  HN  UNL     1     -47.737 -48.792  19.359  1.00  0.00     0.164 HD
HETATM   20  C   UNL     1     -47.807 -51.096  16.943  1.00  0.00     0.025 A 
ENDBRANCH   1  14
TORSDOF 7
ENDMDL
