MODEL 1
REMARK VINA RESULT:      -6.1      0.000      0.000
REMARK  5 active torsions:
REMARK  status: ('A' for Active; 'I' for Inactive)
REMARK    1  A    between atoms: C_4  and  N_5 
REMARK       I    between atoms: N_5  and  C_6 
REMARK       I    between atoms: C_6  and  N_8 
REMARK    2  A    between atoms: N_8  and  C_9 
REMARK    3  A    between atoms: C_9  and  C_11 
REMARK    4  A    between atoms: C_9  and  C_13 
REMARK    5  A    between atoms: C_11  and  O_12 
ROOT
HETATM    1  N   UNL     1     -41.100 -49.197  10.617  1.00  0.00    -0.306 N 
HETATM    2  C   UNL     1     -41.266 -49.833  11.834  1.00  0.00     0.321 C 
HETATM    3  O   UNL     1     -41.916 -49.396  12.772  1.00  0.00    -0.247 OA
HETATM    4  N   UNL     1     -40.591 -51.028  11.906  1.00  0.00    -0.332 N 
HETATM    5  H   UNL     1     -40.475 -49.587   9.929  1.00  0.00     0.171 HD
HETATM    6  H   UNL     1     -40.122 -51.347  11.071  1.00  0.00     0.165 HD
ENDROOT
BRANCH   4   7
HETATM    7  C   UNL     1     -40.363 -51.814  13.149  1.00  0.00     0.055 C 
HETATM    8  C   UNL     1     -41.501 -51.604  14.185  1.00  0.00     0.041 C 
BRANCH   7   9
HETATM    9  C   UNL     1     -40.448 -53.318  12.726  1.00  0.00     0.195 C 
BRANCH   9  10
HETATM   10  O   UNL     1     -40.577 -53.468  11.309  1.00  0.00    -0.398 OA
HETATM   11  H   UNL     1     -41.530 -53.483  11.106  1.00  0.00     0.209 HD
ENDBRANCH   9  10
ENDBRANCH   7   9
BRANCH   7  12
HETATM   12  C   UNL     1     -38.958 -51.539  13.836  1.00  0.00     0.015 C 
HETATM   13  C   UNL     1     -38.906 -50.480  14.959  1.00  0.00     0.007 C 
HETATM   14  C   UNL     1     -38.785 -49.024  14.503  1.00  0.00     0.000 C 
HETATM   15  C   UNL     1     -37.839 -48.779  13.330  1.00  0.00     0.000 C 
HETATM   16  C   UNL     1     -37.837 -49.868  12.264  1.00  0.00     0.000 C 
HETATM   17  C   UNL     1     -37.779 -51.256  12.882  1.00  0.00     0.007 C 
ENDBRANCH   7  12
ENDBRANCH   4   7
BRANCH   1  18
HETATM   18  C   UNL     1     -41.670 -47.967  10.326  1.00  0.00     0.070 A 
HETATM   19  C   UNL     1     -42.844 -47.732   9.652  1.00  0.00     0.140 A 
HETATM   20  N   UNL     1     -43.000 -46.382   9.583  1.00  0.00    -0.306 N 
HETATM   21  C   UNL     1     -44.080 -45.695   8.924  1.00  0.00     0.177 C 
HETATM   22  N   UNL     1     -42.002 -45.700  10.189  1.00  0.00    -0.308 N 
HETATM   23  C   UNL     1     -41.200 -46.671  10.645  1.00  0.00     0.138 A 
ATOM     24  HN  UNL     1     -41.889 -44.691  10.278  1.00  0.00     0.186 HD
ENDBRANCH   1  18
TORSDOF 5
ENDMDL
MODEL 2
REMARK VINA RESULT:      -6.1      1.724      2.602
REMARK  5 active torsions:
REMARK  status: ('A' for Active; 'I' for Inactive)
REMARK    1  A    between atoms: C_4  and  N_5 
REMARK       I    between atoms: N_5  and  C_6 
REMARK       I    between atoms: C_6  and  N_8 
REMARK    2  A    between atoms: N_8  and  C_9 
REMARK    3  A    between atoms: C_9  and  C_11 
REMARK    4  A    between atoms: C_9  and  C_13 
REMARK    5  A    between atoms: C_11  and  O_12 
ROOT
HETATM    1  N   UNL     1     -42.036 -48.007   9.580  1.00  0.00    -0.306 N 
HETATM    2  C   UNL     1     -41.720 -48.649  10.764  1.00  0.00     0.321 C 
HETATM    3  O   UNL     1     -42.426 -48.673  11.761  1.00  0.00    -0.247 OA
HETATM    4  N   UNL     1     -40.487 -49.256  10.725  1.00  0.00    -0.332 N 
HETATM    5  H   UNL     1     -41.358 -47.962   8.836  1.00  0.00     0.171 HD
HETATM    6  H   UNL     1     -39.989 -49.239   9.848  1.00  0.00     0.165 HD
ENDROOT
BRANCH   4   7
HETATM    7  C   UNL     1     -39.760 -49.800  11.903  1.00  0.00     0.055 C 
HETATM    8  C   UNL     1     -40.183 -51.260  12.224  1.00  0.00     0.041 C 
BRANCH   7   9
HETATM    9  C   UNL     1     -38.255 -49.879  11.478  1.00  0.00     0.195 C 
BRANCH   9  10
HETATM   10  O   UNL     1     -37.743 -51.211  11.574  1.00  0.00    -0.398 OA
HETATM   11  H   UNL     1     -38.398 -51.738  12.067  1.00  0.00     0.209 HD
ENDBRANCH   9  10
ENDBRANCH   7   9
BRANCH   7  12
HETATM   12  C   UNL     1     -39.891 -48.907  13.210  1.00  0.00     0.015 C 
HETATM   13  C   UNL     1     -38.837 -47.798  13.426  1.00  0.00     0.007 C 
HETATM   14  C   UNL     1     -37.517 -48.241  14.059  1.00  0.00     0.000 C 
HETATM   15  C   UNL     1     -37.639 -49.256  15.193  1.00  0.00     0.000 C 
HETATM   16  C   UNL     1     -38.733 -50.300  15.009  1.00  0.00     0.000 C 
HETATM   17  C   UNL     1     -40.036 -49.669  14.542  1.00  0.00     0.007 C 
ENDBRANCH   7  12
ENDBRANCH   4   7
BRANCH   1  18
HETATM   18  C   UNL     1     -43.220 -47.307   9.397  1.00  0.00     0.070 A 
HETATM   19  C   UNL     1     -44.494 -47.820   9.368  1.00  0.00     0.140 A 
HETATM   20  N   UNL     1     -45.338 -46.776   9.145  1.00  0.00    -0.306 N 
HETATM   21  C   UNL     1     -46.768 -46.869   9.001  1.00  0.00     0.177 C 
HETATM   22  N   UNL     1     -44.699 -45.589   9.038  1.00  0.00    -0.308 N 
HETATM   23  C   UNL     1     -43.411 -45.919   9.199  1.00  0.00     0.138 A 
ATOM     24  HN  UNL     1     -45.102 -44.666   8.875  1.00  0.00     0.186 HD
ENDBRANCH   1  18
TORSDOF 5
ENDMDL
MODEL 3
REMARK VINA RESULT:      -5.9      2.454      3.672
REMARK  5 active torsions:
REMARK  status: ('A' for Active; 'I' for Inactive)
REMARK    1  A    between atoms: C_4  and  N_5 
REMARK       I    between atoms: N_5  and  C_6 
REMARK       I    between atoms: C_6  and  N_8 
REMARK    2  A    between atoms: N_8  and  C_9 
REMARK    3  A    between atoms: C_9  and  C_11 
REMARK    4  A    between atoms: C_9  and  C_13 
REMARK    5  A    between atoms: C_11  and  O_12 
ROOT
HETATM    1  N   UNL     1     -41.529 -49.742  11.107  1.00  0.00    -0.306 N 
HETATM    2  C   UNL     1     -42.379 -50.218  12.088  1.00  0.00     0.321 C 
HETATM    3  O   UNL     1     -43.082 -49.524  12.807  1.00  0.00    -0.247 OA
HETATM    4  N   UNL     1     -42.342 -51.588  12.204  1.00  0.00    -0.332 N 
HETATM    5  H   UNL     1     -40.919 -50.378  10.619  1.00  0.00     0.171 HD
HETATM    6  H   UNL     1     -41.779 -52.094  11.537  1.00  0.00     0.165 HD
ENDROOT
BRANCH   4   7
HETATM    7  C   UNL     1     -42.936 -52.373  13.319  1.00  0.00     0.055 C 
HETATM    8  C   UNL     1     -42.622 -51.744  14.704  1.00  0.00     0.041 C 
BRANCH   7   9
HETATM    9  C   UNL     1     -44.488 -52.258  13.144  1.00  0.00     0.195 C 
BRANCH   9  10
HETATM   10  O   UNL     1     -44.951 -52.985  12.003  1.00  0.00    -0.398 OA
HETATM   11  H   UNL     1     -44.637 -53.904  12.098  1.00  0.00     0.209 HD
ENDBRANCH   9  10
ENDBRANCH   7   9
BRANCH   7  12
HETATM   12  C   UNL     1     -42.519 -53.905  13.321  1.00  0.00     0.015 C 
HETATM   13  C   UNL     1     -42.717 -54.698  14.632  1.00  0.00     0.007 C 
HETATM   14  C   UNL     1     -41.604 -54.561  15.673  1.00  0.00     0.000 C 
HETATM   15  C   UNL     1     -40.181 -54.560  15.118  1.00  0.00     0.000 C 
HETATM   16  C   UNL     1     -40.009 -53.844  13.785  1.00  0.00     0.000 C 
HETATM   17  C   UNL     1     -41.103 -54.224  12.800  1.00  0.00     0.007 C 
ENDBRANCH   7  12
ENDBRANCH   4   7
BRANCH   1  18
HETATM   18  C   UNL     1     -41.384 -48.390  10.828  1.00  0.00     0.070 A 
HETATM   19  C   UNL     1     -40.395 -47.550  11.278  1.00  0.00     0.140 A 
HETATM   20  N   UNL     1     -40.662 -46.316  10.770  1.00  0.00    -0.306 N 
HETATM   21  C   UNL     1     -39.898 -45.121  11.024  1.00  0.00     0.177 C 
HETATM   22  N   UNL     1     -41.767 -46.287   9.993  1.00  0.00    -0.308 N 
HETATM   23  C   UNL     1     -42.198 -47.555  10.027  1.00  0.00     0.138 A 
ATOM     24  HN  UNL     1     -42.175 -45.493   9.500  1.00  0.00     0.186 HD
ENDBRANCH   1  18
TORSDOF 5
ENDMDL
MODEL 4
REMARK VINA RESULT:      -5.8      3.006      4.966
REMARK  5 active torsions:
REMARK  status: ('A' for Active; 'I' for Inactive)
REMARK    1  A    between atoms: C_4  and  N_5 
REMARK       I    between atoms: N_5  and  C_6 
REMARK       I    between atoms: C_6  and  N_8 
REMARK    2  A    between atoms: N_8  and  C_9 
REMARK    3  A    between atoms: C_9  and  C_11 
REMARK    4  A    between atoms: C_9  and  C_13 
REMARK    5  A    between atoms: C_11  and  O_12 
ROOT
HETATM    1  N   UNL     1     -41.965 -50.154  11.435  1.00  0.00    -0.306 N 
HETATM    2  C   UNL     1     -42.221 -50.862  12.595  1.00  0.00     0.321 C 
HETATM    3  O   UNL     1     -41.709 -50.641  13.682  1.00  0.00    -0.247 OA
HETATM    4  N   UNL     1     -43.114 -51.890  12.403  1.00  0.00    -0.332 N 
HETATM    5  H   UNL     1     -42.364 -50.459  10.562  1.00  0.00     0.171 HD
HETATM    6  H   UNL     1     -43.535 -51.974  11.490  1.00  0.00     0.165 HD
ENDROOT
BRANCH   4   7
HETATM    7  C   UNL     1     -43.396 -52.978  13.378  1.00  0.00     0.055 C 
HETATM    8  C   UNL     1     -44.302 -54.083  12.769  1.00  0.00     0.041 C 
BRANCH   7   9
HETATM    9  C   UNL     1     -42.019 -53.668  13.659  1.00  0.00     0.195 C 
BRANCH   9  10
HETATM   10  O   UNL     1     -41.459 -54.244  12.476  1.00  0.00    -0.398 OA
HETATM   11  H   UNL     1     -41.695 -55.190  12.476  1.00  0.00     0.209 HD
ENDBRANCH   9  10
ENDBRANCH   7   9
BRANCH   7  12
HETATM   12  C   UNL     1     -44.019 -52.469  14.748  1.00  0.00     0.015 C 
HETATM   13  C   UNL     1     -44.701 -53.517  15.655  1.00  0.00     0.007 C 
HETATM   14  C   UNL     1     -46.152 -53.860  15.310  1.00  0.00     0.000 C 
HETATM   15  C   UNL     1     -47.028 -52.677  14.903  1.00  0.00     0.000 C 
HETATM   16  C   UNL     1     -46.326 -51.609  14.075  1.00  0.00     0.000 C 
HETATM   17  C   UNL     1     -44.965 -51.256  14.654  1.00  0.00     0.007 C 
ENDBRANCH   7  12
ENDBRANCH   4   7
BRANCH   1  18
HETATM   18  C   UNL     1     -41.077 -49.088  11.385  1.00  0.00     0.070 A 
HETATM   19  C   UNL     1     -41.371 -47.774  11.116  1.00  0.00     0.140 A 
HETATM   20  N   UNL     1     -40.196 -47.089  11.154  1.00  0.00    -0.306 N 
HETATM   21  C   UNL     1     -40.036 -45.682  10.888  1.00  0.00     0.177 C 
HETATM   22  N   UNL     1     -39.133 -47.871  11.449  1.00  0.00    -0.308 N 
HETATM   23  C   UNL     1     -39.678 -49.086  11.594  1.00  0.00     0.138 A 
ATOM     24  HN  UNL     1     -38.154 -47.601  11.539  1.00  0.00     0.186 HD
ENDBRANCH   1  18
TORSDOF 5
ENDMDL
MODEL 5
REMARK VINA RESULT:      -5.8      3.516      6.056
REMARK  5 active torsions:
REMARK  status: ('A' for Active; 'I' for Inactive)
REMARK    1  A    between atoms: C_4  and  N_5 
REMARK       I    between atoms: N_5  and  C_6 
REMARK       I    between atoms: C_6  and  N_8 
REMARK    2  A    between atoms: N_8  and  C_9 
REMARK    3  A    between atoms: C_9  and  C_11 
REMARK    4  A    between atoms: C_9  and  C_13 
REMARK    5  A    between atoms: C_11  and  O_12 
ROOT
HETATM    1  N   UNL     1     -42.081 -51.617  11.850  1.00  0.00    -0.306 N 
HETATM    2  C   UNL     1     -43.067 -51.395  12.795  1.00  0.00     0.321 C 
HETATM    3  O   UNL     1     -42.930 -50.732  13.811  1.00  0.00    -0.247 OA
HETATM    4  N   UNL     1     -44.247 -52.032  12.491  1.00  0.00    -0.332 N 
HETATM    5  H   UNL     1     -42.253 -52.250  11.085  1.00  0.00     0.171 HD
HETATM    6  H   UNL     1     -44.298 -52.515  11.607  1.00  0.00     0.165 HD
ENDROOT
BRANCH   4   7
HETATM    7  C   UNL     1     -45.398 -52.199  13.419  1.00  0.00     0.055 C 
HETATM    8  C   UNL     1     -45.308 -51.236  14.635  1.00  0.00     0.041 C 
BRANCH   7   9
HETATM    9  C   UNL     1     -46.664 -51.750  12.615  1.00  0.00     0.195 C 
BRANCH   9  10
HETATM   10  O   UNL     1     -46.786 -52.452  11.375  1.00  0.00    -0.398 OA
HETATM   11  H   UNL     1     -47.204 -53.311  11.569  1.00  0.00     0.209 HD
ENDBRANCH   9  10
ENDBRANCH   7   9
BRANCH   7  12
HETATM   12  C   UNL     1     -45.601 -53.689  13.931  1.00  0.00     0.015 C 
HETATM   13  C   UNL     1     -45.915 -53.892  15.430  1.00  0.00     0.007 C 
HETATM   14  C   UNL     1     -44.710 -53.905  16.372  1.00  0.00     0.000 C 
HETATM   15  C   UNL     1     -43.480 -54.647  15.856  1.00  0.00     0.000 C 
HETATM   16  C   UNL     1     -43.221 -54.506  14.362  1.00  0.00     0.000 C 
HETATM   17  C   UNL     1     -44.495 -54.694  13.552  1.00  0.00     0.007 C 
ENDBRANCH   7  12
ENDBRANCH   4   7
BRANCH   1  18
HETATM   18  C   UNL     1     -40.802 -51.093  11.960  1.00  0.00     0.070 A 
HETATM   19  C   UNL     1     -39.761 -51.589  12.706  1.00  0.00     0.140 A 
HETATM   20  N   UNL     1     -38.708 -50.745  12.529  1.00  0.00    -0.306 N 
HETATM   21  C   UNL     1     -37.419 -50.868  13.162  1.00  0.00     0.177 C 
HETATM   22  N   UNL     1     -38.983 -49.719  11.694  1.00  0.00    -0.308 N 
HETATM   23  C   UNL     1     -40.258 -49.940  11.346  1.00  0.00     0.138 A 
ATOM     24  HN  UNL     1     -38.368 -48.961  11.399  1.00  0.00     0.186 HD
ENDBRANCH   1  18
TORSDOF 5
ENDMDL
MODEL 6
REMARK VINA RESULT:      -5.8      2.840      4.780
REMARK  5 active torsions:
REMARK  status: ('A' for Active; 'I' for Inactive)
REMARK    1  A    between atoms: C_4  and  N_5 
REMARK       I    between atoms: N_5  and  C_6 
REMARK       I    between atoms: C_6  and  N_8 
REMARK    2  A    between atoms: N_8  and  C_9 
REMARK    3  A    between atoms: C_9  and  C_11 
REMARK    4  A    between atoms: C_9  and  C_13 
REMARK    5  A    between atoms: C_11  and  O_12 
ROOT
HETATM    1  N   UNL     1     -43.224 -48.707  11.813  1.00  0.00    -0.306 N 
HETATM    2  C   UNL     1     -42.566 -49.830  12.284  1.00  0.00     0.321 C 
HETATM    3  O   UNL     1     -41.382 -50.073  12.113  1.00  0.00    -0.247 OA
HETATM    4  N   UNL     1     -43.399 -50.688  12.961  1.00  0.00    -0.332 N 
HETATM    5  H   UNL     1     -44.222 -48.628  11.923  1.00  0.00     0.171 HD
HETATM    6  H   UNL     1     -44.352 -50.390  13.108  1.00  0.00     0.165 HD
ENDROOT
BRANCH   4   7
HETATM    7  C   UNL     1     -43.059 -52.080  13.361  1.00  0.00     0.055 C 
HETATM    8  C   UNL     1     -42.240 -52.815  12.264  1.00  0.00     0.041 C 
BRANCH   7   9
HETATM    9  C   UNL     1     -42.099 -51.950  14.590  1.00  0.00     0.195 C 
BRANCH   9  10
HETATM   10  O   UNL     1     -40.731 -52.148  14.223  1.00  0.00    -0.398 OA
HETATM   11  H   UNL     1     -40.372 -52.841  14.807  1.00  0.00     0.209 HD
ENDBRANCH   9  10
ENDBRANCH   7   9
BRANCH   7  12
HETATM   12  C   UNL     1     -44.318 -52.959  13.767  1.00  0.00     0.015 C 
HETATM   13  C   UNL     1     -45.519 -52.978  12.796  1.00  0.00     0.007 C 
HETATM   14  C   UNL     1     -46.500 -51.810  12.919  1.00  0.00     0.000 C 
HETATM   15  C   UNL     1     -46.818 -51.367  14.345  1.00  0.00     0.000 C 
HETATM   16  C   UNL     1     -45.647 -51.426  15.316  1.00  0.00     0.000 C 
HETATM   17  C   UNL     1     -44.876 -52.730  15.186  1.00  0.00     0.007 C 
ENDBRANCH   7  12
ENDBRANCH   4   7
BRANCH   1  18
HETATM   18  C   UNL     1     -42.589 -47.715  11.080  1.00  0.00     0.070 A 
HETATM   19  C   UNL     1     -41.580 -46.886  11.504  1.00  0.00     0.140 A 
HETATM   20  N   UNL     1     -41.280 -46.061  10.464  1.00  0.00    -0.306 N 
HETATM   21  C   UNL     1     -40.302 -45.004  10.486  1.00  0.00     0.177 C 
HETATM   22  N   UNL     1     -42.024 -46.303   9.362  1.00  0.00    -0.308 N 
HETATM   23  C   UNL     1     -42.814 -47.316   9.742  1.00  0.00     0.138 A 
ATOM     24  HN  UNL     1     -41.991 -45.830   8.459  1.00  0.00     0.186 HD
ENDBRANCH   1  18
TORSDOF 5
ENDMDL
MODEL 7
REMARK VINA RESULT:      -5.6      3.271      6.458
REMARK  5 active torsions:
REMARK  status: ('A' for Active; 'I' for Inactive)
REMARK    1  A    between atoms: C_4  and  N_5 
REMARK       I    between atoms: N_5  and  C_6 
REMARK       I    between atoms: C_6  and  N_8 
REMARK    2  A    between atoms: N_8  and  C_9 
REMARK    3  A    between atoms: C_9  and  C_11 
REMARK    4  A    between atoms: C_9  and  C_13 
REMARK    5  A    between atoms: C_11  and  O_12 
ROOT
HETATM    1  N   UNL     1     -43.168 -52.405  12.350  1.00  0.00    -0.306 N 
HETATM    2  C   UNL     1     -42.769 -51.167  12.821  1.00  0.00     0.321 C 
HETATM    3  O   UNL     1     -42.989 -50.738  13.944  1.00  0.00    -0.247 OA
HETATM    4  N   UNL     1     -42.104 -50.427  11.872  1.00  0.00    -0.332 N 
HETATM    5  H   UNL     1     -43.022 -52.645  11.383  1.00  0.00     0.171 HD
HETATM    6  H   UNL     1     -41.914 -50.872  10.987  1.00  0.00     0.165 HD
ENDROOT
BRANCH   4   7
HETATM    7  C   UNL     1     -41.779 -48.980  11.983  1.00  0.00     0.055 C 
HETATM    8  C   UNL     1     -40.893 -48.677  13.223  1.00  0.00     0.041 C 
BRANCH   7   9
HETATM    9  C   UNL     1     -40.892 -48.644  10.738  1.00  0.00     0.195 C 
BRANCH   9  10
HETATM   10  O   UNL     1     -40.395 -49.825  10.103  1.00  0.00    -0.398 OA
HETATM   11  H   UNL     1     -40.891 -49.937   9.271  1.00  0.00     0.209 HD
ENDBRANCH   9  10
ENDBRANCH   7   9
BRANCH   7  12
HETATM   12  C   UNL     1     -43.053 -48.032  11.994  1.00  0.00     0.015 C 
HETATM   13  C   UNL     1     -43.630 -47.596  10.629  1.00  0.00     0.007 C 
HETATM   14  C   UNL     1     -42.948 -46.399   9.963  1.00  0.00     0.000 C 
HETATM   15  C   UNL     1     -42.557 -45.260  10.902  1.00  0.00     0.000 C 
HETATM   16  C   UNL     1     -42.063 -45.696  12.275  1.00  0.00     0.000 C 
HETATM   17  C   UNL     1     -42.955 -46.771  12.876  1.00  0.00     0.007 C 
ENDBRANCH   7  12
ENDBRANCH   4   7
BRANCH   1  18
HETATM   18  C   UNL     1     -43.875 -53.313  13.125  1.00  0.00     0.070 A 
HETATM   19  C   UNL     1     -45.237 -53.387  13.285  1.00  0.00     0.140 A 
HETATM   20  N   UNL     1     -45.481 -54.413  14.145  1.00  0.00    -0.306 N 
HETATM   21  C   UNL     1     -46.779 -54.816  14.622  1.00  0.00     0.177 C 
HETATM   22  N   UNL     1     -44.357 -55.039  14.558  1.00  0.00    -0.308 N 
HETATM   23  C   UNL     1     -43.383 -54.369  13.928  1.00  0.00     0.138 A 
ATOM     24  HN  UNL     1     -44.272 -55.832  15.195  1.00  0.00     0.186 HD
ENDBRANCH   1  18
TORSDOF 5
ENDMDL
MODEL 8
REMARK VINA RESULT:      -5.6      3.670      6.152
REMARK  5 active torsions:
REMARK  status: ('A' for Active; 'I' for Inactive)
REMARK    1  A    between atoms: C_4  and  N_5 
REMARK       I    between atoms: N_5  and  C_6 
REMARK       I    between atoms: C_6  and  N_8 
REMARK    2  A    between atoms: N_8  and  C_9 
REMARK    3  A    between atoms: C_9  and  C_11 
REMARK    4  A    between atoms: C_9  and  C_13 
REMARK    5  A    between atoms: C_11  and  O_12 
ROOT
HETATM    1  N   UNL     1     -41.768 -51.135  13.962  1.00  0.00    -0.306 N 
HETATM    2  C   UNL     1     -42.148 -52.448  14.180  1.00  0.00     0.321 C 
HETATM    3  O   UNL     1     -41.791 -53.403  13.507  1.00  0.00    -0.247 OA
HETATM    4  N   UNL     1     -43.013 -52.581  15.240  1.00  0.00    -0.332 N 
HETATM    5  H   UNL     1     -42.179 -50.397  14.511  1.00  0.00     0.171 HD
HETATM    6  H   UNL     1     -43.216 -51.753  15.780  1.00  0.00     0.165 HD
ENDROOT
BRANCH   4   7
HETATM    7  C   UNL     1     -43.792 -53.806  15.565  1.00  0.00     0.055 C 
HETATM    8  C   UNL     1     -43.061 -55.098  15.105  1.00  0.00     0.041 C 
BRANCH   7   9
HETATM    9  C   UNL     1     -43.840 -53.881  17.127  1.00  0.00     0.195 C 
BRANCH   9  10
HETATM   10  O   UNL     1     -44.720 -54.911  17.586  1.00  0.00    -0.398 OA
HETATM   11  H   UNL     1     -45.137 -55.307  16.798  1.00  0.00     0.209 HD
ENDBRANCH   9  10
ENDBRANCH   7   9
BRANCH   7  12
HETATM   12  C   UNL     1     -45.273 -53.798  14.992  1.00  0.00     0.015 C 
HETATM   13  C   UNL     1     -45.457 -54.073  13.483  1.00  0.00     0.007 C 
HETATM   14  C   UNL     1     -45.265 -52.873  12.554  1.00  0.00     0.000 C 
HETATM   15  C   UNL     1     -45.849 -51.554  13.054  1.00  0.00     0.000 C 
HETATM   16  C   UNL     1     -45.734 -51.325  14.555  1.00  0.00     0.000 C 
HETATM   17  C   UNL     1     -46.130 -52.564  15.343  1.00  0.00     0.007 C 
ENDBRANCH   7  12
ENDBRANCH   4   7
BRANCH   1  18
HETATM   18  C   UNL     1     -40.918 -50.759  12.932  1.00  0.00     0.070 A 
HETATM   19  C   UNL     1     -39.554 -50.613  12.990  1.00  0.00     0.140 A 
HETATM   20  N   UNL     1     -39.144 -50.213  11.756  1.00  0.00    -0.306 N 
HETATM   21  C   UNL     1     -37.788 -49.904  11.382  1.00  0.00     0.177 C 
HETATM   22  N   UNL     1     -40.158 -50.098  10.870  1.00  0.00    -0.308 N 
HETATM   23  C   UNL     1     -41.235 -50.438  11.591  1.00  0.00     0.138 A 
ATOM     24  HN  UNL     1     -40.114 -49.820   9.890  1.00  0.00     0.186 HD
ENDBRANCH   1  18
TORSDOF 5
ENDMDL
MODEL 9
REMARK VINA RESULT:      -5.5      3.776      6.192
REMARK  5 active torsions:
REMARK  status: ('A' for Active; 'I' for Inactive)
REMARK    1  A    between atoms: C_4  and  N_5 
REMARK       I    between atoms: N_5  and  C_6 
REMARK       I    between atoms: C_6  and  N_8 
REMARK    2  A    between atoms: N_8  and  C_9 
REMARK    3  A    between atoms: C_9  and  C_11 
REMARK    4  A    between atoms: C_9  and  C_13 
REMARK    5  A    between atoms: C_11  and  O_12 
ROOT
HETATM    1  N   UNL     1     -42.101 -50.973  13.387  1.00  0.00    -0.306 N 
HETATM    2  C   UNL     1     -42.965 -52.006  13.071  1.00  0.00     0.321 C 
HETATM    3  O   UNL     1     -42.835 -52.768  12.125  1.00  0.00    -0.247 OA
HETATM    4  N   UNL     1     -44.035 -52.084  13.931  1.00  0.00    -0.332 N 
HETATM    5  H   UNL     1     -42.330 -50.337  14.133  1.00  0.00     0.171 HD
HETATM    6  H   UNL     1     -44.043 -51.455  14.720  1.00  0.00     0.165 HD
ENDROOT
BRANCH   4   7
HETATM    7  C   UNL     1     -45.255 -52.908  13.714  1.00  0.00     0.055 C 
HETATM    8  C   UNL     1     -46.074 -52.421  12.488  1.00  0.00     0.041 C 
BRANCH   7   9
HETATM    9  C   UNL     1     -44.742 -54.339  13.339  1.00  0.00     0.195 C 
BRANCH   9  10
HETATM   10  O   UNL     1     -45.787 -55.314  13.401  1.00  0.00    -0.398 OA
HETATM   11  H   UNL     1     -45.904 -55.554  14.339  1.00  0.00     0.209 HD
ENDBRANCH   9  10
ENDBRANCH   7   9
BRANCH   7  12
HETATM   12  C   UNL     1     -46.201 -53.005  14.985  1.00  0.00     0.015 C 
HETATM   13  C   UNL     1     -46.903 -51.711  15.453  1.00  0.00     0.007 C 
HETATM   14  C   UNL     1     -46.075 -50.782  16.343  1.00  0.00     0.000 C 
HETATM   15  C   UNL     1     -45.214 -51.475  17.395  1.00  0.00     0.000 C 
HETATM   16  C   UNL     1     -44.589 -52.791  16.953  1.00  0.00     0.000 C 
HETATM   17  C   UNL     1     -45.595 -53.676  16.234  1.00  0.00     0.007 C 
ENDBRANCH   7  12
ENDBRANCH   4   7
BRANCH   1  18
HETATM   18  C   UNL     1     -40.964 -50.690  12.643  1.00  0.00     0.070 A 
HETATM   19  C   UNL     1     -39.667 -51.025  12.947  1.00  0.00     0.140 A 
HETATM   20  N   UNL     1     -38.885 -50.529  11.949  1.00  0.00    -0.306 N 
HETATM   21  C   UNL     1     -37.449 -50.618  11.887  1.00  0.00     0.177 C 
HETATM   22  N   UNL     1     -39.590 -49.894  10.987  1.00  0.00    -0.308 N 
HETATM   23  C   UNL     1     -40.856 -50.001  11.412  1.00  0.00     0.138 A 
ATOM     24  HN  UNL     1     -39.242 -49.443  10.140  1.00  0.00     0.186 HD
ENDBRANCH   1  18
TORSDOF 5
ENDMDL
