MODEL 1
REMARK VINA RESULT:      -5.0      0.000      0.000
REMARK  1 active torsions:
REMARK  status: ('A' for Active; 'I' for Inactive)
REMARK    1  A    between atoms: N_7  and  C_10 
ROOT
HETATM    1  C   UNL     1     -46.937 -51.830  11.825  1.00  0.00     0.090 C 
HETATM    2  C   UNL     1     -45.793 -52.414  12.550  1.00  0.00     0.093 A 
HETATM    3  N   UNL     1     -45.874 -53.631  13.167  1.00  0.00    -0.334 N 
ATOM      4  HN  UNL     1     -46.678 -54.255  13.227  1.00  0.00     0.168 HD
HETATM    5  C   UNL     1     -44.670 -53.809  13.665  1.00  0.00     0.096 A 
HETATM    6  C   UNL     1     -44.220 -54.991  14.436  1.00  0.00     0.091 C 
HETATM    7  N   UNL     1     -43.882 -52.727  13.335  1.00  0.00    -0.273 N 
HETATM    8  N   UNL     1     -44.607 -51.807  12.666  1.00  0.00    -0.285 N 
ATOM      9  HN  UNL     1     -44.323 -50.885  12.334  1.00  0.00     0.188 HD
ENDROOT
BRANCH   7  10
HETATM   10  C   UNL     1     -42.478 -52.520  13.671  1.00  0.00     0.138 C 
HETATM   11  C   UNL     1     -42.057 -51.065  13.942  1.00  0.00     0.031 C 
HETATM   12  C   UNL     1     -41.738 -50.278  12.671  1.00  0.00     0.032 C 
HETATM   13  C   UNL     1     -40.842 -51.051  11.706  1.00  0.00     0.270 C 
HETATM   14  N   UNL     1     -41.362 -52.385  11.417  1.00  0.00     0.085 N 
HETATM   15  C   UNL     1     -41.533 -53.170  12.640  1.00  0.00     0.296 C 
HETATM   16  H   UNL     1     -40.737 -52.867  10.771  1.00  0.00     0.315 HD
ENDBRANCH   7  10
TORSDOF 1
ENDMDL
MODEL 2
REMARK VINA RESULT:      -4.8      5.239      6.718
REMARK  1 active torsions:
REMARK  status: ('A' for Active; 'I' for Inactive)
REMARK    1  A    between atoms: N_7  and  C_10 
ROOT
HETATM    1  C   UNL     1     -39.405 -44.608   9.874  1.00  0.00     0.090 C 
HETATM    2  C   UNL     1     -40.173 -45.763  10.375  1.00  0.00     0.093 A 
HETATM    3  N   UNL     1     -41.485 -45.958  10.043  1.00  0.00    -0.334 N 
ATOM      4  HN  UNL     1     -42.082 -45.370   9.462  1.00  0.00     0.168 HD
HETATM    5  C   UNL     1     -41.796 -47.083  10.648  1.00  0.00     0.096 A 
HETATM    6  C   UNL     1     -43.117 -47.750  10.607  1.00  0.00     0.091 C 
HETATM    7  N   UNL     1     -40.685 -47.559  11.313  1.00  0.00    -0.273 N 
HETATM    8  N   UNL     1     -39.657 -46.694  11.185  1.00  0.00    -0.285 N 
ATOM      9  HN  UNL     1     -38.726 -46.739  11.600  1.00  0.00     0.188 HD
ENDROOT
BRANCH   7  10
HETATM   10  C   UNL     1     -40.581 -48.784  12.098  1.00  0.00     0.138 C 
HETATM   11  C   UNL     1     -39.650 -48.722  13.322  1.00  0.00     0.031 C 
HETATM   12  C   UNL     1     -38.180 -48.966  12.980  1.00  0.00     0.032 C 
HETATM   13  C   UNL     1     -37.979 -50.171  12.062  1.00  0.00     0.270 C 
HETATM   14  N   UNL     1     -38.823 -50.105  10.871  1.00  0.00     0.085 N 
HETATM   15  C   UNL     1     -40.240 -50.007  11.223  1.00  0.00     0.296 C 
HETATM   16  H   UNL     1     -38.659 -50.925  10.287  1.00  0.00     0.315 HD
ENDBRANCH   7  10
TORSDOF 1
ENDMDL
MODEL 3
REMARK VINA RESULT:      -4.7      5.347      7.922
REMARK  1 active torsions:
REMARK  status: ('A' for Active; 'I' for Inactive)
REMARK    1  A    between atoms: N_7  and  C_10 
ROOT
HETATM    1  C   UNL     1     -38.591 -44.558   8.827  1.00  0.00     0.090 C 
HETATM    2  C   UNL     1     -39.488 -44.916   9.942  1.00  0.00     0.093 A 
HETATM    3  N   UNL     1     -40.143 -43.966  10.675  1.00  0.00    -0.334 N 
ATOM      4  HN  UNL     1     -40.097 -42.952  10.578  1.00  0.00     0.168 HD
HETATM    5  C   UNL     1     -40.848 -44.667  11.535  1.00  0.00     0.096 A 
HETATM    6  C   UNL     1     -41.751 -44.112  12.569  1.00  0.00     0.091 C 
HETATM    7  N   UNL     1     -40.631 -46.009  11.307  1.00  0.00    -0.273 N 
HETATM    8  N   UNL     1     -39.723 -46.176  10.323  1.00  0.00    -0.285 N 
ATOM      9  HN  UNL     1     -39.319 -47.040   9.963  1.00  0.00     0.188 HD
ENDROOT
BRANCH   7  10
HETATM   10  C   UNL     1     -41.225 -47.136  12.019  1.00  0.00     0.138 C 
HETATM   11  C   UNL     1     -40.272 -47.941  12.920  1.00  0.00     0.031 C 
HETATM   12  C   UNL     1     -39.474 -49.003  12.163  1.00  0.00     0.032 C 
HETATM   13  C   UNL     1     -40.340 -49.832  11.218  1.00  0.00     0.270 C 
HETATM   14  N   UNL     1     -41.139 -48.997  10.324  1.00  0.00     0.085 N 
HETATM   15  C   UNL     1     -41.997 -48.078  11.073  1.00  0.00     0.296 C 
HETATM   16  H   UNL     1     -41.702 -49.587   9.712  1.00  0.00     0.315 HD
ENDBRANCH   7  10
TORSDOF 1
ENDMDL
MODEL 4
REMARK VINA RESULT:      -4.7      5.650      7.241
REMARK  1 active torsions:
REMARK  status: ('A' for Active; 'I' for Inactive)
REMARK    1  A    between atoms: N_7  and  C_10 
ROOT
HETATM    1  C   UNL     1     -44.274 -46.704   8.764  1.00  0.00     0.090 C 
HETATM    2  C   UNL     1     -43.043 -46.981   9.527  1.00  0.00     0.093 A 
HETATM    3  N   UNL     1     -42.742 -48.234   9.986  1.00  0.00    -0.334 N 
ATOM      4  HN  UNL     1     -43.291 -49.087   9.890  1.00  0.00     0.168 HD
HETATM    5  C   UNL     1     -41.579 -48.078  10.579  1.00  0.00     0.096 A 
HETATM    6  C   UNL     1     -40.801 -49.146  11.247  1.00  0.00     0.091 C 
HETATM    7  N   UNL     1     -41.185 -46.762  10.460  1.00  0.00    -0.273 N 
HETATM    8  N   UNL     1     -42.140 -46.043   9.834  1.00  0.00    -0.285 N 
ATOM      9  HN  UNL     1     -42.166 -45.041   9.643  1.00  0.00     0.188 HD
ENDROOT
BRANCH   7  10
HETATM   10  C   UNL     1     -39.954 -46.159  10.958  1.00  0.00     0.138 C 
HETATM   11  C   UNL     1     -39.908 -45.872  12.469  1.00  0.00     0.031 C 
HETATM   12  C   UNL     1     -40.565 -44.546  12.856  1.00  0.00     0.032 C 
HETATM   13  C   UNL     1     -40.138 -43.390  11.955  1.00  0.00     0.270 C 
HETATM   14  N   UNL     1     -40.308 -43.701  10.537  1.00  0.00     0.085 N 
HETATM   15  C   UNL     1     -39.560 -44.900  10.159  1.00  0.00     0.296 C 
HETATM   16  H   UNL     1     -40.012 -42.906   9.972  1.00  0.00     0.315 HD
ENDBRANCH   7  10
TORSDOF 1
ENDMDL
MODEL 5
REMARK VINA RESULT:      -4.6      2.105      3.659
REMARK  1 active torsions:
REMARK  status: ('A' for Active; 'I' for Inactive)
REMARK    1  A    between atoms: N_7  and  C_10 
ROOT
HETATM    1  C   UNL     1     -46.552 -51.005  16.787  1.00  0.00     0.090 C 
HETATM    2  C   UNL     1     -46.326 -51.631  15.471  1.00  0.00     0.093 A 
HETATM    3  N   UNL     1     -46.933 -51.167  14.337  1.00  0.00    -0.334 N 
ATOM      4  HN  UNL     1     -47.592 -50.395  14.246  1.00  0.00     0.168 HD
HETATM    5  C   UNL     1     -46.466 -51.952  13.391  1.00  0.00     0.096 A 
HETATM    6  C   UNL     1     -46.810 -51.870  11.953  1.00  0.00     0.091 C 
HETATM    7  N   UNL     1     -45.585 -52.855  13.948  1.00  0.00    -0.273 N 
HETATM    8  N   UNL     1     -45.529 -52.688  15.286  1.00  0.00    -0.285 N 
ATOM      9  HN  UNL     1     -45.011 -53.230  15.978  1.00  0.00     0.188 HD
ENDROOT
BRANCH   7  10
HETATM   10  C   UNL     1     -44.829 -53.894  13.258  1.00  0.00     0.138 C 
HETATM   11  C   UNL     1     -44.506 -55.152  14.083  1.00  0.00     0.031 C 
HETATM   12  C   UNL     1     -43.261 -55.002  14.958  1.00  0.00     0.032 C 
HETATM   13  C   UNL     1     -42.081 -54.390  14.207  1.00  0.00     0.270 C 
HETATM   14  N   UNL     1     -42.440 -53.144  13.534  1.00  0.00     0.085 N 
HETATM   15  C   UNL     1     -43.549 -53.339  12.600  1.00  0.00     0.296 C 
HETATM   16  H   UNL     1     -41.627 -52.769  13.045  1.00  0.00     0.315 HD
ENDBRANCH   7  10
TORSDOF 1
ENDMDL
MODEL 6
REMARK VINA RESULT:      -4.3      5.399      7.529
REMARK  1 active torsions:
REMARK  status: ('A' for Active; 'I' for Inactive)
REMARK    1  A    between atoms: N_7  and  C_10 
ROOT
HETATM    1  C   UNL     1     -40.461 -49.854  11.358  1.00  0.00     0.090 C 
HETATM    2  C   UNL     1     -41.066 -48.598  10.878  1.00  0.00     0.093 A 
HETATM    3  N   UNL     1     -42.230 -48.585  10.159  1.00  0.00    -0.334 N 
ATOM      4  HN  UNL     1     -42.793 -49.380   9.859  1.00  0.00     0.168 HD
HETATM    5  C   UNL     1     -42.451 -47.306   9.948  1.00  0.00     0.096 A 
HETATM    6  C   UNL     1     -43.603 -46.740   9.209  1.00  0.00     0.091 C 
HETATM    7  N   UNL     1     -41.449 -46.571  10.544  1.00  0.00    -0.273 N 
HETATM    8  N   UNL     1     -40.532 -47.392  11.097  1.00  0.00    -0.285 N 
ATOM      9  HN  UNL     1     -39.656 -47.154  11.563  1.00  0.00     0.188 HD
ENDROOT
BRANCH   7  10
HETATM   10  C   UNL     1     -41.311 -45.119  10.569  1.00  0.00     0.138 C 
HETATM   11  C   UNL     1     -39.875 -44.580  10.688  1.00  0.00     0.031 C 
HETATM   12  C   UNL     1     -39.363 -44.527  12.128  1.00  0.00     0.032 C 
HETATM   13  C   UNL     1     -40.376 -43.914  13.093  1.00  0.00     0.270 C 
HETATM   14  N   UNL     1     -41.688 -44.549  12.993  1.00  0.00     0.085 N 
HETATM   15  C   UNL     1     -42.220 -44.469  11.632  1.00  0.00     0.296 C 
HETATM   16  H   UNL     1     -42.333 -44.112  13.652  1.00  0.00     0.315 HD
ENDBRANCH   7  10
TORSDOF 1
ENDMDL
MODEL 7
REMARK VINA RESULT:      -4.3      1.605      2.419
REMARK  1 active torsions:
REMARK  status: ('A' for Active; 'I' for Inactive)
REMARK    1  A    between atoms: N_7  and  C_10 
ROOT
HETATM    1  C   UNL     1     -45.552 -52.724  12.439  1.00  0.00     0.090 C 
HETATM    2  C   UNL     1     -44.096 -52.574  12.619  1.00  0.00     0.093 A 
HETATM    3  N   UNL     1     -43.256 -53.654  12.651  1.00  0.00    -0.334 N 
ATOM      4  HN  UNL     1     -43.498 -54.642  12.580  1.00  0.00     0.168 HD
HETATM    5  C   UNL     1     -42.065 -53.118  12.796  1.00  0.00     0.096 A 
HETATM    6  C   UNL     1     -40.788 -53.862  12.883  1.00  0.00     0.091 C 
HETATM    7  N   UNL     1     -42.189 -51.745  12.831  1.00  0.00    -0.273 N 
HETATM    8  N   UNL     1     -43.490 -51.392  12.769  1.00  0.00    -0.285 N 
ATOM      9  HN  UNL     1     -43.905 -50.461  12.824  1.00  0.00     0.188 HD
ENDROOT
BRANCH   7  10
HETATM   10  C   UNL     1     -41.119 -50.763  12.962  1.00  0.00     0.138 C 
HETATM   11  C   UNL     1     -41.561 -49.323  13.280  1.00  0.00     0.031 C 
HETATM   12  C   UNL     1     -41.970 -48.526  12.042  1.00  0.00     0.032 C 
HETATM   13  C   UNL     1     -40.975 -48.667  10.892  1.00  0.00     0.270 C 
HETATM   14  N   UNL     1     -40.685 -50.065  10.581  1.00  0.00     0.085 N 
HETATM   15  C   UNL     1     -40.166 -50.777  11.749  1.00  0.00     0.296 C 
HETATM   16  H   UNL     1     -40.018 -50.116   9.810  1.00  0.00     0.315 HD
ENDBRANCH   7  10
TORSDOF 1
ENDMDL
MODEL 8
REMARK VINA RESULT:      -4.0      2.506      4.980
REMARK  1 active torsions:
REMARK  status: ('A' for Active; 'I' for Inactive)
REMARK    1  A    between atoms: N_7  and  C_10 
ROOT
HETATM    1  C   UNL     1     -41.748 -55.450  17.351  1.00  0.00     0.090 C 
HETATM    2  C   UNL     1     -42.098 -54.968  16.002  1.00  0.00     0.093 A 
HETATM    3  N   UNL     1     -41.143 -54.587  15.100  1.00  0.00    -0.334 N 
ATOM      4  HN  UNL     1     -40.131 -54.565  15.226  1.00  0.00     0.168 HD
HETATM    5  C   UNL     1     -41.835 -54.257  14.033  1.00  0.00     0.096 A 
HETATM    6  C   UNL     1     -41.271 -53.772  12.753  1.00  0.00     0.091 C 
HETATM    7  N   UNL     1     -43.176 -54.454  14.287  1.00  0.00    -0.273 N 
HETATM    8  N   UNL     1     -43.356 -54.861  15.561  1.00  0.00    -0.285 N 
ATOM      9  HN  UNL     1     -44.228 -55.040  16.060  1.00  0.00     0.188 HD
ENDROOT
BRANCH   7  10
HETATM   10  C   UNL     1     -44.292 -54.230  13.375  1.00  0.00     0.138 C 
HETATM   11  C   UNL     1     -44.696 -52.762  13.152  1.00  0.00     0.031 C 
HETATM   12  C   UNL     1     -45.634 -52.220  14.232  1.00  0.00     0.032 C 
HETATM   13  C   UNL     1     -46.782 -53.175  14.551  1.00  0.00     0.270 C 
HETATM   14  N   UNL     1     -46.310 -54.525  14.852  1.00  0.00     0.085 N 
HETATM   15  C   UNL     1     -45.525 -55.078  13.748  1.00  0.00     0.296 C 
HETATM   16  H   UNL     1     -47.105 -55.130  15.059  1.00  0.00     0.315 HD
ENDBRANCH   7  10
TORSDOF 1
ENDMDL
MODEL 9
REMARK VINA RESULT:      -3.8      2.174      3.063
REMARK  1 active torsions:
REMARK  status: ('A' for Active; 'I' for Inactive)
REMARK    1  A    between atoms: N_7  and  C_10 
ROOT
HETATM    1  C   UNL     1     -44.177 -49.672  16.559  1.00  0.00     0.090 C 
HETATM    2  C   UNL     1     -44.524 -50.901  15.822  1.00  0.00     0.093 A 
HETATM    3  N   UNL     1     -45.816 -51.334  15.705  1.00  0.00    -0.334 N 
ATOM      4  HN  UNL     1     -46.658 -50.913  16.095  1.00  0.00     0.168 HD
HETATM    5  C   UNL     1     -45.715 -52.420  14.971  1.00  0.00     0.096 A 
HETATM    6  C   UNL     1     -46.842 -53.280  14.542  1.00  0.00     0.091 C 
HETATM    7  N   UNL     1     -44.391 -52.620  14.641  1.00  0.00    -0.273 N 
HETATM    8  N   UNL     1     -43.617 -51.681  15.224  1.00  0.00    -0.285 N 
ATOM      9  HN  UNL     1     -42.601 -51.590  15.212  1.00  0.00     0.188 HD
ENDROOT
BRANCH   7  10
HETATM   10  C   UNL     1     -43.835 -53.694  13.827  1.00  0.00     0.138 C 
HETATM   11  C   UNL     1     -42.467 -54.240  14.274  1.00  0.00     0.031 C 
HETATM   12  C   UNL     1     -41.287 -53.412  13.763  1.00  0.00     0.032 C 
HETATM   13  C   UNL     1     -41.404 -53.070  12.279  1.00  0.00     0.270 C 
HETATM   14  N   UNL     1     -42.692 -52.462  11.952  1.00  0.00     0.085 N 
HETATM   15  C   UNL     1     -43.806 -53.332  12.328  1.00  0.00     0.296 C 
HETATM   16  H   UNL     1     -42.729 -52.249  10.955  1.00  0.00     0.315 HD
ENDBRANCH   7  10
TORSDOF 1
ENDMDL
