MODEL 1
REMARK VINA RESULT:      -6.0      0.000      0.000
REMARK  5 active torsions:
REMARK  status: ('A' for Active; 'I' for Inactive)
REMARK    1  A    between atoms: O_2  and  C_3 
REMARK    2  A    between atoms: C_8  and  N_9 
REMARK       I    between atoms: N_9  and  C_10 
REMARK       I    between atoms: C_10  and  N_12 
REMARK    3  A    between atoms: N_12  and  C_13 
REMARK    4  A    between atoms: C_13  and  C_14 
REMARK    5  A    between atoms: C_14  and  C_15 
ROOT
HETATM    1  N   UNL     1     -42.017 -50.747  11.712  1.00  0.00    -0.336 N 
HETATM    2  C   UNL     1     -42.461 -51.641  12.652  1.00  0.00     0.316 C 
HETATM    3  O   UNL     1     -42.309 -51.496  13.859  1.00  0.00    -0.247 OA
HETATM    4  N   UNL     1     -43.057 -52.741  12.090  1.00  0.00    -0.343 N 
HETATM    5  H   UNL     1     -42.563 -50.686  10.864  1.00  0.00     0.164 HD
HETATM    6  H   UNL     1     -42.996 -52.860  11.090  1.00  0.00     0.164 HD
ENDROOT
BRANCH   1   7
HETATM    7  C   UNL     1     -41.409 -49.492  12.149  1.00  0.00     0.115 C 
HETATM    8  C   UNL     1     -42.146 -48.260  11.562  1.00  0.00     0.143 C 
HETATM    9  C   UNL     1     -41.513 -46.983  12.138  1.00  0.00     0.034 C 
HETATM   10  C   UNL     1     -40.007 -46.908  11.879  1.00  0.00     0.003 C 
HETATM   11  C   UNL     1     -39.272 -48.173  12.320  1.00  0.00     0.002 C 
HETATM   12  C   UNL     1     -39.921 -49.447  11.778  1.00  0.00     0.028 C 
BRANCH   8  13
HETATM   13  O   UNL     1     -42.040 -48.334  10.127  1.00  0.00    -0.389 OA
HETATM   14  C   UNL     1     -43.043 -47.613   9.427  1.00  0.00     0.202 C 
ENDBRANCH   8  13
ENDBRANCH   1   7
BRANCH   4  15
HETATM   15  C   UNL     1     -43.434 -53.857  12.940  1.00  0.00     0.129 C 
BRANCH  15  16
HETATM   16  C   UNL     1     -44.943 -54.083  13.025  1.00  0.00     0.059 C 
BRANCH  16  17
HETATM   17  C   UNL     1     -45.565 -53.233  14.112  1.00  0.00    -0.048 A 
HETATM   18  C   UNL     1     -45.423 -53.641  15.449  1.00  0.00     0.024 A 
HETATM   19  C   UNL     1     -46.036 -52.902  16.449  1.00  0.00     0.088 A 
HETATM   20  N   UNL     1     -46.772 -51.800  16.219  1.00  0.00    -0.375 N 
HETATM   21  C   UNL     1     -46.901 -51.420  14.926  1.00  0.00     0.094 A 
ATOM     22  HN  UNL     1     -47.209 -51.278  16.979  1.00  0.00     0.164 HD
HETATM   23  C   UNL     1     -46.326 -52.084  13.843  1.00  0.00    -0.040 A 
HETATM   24  C   UNL     1     -46.555 -51.562  12.455  1.00  0.00     0.050 C 
ENDBRANCH  16  17
ENDBRANCH  15  16
ENDBRANCH   4  15
TORSDOF 5
ENDMDL
MODEL 2
REMARK VINA RESULT:      -5.9      1.248      1.955
REMARK  5 active torsions:
REMARK  status: ('A' for Active; 'I' for Inactive)
REMARK    1  A    between atoms: O_2  and  C_3 
REMARK    2  A    between atoms: C_8  and  N_9 
REMARK       I    between atoms: N_9  and  C_10 
REMARK       I    between atoms: C_10  and  N_12 
REMARK    3  A    between atoms: N_12  and  C_13 
REMARK    4  A    between atoms: C_13  and  C_14 
REMARK    5  A    between atoms: C_14  and  C_15 
ROOT
HETATM    1  N   UNL     1     -41.496 -49.488  11.446  1.00  0.00    -0.336 N 
HETATM    2  C   UNL     1     -42.217 -50.284  12.299  1.00  0.00     0.316 C 
HETATM    3  O   UNL     1     -42.758 -49.877  13.319  1.00  0.00    -0.247 OA
HETATM    4  N   UNL     1     -42.227 -51.598  11.907  1.00  0.00    -0.343 N 
HETATM    5  H   UNL     1     -41.507 -49.757  10.471  1.00  0.00     0.164 HD
HETATM    6  H   UNL     1     -41.623 -51.876  11.149  1.00  0.00     0.164 HD
ENDROOT
BRANCH   1   7
HETATM    7  C   UNL     1     -41.435 -48.048  11.689  1.00  0.00     0.115 C 
HETATM    8  C   UNL     1     -42.574 -47.291  10.959  1.00  0.00     0.143 C 
HETATM    9  C   UNL     1     -42.502 -45.802  11.336  1.00  0.00     0.034 C 
HETATM   10  C   UNL     1     -41.136 -45.186  11.030  1.00  0.00     0.003 C 
HETATM   11  C   UNL     1     -39.981 -45.994  11.621  1.00  0.00     0.002 C 
HETATM   12  C   UNL     1     -40.071 -47.481  11.277  1.00  0.00     0.028 C 
BRANCH   8  13
HETATM   13  O   UNL     1     -42.406 -47.513   9.545  1.00  0.00    -0.389 OA
HETATM   14  C   UNL     1     -43.616 -47.499   8.802  1.00  0.00     0.202 C 
ENDBRANCH   8  13
ENDBRANCH   1   7
BRANCH   4  15
HETATM   15  C   UNL     1     -42.805 -52.597  12.789  1.00  0.00     0.129 C 
BRANCH  15  16
HETATM   16  C   UNL     1     -44.129 -53.171  12.283  1.00  0.00     0.059 C 
BRANCH  16  17
HETATM   17  C   UNL     1     -45.246 -52.932  13.276  1.00  0.00    -0.048 A 
HETATM   18  C   UNL     1     -45.666 -51.613  13.512  1.00  0.00     0.024 A 
HETATM   19  C   UNL     1     -46.648 -51.375  14.460  1.00  0.00     0.088 A 
HETATM   20  N   UNL     1     -47.237 -52.344  15.184  1.00  0.00    -0.375 N 
HETATM   21  C   UNL     1     -46.820 -53.610  14.949  1.00  0.00     0.094 A 
ATOM     22  HN  UNL     1     -47.958 -52.136  15.875  1.00  0.00     0.164 HD
HETATM   23  C   UNL     1     -45.844 -53.965  14.017  1.00  0.00    -0.040 A 
HETATM   24  C   UNL     1     -45.468 -55.408  13.859  1.00  0.00     0.050 C 
ENDBRANCH  16  17
ENDBRANCH  15  16
ENDBRANCH   4  15
TORSDOF 5
ENDMDL
MODEL 3
REMARK VINA RESULT:      -5.7      2.755      3.946
REMARK  5 active torsions:
REMARK  status: ('A' for Active; 'I' for Inactive)
REMARK    1  A    between atoms: O_2  and  C_3 
REMARK    2  A    between atoms: C_8  and  N_9 
REMARK       I    between atoms: N_9  and  C_10 
REMARK       I    between atoms: C_10  and  N_12 
REMARK    3  A    between atoms: N_12  and  C_13 
REMARK    4  A    between atoms: C_13  and  C_14 
REMARK    5  A    between atoms: C_14  and  C_15 
ROOT
HETATM    1  N   UNL     1     -40.880 -47.979  10.718  1.00  0.00    -0.336 N 
HETATM    2  C   UNL     1     -40.740 -49.001  11.621  1.00  0.00     0.316 C 
HETATM    3  O   UNL     1     -40.582 -48.834  12.824  1.00  0.00    -0.247 OA
HETATM    4  N   UNL     1     -40.751 -50.235  11.023  1.00  0.00    -0.343 N 
HETATM    5  H   UNL     1     -41.451 -48.177   9.908  1.00  0.00     0.164 HD
HETATM    6  H   UNL     1     -40.720 -50.279  10.015  1.00  0.00     0.164 HD
ENDROOT
BRANCH   1   7
HETATM    7  C   UNL     1     -40.947 -46.601  11.200  1.00  0.00     0.115 C 
HETATM    8  C   UNL     1     -42.285 -45.919  10.812  1.00  0.00     0.143 C 
HETATM    9  C   UNL     1     -42.322 -44.512  11.432  1.00  0.00     0.034 C 
HETATM   10  C   UNL     1     -41.120 -43.660  11.021  1.00  0.00     0.003 C 
HETATM   11  C   UNL     1     -39.788 -44.368  11.262  1.00  0.00     0.002 C 
HETATM   12  C   UNL     1     -39.761 -45.781  10.678  1.00  0.00     0.028 C 
BRANCH   8  13
HETATM   13  O   UNL     1     -42.357 -45.893   9.373  1.00  0.00    -0.389 OA
HETATM   14  C   UNL     1     -43.601 -46.324   8.841  1.00  0.00     0.202 C 
ENDBRANCH   8  13
ENDBRANCH   1   7
BRANCH   4  15
HETATM   15  C   UNL     1     -40.448 -51.412  11.817  1.00  0.00     0.129 C 
BRANCH  15  16
HETATM   16  C   UNL     1     -41.528 -52.493  11.752  1.00  0.00     0.059 C 
BRANCH  16  17
HETATM   17  C   UNL     1     -41.581 -53.293  13.036  1.00  0.00    -0.048 A 
HETATM   18  C   UNL     1     -40.406 -53.429  13.793  1.00  0.00     0.024 A 
HETATM   19  C   UNL     1     -40.427 -54.206  14.940  1.00  0.00     0.088 A 
HETATM   20  N   UNL     1     -41.521 -54.852  15.384  1.00  0.00    -0.375 N 
HETATM   21  C   UNL     1     -42.645 -54.714  14.643  1.00  0.00     0.094 A 
ATOM     22  HN  UNL     1     -41.503 -55.416  16.234  1.00  0.00     0.164 HD
HETATM   23  C   UNL     1     -42.739 -53.955  13.477  1.00  0.00    -0.040 A 
HETATM   24  C   UNL     1     -44.046 -53.891  12.744  1.00  0.00     0.050 C 
ENDBRANCH  16  17
ENDBRANCH  15  16
ENDBRANCH   4  15
TORSDOF 5
ENDMDL
MODEL 4
REMARK VINA RESULT:      -5.6      2.423      7.153
REMARK  5 active torsions:
REMARK  status: ('A' for Active; 'I' for Inactive)
REMARK    1  A    between atoms: O_2  and  C_3 
REMARK    2  A    between atoms: C_8  and  N_9 
REMARK       I    between atoms: N_9  and  C_10 
REMARK       I    between atoms: C_10  and  N_12 
REMARK    3  A    between atoms: N_12  and  C_13 
REMARK    4  A    between atoms: C_13  and  C_14 
REMARK    5  A    between atoms: C_14  and  C_15 
ROOT
HETATM    1  N   UNL     1     -42.377 -51.741  12.095  1.00  0.00    -0.336 N 
HETATM    2  C   UNL     1     -42.152 -50.411  12.341  1.00  0.00     0.316 C 
HETATM    3  O   UNL     1     -42.631 -49.800  13.289  1.00  0.00    -0.247 OA
HETATM    4  N   UNL     1     -41.367 -49.826  11.381  1.00  0.00    -0.343 N 
HETATM    5  H   UNL     1     -41.628 -52.241  11.638  1.00  0.00     0.164 HD
HETATM    6  H   UNL     1     -41.151 -50.357  10.551  1.00  0.00     0.164 HD
ENDROOT
BRANCH   1   7
HETATM    7  C   UNL     1     -43.149 -52.526  13.056  1.00  0.00     0.115 C 
HETATM    8  C   UNL     1     -42.231 -53.299  14.038  1.00  0.00     0.143 C 
HETATM    9  C   UNL     1     -43.110 -54.023  15.073  1.00  0.00     0.034 C 
HETATM   10  C   UNL     1     -44.138 -54.949  14.422  1.00  0.00     0.003 C 
HETATM   11  C   UNL     1     -44.964 -54.246  13.346  1.00  0.00     0.002 C 
HETATM   12  C   UNL     1     -44.095 -53.496  12.337  1.00  0.00     0.028 C 
BRANCH   8  13
HETATM   13  O   UNL     1     -41.431 -54.209  13.258  1.00  0.00    -0.389 OA
HETATM   14  C   UNL     1     -40.051 -54.211  13.595  1.00  0.00     0.202 C 
ENDBRANCH   8  13
ENDBRANCH   1   7
BRANCH   4  15
HETATM   15  C   UNL     1     -41.171 -48.387  11.403  1.00  0.00     0.129 C 
BRANCH  15  16
HETATM   16  C   UNL     1     -39.709 -47.968  11.556  1.00  0.00     0.059 C 
BRANCH  16  17
HETATM   17  C   UNL     1     -39.090 -48.576  12.796  1.00  0.00    -0.048 A 
HETATM   18  C   UNL     1     -39.533 -48.136  14.054  1.00  0.00     0.024 A 
HETATM   19  C   UNL     1     -38.935 -48.644  15.196  1.00  0.00     0.088 A 
HETATM   20  N   UNL     1     -37.937 -49.547  15.179  1.00  0.00    -0.375 N 
HETATM   21  C   UNL     1     -37.519 -49.959  13.960  1.00  0.00     0.094 A 
ATOM     22  HN  UNL     1     -37.519 -49.901  16.039  1.00  0.00     0.164 HD
HETATM   23  C   UNL     1     -38.051 -49.521  12.747  1.00  0.00    -0.040 A 
HETATM   24  C   UNL     1     -37.490 -50.053  11.462  1.00  0.00     0.050 C 
ENDBRANCH  16  17
ENDBRANCH  15  16
ENDBRANCH   4  15
TORSDOF 5
ENDMDL
MODEL 5
REMARK VINA RESULT:      -5.5      2.604      7.269
REMARK  5 active torsions:
REMARK  status: ('A' for Active; 'I' for Inactive)
REMARK    1  A    between atoms: O_2  and  C_3 
REMARK    2  A    between atoms: C_8  and  N_9 
REMARK       I    between atoms: N_9  and  C_10 
REMARK       I    between atoms: C_10  and  N_12 
REMARK    3  A    between atoms: N_12  and  C_13 
REMARK    4  A    between atoms: C_13  and  C_14 
REMARK    5  A    between atoms: C_14  and  C_15 
ROOT
HETATM    1  N   UNL     1     -42.429 -51.697  12.113  1.00  0.00    -0.336 N 
HETATM    2  C   UNL     1     -41.082 -51.491  11.957  1.00  0.00     0.316 C 
HETATM    3  O   UNL     1     -40.223 -52.290  12.310  1.00  0.00    -0.247 OA
HETATM    4  N   UNL     1     -40.800 -50.270  11.402  1.00  0.00    -0.343 N 
HETATM    5  H   UNL     1     -43.027 -51.273  11.417  1.00  0.00     0.164 HD
HETATM    6  H   UNL     1     -41.553 -49.608  11.292  1.00  0.00     0.164 HD
ENDROOT
BRANCH   1   7
HETATM    7  C   UNL     1     -42.902 -52.976  12.639  1.00  0.00     0.115 C 
HETATM    8  C   UNL     1     -44.443 -53.111  12.526  1.00  0.00     0.143 C 
HETATM    9  C   UNL     1     -44.854 -54.512  13.009  1.00  0.00     0.034 C 
HETATM   10  C   UNL     1     -44.370 -54.808  14.429  1.00  0.00     0.003 C 
HETATM   11  C   UNL     1     -42.875 -54.546  14.606  1.00  0.00     0.002 C 
HETATM   12  C   UNL     1     -42.457 -53.168  14.094  1.00  0.00     0.028 C 
BRANCH   8  13
HETATM   13  O   UNL     1     -45.029 -52.058  13.316  1.00  0.00    -0.389 OA
HETATM   14  C   UNL     1     -46.385 -51.777  13.001  1.00  0.00     0.202 C 
ENDBRANCH   8  13
ENDBRANCH   1   7
BRANCH   4  15
HETATM   15  C   UNL     1     -39.418 -49.829  11.322  1.00  0.00     0.129 C 
BRANCH  15  16
HETATM   16  C   UNL     1     -39.157 -48.495  12.021  1.00  0.00     0.059 C 
BRANCH  16  17
HETATM   17  C   UNL     1     -38.336 -48.686  13.278  1.00  0.00    -0.048 A 
HETATM   18  C   UNL     1     -37.819 -49.962  13.556  1.00  0.00     0.024 A 
HETATM   19  C   UNL     1     -37.113 -50.164  14.732  1.00  0.00     0.088 A 
HETATM   20  N   UNL     1     -36.887 -49.200  15.642  1.00  0.00    -0.375 N 
HETATM   21  C   UNL     1     -37.393 -47.976  15.362  1.00  0.00     0.094 A 
ATOM     22  HN  UNL     1     -36.363 -49.381  16.498  1.00  0.00     0.164 HD
HETATM   23  C   UNL     1     -38.113 -47.659  14.211  1.00  0.00    -0.040 A 
HETATM   24  C   UNL     1     -38.627 -46.262  14.025  1.00  0.00     0.050 C 
ENDBRANCH  16  17
ENDBRANCH  15  16
ENDBRANCH   4  15
TORSDOF 5
ENDMDL
MODEL 6
REMARK VINA RESULT:      -5.5      2.204      7.140
REMARK  5 active torsions:
REMARK  status: ('A' for Active; 'I' for Inactive)
REMARK    1  A    between atoms: O_2  and  C_3 
REMARK    2  A    between atoms: C_8  and  N_9 
REMARK       I    between atoms: N_9  and  C_10 
REMARK       I    between atoms: C_10  and  N_12 
REMARK    3  A    between atoms: N_12  and  C_13 
REMARK    4  A    between atoms: C_13  and  C_14 
REMARK    5  A    between atoms: C_14  and  C_15 
ROOT
HETATM    1  N   UNL     1     -43.359 -50.719  12.717  1.00  0.00    -0.336 N 
HETATM    2  C   UNL     1     -42.769 -49.546  12.324  1.00  0.00     0.316 C 
HETATM    3  O   UNL     1     -43.175 -48.435  12.644  1.00  0.00    -0.247 OA
HETATM    4  N   UNL     1     -41.697 -49.750  11.494  1.00  0.00    -0.343 N 
HETATM    5  H   UNL     1     -42.743 -51.513  12.824  1.00  0.00     0.164 HD
HETATM    6  H   UNL     1     -41.529 -50.684  11.150  1.00  0.00     0.164 HD
ENDROOT
BRANCH   1   7
HETATM    7  C   UNL     1     -44.483 -50.678  13.652  1.00  0.00     0.115 C 
HETATM    8  C   UNL     1     -44.062 -51.117  15.078  1.00  0.00     0.143 C 
HETATM    9  C   UNL     1     -45.266 -50.958  16.021  1.00  0.00     0.034 C 
HETATM   10  C   UNL     1     -46.494 -51.731  15.538  1.00  0.00     0.003 C 
HETATM   11  C   UNL     1     -46.848 -51.422  14.084  1.00  0.00     0.002 C 
HETATM   12  C   UNL     1     -45.644 -51.544  13.150  1.00  0.00     0.028 C 
BRANCH   8  13
HETATM   13  O   UNL     1     -43.600 -52.480  14.993  1.00  0.00    -0.389 OA
HETATM   14  C   UNL     1     -43.003 -52.971  16.185  1.00  0.00     0.202 C 
ENDBRANCH   8  13
ENDBRANCH   1   7
BRANCH   4  15
HETATM   15  C   UNL     1     -41.063 -48.609  10.858  1.00  0.00     0.129 C 
BRANCH  15  16
HETATM   16  C   UNL     1     -39.958 -47.970  11.698  1.00  0.00     0.059 C 
BRANCH  16  17
HETATM   17  C   UNL     1     -39.007 -49.016  12.240  1.00  0.00    -0.048 A 
HETATM   18  C   UNL     1     -38.136 -49.661  11.347  1.00  0.00     0.024 A 
HETATM   19  C   UNL     1     -37.300 -50.660  11.820  1.00  0.00     0.088 A 
HETATM   20  N   UNL     1     -37.269 -51.061  13.104  1.00  0.00    -0.375 N 
HETATM   21  C   UNL     1     -38.115 -50.432  13.953  1.00  0.00     0.094 A 
ATOM     22  HN  UNL     1     -36.640 -51.799  13.421  1.00  0.00     0.164 HD
HETATM   23  C   UNL     1     -38.994 -49.413  13.588  1.00  0.00    -0.040 A 
HETATM   24  C   UNL     1     -39.886 -48.804  14.627  1.00  0.00     0.050 C 
ENDBRANCH  16  17
ENDBRANCH  15  16
ENDBRANCH   4  15
TORSDOF 5
ENDMDL
MODEL 7
REMARK VINA RESULT:      -5.4      2.508      7.819
REMARK  5 active torsions:
REMARK  status: ('A' for Active; 'I' for Inactive)
REMARK    1  A    between atoms: O_2  and  C_3 
REMARK    2  A    between atoms: C_8  and  N_9 
REMARK       I    between atoms: N_9  and  C_10 
REMARK       I    between atoms: C_10  and  N_12 
REMARK    3  A    between atoms: N_12  and  C_13 
REMARK    4  A    between atoms: C_13  and  C_14 
REMARK    5  A    between atoms: C_14  and  C_15 
ROOT
HETATM    1  N   UNL     1     -42.232 -51.738  12.009  1.00  0.00    -0.336 N 
HETATM    2  C   UNL     1     -42.046 -50.389  12.173  1.00  0.00     0.316 C 
HETATM    3  O   UNL     1     -42.549 -49.735  13.077  1.00  0.00    -0.247 OA
HETATM    4  N   UNL     1     -41.269 -49.844  11.184  1.00  0.00    -0.343 N 
HETATM    5  H   UNL     1     -41.465 -52.245  11.589  1.00  0.00     0.164 HD
HETATM    6  H   UNL     1     -41.030 -50.419  10.390  1.00  0.00     0.164 HD
ENDROOT
BRANCH   1   7
HETATM    7  C   UNL     1     -42.991 -52.484  13.012  1.00  0.00     0.115 C 
HETATM    8  C   UNL     1     -42.059 -53.223  14.007  1.00  0.00     0.143 C 
HETATM    9  C   UNL     1     -42.922 -53.903  15.083  1.00  0.00     0.034 C 
HETATM   10  C   UNL     1     -43.964 -54.849  14.485  1.00  0.00     0.003 C 
HETATM   11  C   UNL     1     -44.806 -54.184  13.397  1.00  0.00     0.002 C 
HETATM   12  C   UNL     1     -43.951 -53.476  12.345  1.00  0.00     0.028 C 
BRANCH   8  13
HETATM   13  O   UNL     1     -41.274 -54.164  13.249  1.00  0.00    -0.389 OA
HETATM   14  C   UNL     1     -39.925 -54.280  13.677  1.00  0.00     0.202 C 
ENDBRANCH   8  13
ENDBRANCH   1   7
BRANCH   4  15
HETATM   15  C   UNL     1     -41.112 -48.402  11.118  1.00  0.00     0.129 C 
BRANCH  15  16
HETATM   16  C   UNL     1     -39.888 -47.880  11.871  1.00  0.00     0.059 C 
BRANCH  16  17
HETATM   17  C   UNL     1     -39.907 -46.370  11.968  1.00  0.00    -0.048 A 
HETATM   18  C   UNL     1     -40.458 -45.633  10.907  1.00  0.00     0.024 A 
HETATM   19  C   UNL     1     -40.430 -44.249  10.958  1.00  0.00     0.088 A 
HETATM   20  N   UNL     1     -39.898 -43.550  11.978  1.00  0.00    -0.375 N 
HETATM   21  C   UNL     1     -39.369 -44.273  12.992  1.00  0.00     0.094 A 
ATOM     22  HN  UNL     1     -39.894 -42.530  11.985  1.00  0.00     0.164 HD
HETATM   23  C   UNL     1     -39.346 -45.666  13.048  1.00  0.00    -0.040 A 
HETATM   24  C   UNL     1     -38.721 -46.345  14.229  1.00  0.00     0.050 C 
ENDBRANCH  16  17
ENDBRANCH  15  16
ENDBRANCH   4  15
TORSDOF 5
ENDMDL
MODEL 8
REMARK VINA RESULT:      -5.4      2.230      7.396
REMARK  5 active torsions:
REMARK  status: ('A' for Active; 'I' for Inactive)
REMARK    1  A    between atoms: O_2  and  C_3 
REMARK    2  A    between atoms: C_8  and  N_9 
REMARK       I    between atoms: N_9  and  C_10 
REMARK       I    between atoms: C_10  and  N_12 
REMARK    3  A    between atoms: N_12  and  C_13 
REMARK    4  A    between atoms: C_13  and  C_14 
REMARK    5  A    between atoms: C_14  and  C_15 
ROOT
HETATM    1  N   UNL     1     -43.647 -51.130  12.762  1.00  0.00    -0.336 N 
HETATM    2  C   UNL     1     -42.700 -50.139  12.722  1.00  0.00     0.316 C 
HETATM    3  O   UNL     1     -42.577 -49.276  13.582  1.00  0.00    -0.247 OA
HETATM    4  N   UNL     1     -41.931 -50.194  11.588  1.00  0.00    -0.343 N 
HETATM    5  H   UNL     1     -43.391 -52.007  12.329  1.00  0.00     0.164 HD
HETATM    6  H   UNL     1     -42.202 -50.833  10.856  1.00  0.00     0.164 HD
ENDROOT
BRANCH   1   7
HETATM    7  C   UNL     1     -44.512 -51.247  13.934  1.00  0.00     0.115 C 
HETATM    8  C   UNL     1     -44.090 -52.428  14.846  1.00  0.00     0.143 C 
HETATM    9  C   UNL     1     -44.981 -52.431  16.099  1.00  0.00     0.034 C 
HETATM   10  C   UNL     1     -46.470 -52.493  15.758  1.00  0.00     0.003 C 
HETATM   11  C   UNL     1     -46.887 -51.425  14.748  1.00  0.00     0.002 C 
HETATM   12  C   UNL     1     -45.980 -51.396  13.517  1.00  0.00     0.028 C 
BRANCH   8  13
HETATM   13  O   UNL     1     -44.215 -53.639  14.074  1.00  0.00    -0.389 OA
HETATM   14  C   UNL     1     -43.607 -54.777  14.666  1.00  0.00     0.202 C 
ENDBRANCH   8  13
ENDBRANCH   1   7
BRANCH   4  15
HETATM   15  C   UNL     1     -40.993 -49.120  11.313  1.00  0.00     0.129 C 
BRANCH  15  16
HETATM   16  C   UNL     1     -39.530 -49.513  11.518  1.00  0.00     0.059 C 
BRANCH  16  17
HETATM   17  C   UNL     1     -38.929 -48.792  12.706  1.00  0.00    -0.048 A 
HETATM   18  C   UNL     1     -39.348 -47.480  12.979  1.00  0.00     0.024 A 
HETATM   19  C   UNL     1     -38.765 -46.789  14.029  1.00  0.00     0.088 A 
HETATM   20  N   UNL     1     -37.804 -47.303  14.819  1.00  0.00    -0.375 N 
HETATM   21  C   UNL     1     -37.409 -48.567  14.543  1.00  0.00     0.094 A 
ATOM     22  HN  UNL     1     -37.396 -46.768  15.585  1.00  0.00     0.164 HD
HETATM   23  C   UNL     1     -37.929 -49.355  13.516  1.00  0.00    -0.040 A 
HETATM   24  C   UNL     1     -37.396 -50.742  13.311  1.00  0.00     0.050 C 
ENDBRANCH  16  17
ENDBRANCH  15  16
ENDBRANCH   4  15
TORSDOF 5
ENDMDL
MODEL 9
REMARK VINA RESULT:      -5.4      2.421      3.979
REMARK  5 active torsions:
REMARK  status: ('A' for Active; 'I' for Inactive)
REMARK    1  A    between atoms: O_2  and  C_3 
REMARK    2  A    between atoms: C_8  and  N_9 
REMARK       I    between atoms: N_9  and  C_10 
REMARK       I    between atoms: C_10  and  N_12 
REMARK    3  A    between atoms: N_12  and  C_13 
REMARK    4  A    between atoms: C_13  and  C_14 
REMARK    5  A    between atoms: C_14  and  C_15 
ROOT
HETATM    1  N   UNL     1     -42.661 -49.792  11.736  1.00  0.00    -0.336 N 
HETATM    2  C   UNL     1     -42.760 -50.544  12.878  1.00  0.00     0.316 C 
HETATM    3  O   UNL     1     -42.251 -50.234  13.948  1.00  0.00    -0.247 OA
HETATM    4  N   UNL     1     -43.456 -51.709  12.680  1.00  0.00    -0.343 N 
HETATM    5  H   UNL     1     -43.443 -49.847  11.099  1.00  0.00     0.164 HD
HETATM    6  H   UNL     1     -43.700 -51.966  11.735  1.00  0.00     0.164 HD
ENDROOT
BRANCH   1   7
HETATM    7  C   UNL     1     -41.998 -48.490  11.791  1.00  0.00     0.115 C 
HETATM    8  C   UNL     1     -42.667 -47.462  10.842  1.00  0.00     0.143 C 
HETATM    9  C   UNL     1     -41.979 -46.099  11.024  1.00  0.00     0.034 C 
HETATM   10  C   UNL     1     -40.469 -46.170  10.796  1.00  0.00     0.003 C 
HETATM   11  C   UNL     1     -39.802 -47.274  11.616  1.00  0.00     0.002 C 
HETATM   12  C   UNL     1     -40.505 -48.622  11.465  1.00  0.00     0.028 C 
BRANCH   8  13
HETATM   13  O   UNL     1     -42.546 -47.970   9.499  1.00  0.00    -0.389 OA
HETATM   14  C   UNL     1     -43.522 -47.473   8.596  1.00  0.00     0.202 C 
ENDBRANCH   8  13
ENDBRANCH   1   7
BRANCH   4  15
HETATM   15  C   UNL     1     -43.510 -52.694  13.745  1.00  0.00     0.129 C 
BRANCH  15  16
HETATM   16  C   UNL     1     -42.854 -54.027  13.384  1.00  0.00     0.059 C 
BRANCH  16  17
HETATM   17  C   UNL     1     -41.524 -54.193  14.088  1.00  0.00    -0.048 A 
HETATM   18  C   UNL     1     -40.366 -53.702  13.464  1.00  0.00     0.024 A 
HETATM   19  C   UNL     1     -39.136 -53.898  14.071  1.00  0.00     0.088 A 
HETATM   20  N   UNL     1     -38.975 -54.541  15.241  1.00  0.00    -0.375 N 
HETATM   21  C   UNL     1     -40.099 -55.011  15.831  1.00  0.00     0.094 A 
ATOM     22  HN  UNL     1     -38.055 -54.668  15.663  1.00  0.00     0.164 HD
HETATM   23  C   UNL     1     -41.386 -54.867  15.313  1.00  0.00    -0.040 A 
HETATM   24  C   UNL     1     -42.550 -55.443  16.064  1.00  0.00     0.050 C 
ENDBRANCH  16  17
ENDBRANCH  15  16
ENDBRANCH   4  15
TORSDOF 5
ENDMDL
