MODEL 1
REMARK VINA RESULT:      -5.3      0.000      0.000
REMARK  3 active torsions:
REMARK  status: ('A' for Active; 'I' for Inactive)
REMARK    1  A    between atoms: C_6  and  N_8 
REMARK       I    between atoms: N_8  and  C_9 
REMARK    2  A    between atoms: C_9  and  C_11 
REMARK    3  A    between atoms: C_11  and  N_12 
ROOT
HETATM    1  N   UNL     1     -42.454 -52.039  12.275  1.00  0.00    -0.355 N 
HETATM    2  C   UNL     1     -41.934 -50.810  12.628  1.00  0.00     0.237 C 
HETATM    3  O   UNL     1     -42.210 -50.247  13.685  1.00  0.00    -0.272 OA
HETATM    4  H   UNL     1     -42.117 -52.519  11.450  1.00  0.00     0.162 HD
ENDROOT
BRANCH   1   5
HETATM    5  C   UNL     1     -43.375 -52.746  13.154  1.00  0.00     0.084 C 
HETATM    6  C   UNL     1     -42.785 -54.082  13.619  1.00  0.00     0.025 C 
HETATM    7  C   UNL     1     -43.751 -54.827  14.541  1.00  0.00     0.002 C 
HETATM    8  C   UNL     1     -45.127 -55.009  13.900  1.00  0.00     0.004 C 
HETATM    9  C   UNL     1     -45.730 -53.697  13.376  1.00  0.00    -0.017 C 
HETATM   10  C   UNL     1     -46.212 -52.799  14.519  1.00  0.00     0.010 C 
HETATM   11  C   UNL     1     -44.729 -52.967  12.466  1.00  0.00     0.029 C 
ENDBRANCH   1   5
BRANCH   2  12
HETATM   12  C   UNL     1     -41.004 -50.182  11.622  1.00  0.00     0.249 C 
BRANCH  12  13
HETATM   13  N   UNL     1     -39.633 -50.519  11.905  1.00  0.00    -0.264 N 
HETATM   14  C   UNL     1     -38.504 -49.809  11.650  1.00  0.00     0.213 A 
HETATM   15  N   UNL     1     -37.481 -50.466  12.145  1.00  0.00    -0.281 N 
HETATM   16  N   UNL     1     -38.006 -51.600  12.719  1.00  0.00    -0.008 NA
ATOM     17  HN  UNL     1     -36.500 -50.191  12.110  1.00  0.00     0.184 HD
HETATM   18  N   UNL     1     -39.324 -51.637  12.584  1.00  0.00    -0.005 NA
ENDBRANCH  12  13
ENDBRANCH   2  12
TORSDOF 3
ENDMDL
MODEL 2
REMARK VINA RESULT:      -5.2      3.671      6.282
REMARK  3 active torsions:
REMARK  status: ('A' for Active; 'I' for Inactive)
REMARK    1  A    between atoms: C_6  and  N_8 
REMARK       I    between atoms: N_8  and  C_9 
REMARK    2  A    between atoms: C_9  and  C_11 
REMARK    3  A    between atoms: C_11  and  N_12 
ROOT
HETATM    1  N   UNL     1     -43.178 -53.782  13.896  1.00  0.00    -0.355 N 
HETATM    2  C   UNL     1     -43.992 -54.800  14.350  1.00  0.00     0.237 C 
HETATM    3  O   UNL     1     -43.625 -55.629  15.180  1.00  0.00    -0.272 OA
HETATM    4  H   UNL     1     -43.553 -53.056  13.298  1.00  0.00     0.162 HD
ENDROOT
BRANCH   1   5
HETATM    5  C   UNL     1     -41.816 -53.632  14.389  1.00  0.00     0.084 C 
HETATM    6  C   UNL     1     -41.478 -52.161  14.653  1.00  0.00     0.025 C 
HETATM    7  C   UNL     1     -40.048 -52.002  15.168  1.00  0.00     0.002 C 
HETATM    8  C   UNL     1     -39.028 -52.658  14.237  1.00  0.00     0.004 C 
HETATM    9  C   UNL     1     -39.361 -54.121  13.908  1.00  0.00    -0.017 C 
HETATM   10  C   UNL     1     -39.093 -55.044  15.100  1.00  0.00     0.010 C 
HETATM   11  C   UNL     1     -40.808 -54.247  13.408  1.00  0.00     0.029 C 
ENDBRANCH   1   5
BRANCH   2  12
HETATM   12  C   UNL     1     -45.374 -54.848  13.749  1.00  0.00     0.249 C 
BRANCH  12  13
HETATM   13  N   UNL     1     -45.897 -53.521  13.552  1.00  0.00    -0.264 N 
HETATM   14  C   UNL     1     -46.473 -52.683  14.453  1.00  0.00     0.213 A 
HETATM   15  N   UNL     1     -46.735 -51.546  13.852  1.00  0.00    -0.281 N 
HETATM   16  N   UNL     1     -46.302 -51.698  12.555  1.00  0.00    -0.008 NA
ATOM     17  HN  UNL     1     -47.170 -50.720  14.262  1.00  0.00     0.184 HD
HETATM   18  N   UNL     1     -45.780 -52.903  12.365  1.00  0.00    -0.005 NA
ENDBRANCH  12  13
ENDBRANCH   2  12
TORSDOF 3
ENDMDL
MODEL 3
REMARK VINA RESULT:      -5.2      2.972      3.731
REMARK  3 active torsions:
REMARK  status: ('A' for Active; 'I' for Inactive)
REMARK    1  A    between atoms: C_6  and  N_8 
REMARK       I    between atoms: N_8  and  C_9 
REMARK    2  A    between atoms: C_9  and  C_11 
REMARK    3  A    between atoms: C_11  and  N_12 
ROOT
HETATM    1  N   UNL     1     -42.978 -53.423  14.782  1.00  0.00    -0.355 N 
HETATM    2  C   UNL     1     -42.637 -54.709  15.146  1.00  0.00     0.237 C 
HETATM    3  O   UNL     1     -43.450 -55.631  15.183  1.00  0.00    -0.272 OA
HETATM    4  H   UNL     1     -42.261 -52.719  14.658  1.00  0.00     0.162 HD
ENDROOT
BRANCH   1   5
HETATM    5  C   UNL     1     -44.346 -53.083  14.415  1.00  0.00     0.084 C 
HETATM    6  C   UNL     1     -44.535 -53.103  12.894  1.00  0.00     0.025 C 
HETATM    7  C   UNL     1     -45.969 -52.745  12.506  1.00  0.00     0.002 C 
HETATM    8  C   UNL     1     -46.410 -51.413  13.113  1.00  0.00     0.004 C 
HETATM    9  C   UNL     1     -46.189 -51.335  14.631  1.00  0.00    -0.017 C 
HETATM   10  C   UNL     1     -47.203 -52.193  15.395  1.00  0.00     0.010 C 
HETATM   11  C   UNL     1     -44.744 -51.716  14.987  1.00  0.00     0.029 C 
ENDBRANCH   1   5
BRANCH   2  12
HETATM   12  C   UNL     1     -41.191 -54.921  15.515  1.00  0.00     0.249 C 
BRANCH  12  13
HETATM   13  N   UNL     1     -40.341 -53.980  14.834  1.00  0.00    -0.264 N 
HETATM   14  C   UNL     1     -39.450 -53.097  15.352  1.00  0.00     0.213 A 
HETATM   15  N   UNL     1     -38.843 -52.489  14.359  1.00  0.00    -0.281 N 
HETATM   16  N   UNL     1     -39.379 -53.023  13.209  1.00  0.00    -0.008 NA
ATOM     17  HN  UNL     1     -38.124 -51.770  14.425  1.00  0.00     0.184 HD
HETATM   18  N   UNL     1     -40.291 -53.943  13.491  1.00  0.00    -0.005 NA
ENDBRANCH  12  13
ENDBRANCH   2  12
TORSDOF 3
ENDMDL
MODEL 4
REMARK VINA RESULT:      -5.1      1.780      2.395
REMARK  3 active torsions:
REMARK  status: ('A' for Active; 'I' for Inactive)
REMARK    1  A    between atoms: C_6  and  N_8 
REMARK       I    between atoms: N_8  and  C_9 
REMARK    2  A    between atoms: C_9  and  C_11 
REMARK    3  A    between atoms: C_11  and  N_12 
ROOT
HETATM    1  N   UNL     1     -43.325 -52.095  12.607  1.00  0.00    -0.355 N 
HETATM    2  C   UNL     1     -41.986 -52.058  12.938  1.00  0.00     0.237 C 
HETATM    3  O   UNL     1     -41.578 -52.206  14.088  1.00  0.00    -0.272 OA
HETATM    4  H   UNL     1     -43.613 -52.080  11.636  1.00  0.00     0.162 HD
ENDROOT
BRANCH   1   5
HETATM    5  C   UNL     1     -44.345 -52.318  13.622  1.00  0.00     0.084 C 
HETATM    6  C   UNL     1     -44.873 -53.756  13.576  1.00  0.00     0.025 C 
HETATM    7  C   UNL     1     -45.944 -53.991  14.640  1.00  0.00     0.002 C 
HETATM    8  C   UNL     1     -47.078 -52.970  14.545  1.00  0.00     0.004 C 
HETATM    9  C   UNL     1     -46.585 -51.515  14.538  1.00  0.00    -0.017 C 
HETATM   10  C   UNL     1     -46.100 -51.075  15.923  1.00  0.00     0.010 C 
HETATM   11  C   UNL     1     -45.499 -51.317  13.469  1.00  0.00     0.029 C 
ENDBRANCH   1   5
BRANCH   2  12
HETATM   12  C   UNL     1     -41.038 -51.807  11.794  1.00  0.00     0.249 C 
BRANCH  12  13
HETATM   13  N   UNL     1     -40.764 -50.401  11.650  1.00  0.00    -0.264 N 
HETATM   14  C   UNL     1     -39.575 -49.773  11.457  1.00  0.00     0.213 A 
HETATM   15  N   UNL     1     -39.804 -48.490  11.309  1.00  0.00    -0.281 N 
HETATM   16  N   UNL     1     -41.168 -48.337  11.409  1.00  0.00    -0.008 NA
ATOM     17  HN  UNL     1     -39.114 -47.756  11.151  1.00  0.00     0.184 HD
HETATM   18  N   UNL     1     -41.764 -49.504  11.611  1.00  0.00    -0.005 NA
ENDBRANCH  12  13
ENDBRANCH   2  12
TORSDOF 3
ENDMDL
MODEL 5
REMARK VINA RESULT:      -5.1      1.876      2.678
REMARK  3 active torsions:
REMARK  status: ('A' for Active; 'I' for Inactive)
REMARK    1  A    between atoms: C_6  and  N_8 
REMARK       I    between atoms: N_8  and  C_9 
REMARK    2  A    between atoms: C_9  and  C_11 
REMARK    3  A    between atoms: C_11  and  N_12 
ROOT
HETATM    1  N   UNL     1     -42.631 -51.885  13.982  1.00  0.00    -0.355 N 
HETATM    2  C   UNL     1     -41.666 -52.747  13.504  1.00  0.00     0.237 C 
HETATM    3  O   UNL     1     -41.928 -53.862  13.058  1.00  0.00    -0.272 OA
HETATM    4  H   UNL     1     -42.388 -50.936  14.238  1.00  0.00     0.162 HD
ENDROOT
BRANCH   1   5
HETATM    5  C   UNL     1     -44.039 -52.257  13.983  1.00  0.00     0.084 C 
HETATM    6  C   UNL     1     -44.918 -51.111  13.472  1.00  0.00     0.025 C 
HETATM    7  C   UNL     1     -46.396 -51.500  13.473  1.00  0.00     0.002 C 
HETATM    8  C   UNL     1     -46.856 -51.996  14.844  1.00  0.00     0.004 C 
HETATM    9  C   UNL     1     -45.968 -53.113  15.413  1.00  0.00    -0.017 C 
HETATM   10  C   UNL     1     -46.195 -54.442  14.686  1.00  0.00     0.010 C 
HETATM   11  C   UNL     1     -44.489 -52.697  15.382  1.00  0.00     0.029 C 
ENDBRANCH   1   5
BRANCH   2  12
HETATM   12  C   UNL     1     -40.247 -52.243  13.573  1.00  0.00     0.249 C 
BRANCH  12  13
HETATM   13  N   UNL     1     -40.009 -51.234  12.574  1.00  0.00    -0.264 N 
HETATM   14  C   UNL     1     -38.832 -50.696  12.160  1.00  0.00     0.213 A 
HETATM   15  N   UNL     1     -39.081 -49.863  11.177  1.00  0.00    -0.281 N 
HETATM   16  N   UNL     1     -40.444 -49.901  10.988  1.00  0.00    -0.008 NA
ATOM     17  HN  UNL     1     -38.404 -49.302  10.661  1.00  0.00     0.184 HD
HETATM   18  N   UNL     1     -41.018 -50.744  11.834  1.00  0.00    -0.005 NA
ENDBRANCH  12  13
ENDBRANCH   2  12
TORSDOF 3
ENDMDL
MODEL 6
REMARK VINA RESULT:      -4.9      4.536      6.723
REMARK  3 active torsions:
REMARK  status: ('A' for Active; 'I' for Inactive)
REMARK    1  A    between atoms: C_6  and  N_8 
REMARK       I    between atoms: N_8  and  C_9 
REMARK    2  A    between atoms: C_9  and  C_11 
REMARK    3  A    between atoms: C_11  and  N_12 
ROOT
HETATM    1  N   UNL     1     -40.857 -47.626  11.862  1.00  0.00    -0.355 N 
HETATM    2  C   UNL     1     -41.779 -47.365  10.870  1.00  0.00     0.237 C 
HETATM    3  O   UNL     1     -41.969 -48.122   9.919  1.00  0.00    -0.272 OA
HETATM    4  H   UNL     1     -40.809 -47.036  12.684  1.00  0.00     0.162 HD
ENDROOT
BRANCH   1   5
HETATM    5  C   UNL     1     -40.046 -48.836  11.837  1.00  0.00     0.084 C 
HETATM    6  C   UNL     1     -40.773 -50.008  12.506  1.00  0.00     0.025 C 
HETATM    7  C   UNL     1     -39.923 -51.277  12.481  1.00  0.00     0.002 C 
HETATM    8  C   UNL     1     -38.539 -51.050  13.089  1.00  0.00     0.004 C 
HETATM    9  C   UNL     1     -37.798 -49.851  12.478  1.00  0.00    -0.017 C 
HETATM   10  C   UNL     1     -37.295 -50.157  11.064  1.00  0.00     0.010 C 
HETATM   11  C   UNL     1     -38.685 -48.597  12.504  1.00  0.00     0.029 C 
ENDBRANCH   1   5
BRANCH   2  12
HETATM   12  C   UNL     1     -42.542 -46.073  11.010  1.00  0.00     0.249 C 
BRANCH  12  13
HETATM   13  N   UNL     1     -41.676 -44.939  10.817  1.00  0.00    -0.264 N 
HETATM   14  C   UNL     1     -41.742 -43.703  11.376  1.00  0.00     0.213 A 
HETATM   15  N   UNL     1     -40.704 -43.009  10.969  1.00  0.00    -0.281 N 
HETATM   16  N   UNL     1     -39.989 -43.849  10.146  1.00  0.00    -0.008 NA
ATOM     17  HN  UNL     1     -40.476 -42.045  11.212  1.00  0.00     0.184 HD
HETATM   18  N   UNL     1     -40.574 -45.036  10.054  1.00  0.00    -0.005 NA
ENDBRANCH  12  13
ENDBRANCH   2  12
TORSDOF 3
ENDMDL
MODEL 7
REMARK VINA RESULT:      -4.9      3.375      6.086
REMARK  3 active torsions:
REMARK  status: ('A' for Active; 'I' for Inactive)
REMARK    1  A    between atoms: C_6  and  N_8 
REMARK       I    between atoms: N_8  and  C_9 
REMARK    2  A    between atoms: C_9  and  C_11 
REMARK    3  A    between atoms: C_11  and  N_12 
ROOT
HETATM    1  N   UNL     1     -42.768 -52.977  14.279  1.00  0.00    -0.355 N 
HETATM    2  C   UNL     1     -43.253 -52.280  13.191  1.00  0.00     0.237 C 
HETATM    3  O   UNL     1     -42.522 -51.739  12.364  1.00  0.00    -0.272 OA
HETATM    4  H   UNL     1     -43.399 -53.500  14.874  1.00  0.00     0.162 HD
ENDROOT
BRANCH   1   5
HETATM    5  C   UNL     1     -41.337 -53.113  14.507  1.00  0.00     0.084 C 
HETATM    6  C   UNL     1     -40.777 -54.358  13.810  1.00  0.00     0.025 C 
HETATM    7  C   UNL     1     -39.275 -54.503  14.050  1.00  0.00     0.002 C 
HETATM    8  C   UNL     1     -38.929 -54.486  15.539  1.00  0.00     0.004 C 
HETATM    9  C   UNL     1     -39.515 -53.277  16.283  1.00  0.00    -0.017 C 
HETATM   10  C   UNL     1     -38.770 -51.984  15.939  1.00  0.00     0.010 C 
HETATM   11  C   UNL     1     -41.022 -53.151  16.009  1.00  0.00     0.029 C 
ENDBRANCH   1   5
BRANCH   2  12
HETATM   12  C   UNL     1     -44.755 -52.205  13.081  1.00  0.00     0.249 C 
BRANCH  12  13
HETATM   13  N   UNL     1     -45.369 -53.413  13.568  1.00  0.00    -0.264 N 
HETATM   14  C   UNL     1     -46.421 -53.561  14.414  1.00  0.00     0.213 A 
HETATM   15  N   UNL     1     -46.686 -54.841  14.524  1.00  0.00    -0.281 N 
HETATM   16  N   UNL     1     -45.774 -55.485  13.720  1.00  0.00    -0.008 NA
ATOM     17  HN  UNL     1     -47.418 -55.271  15.090  1.00  0.00     0.184 HD
HETATM   18  N   UNL     1     -44.969 -54.616  13.124  1.00  0.00    -0.005 NA
ENDBRANCH  12  13
ENDBRANCH   2  12
TORSDOF 3
ENDMDL
MODEL 8
REMARK VINA RESULT:      -4.8      2.764      6.280
REMARK  3 active torsions:
REMARK  status: ('A' for Active; 'I' for Inactive)
REMARK    1  A    between atoms: C_6  and  N_8 
REMARK       I    between atoms: N_8  and  C_9 
REMARK    2  A    between atoms: C_9  and  C_11 
REMARK    3  A    between atoms: C_11  and  N_12 
ROOT
HETATM    1  N   UNL     1     -42.981 -50.638  12.437  1.00  0.00    -0.355 N 
HETATM    2  C   UNL     1     -43.835 -50.741  13.516  1.00  0.00     0.237 C 
HETATM    3  O   UNL     1     -43.484 -50.506  14.670  1.00  0.00    -0.272 OA
HETATM    4  H   UNL     1     -43.335 -50.733  11.493  1.00  0.00     0.162 HD
ENDROOT
BRANCH   1   5
HETATM    5  C   UNL     1     -41.593 -50.235  12.612  1.00  0.00     0.084 C 
HETATM    6  C   UNL     1     -41.179 -49.191  11.569  1.00  0.00     0.025 C 
HETATM    7  C   UNL     1     -39.722 -48.768  11.751  1.00  0.00     0.002 C 
HETATM    8  C   UNL     1     -38.775 -49.968  11.756  1.00  0.00     0.004 C 
HETATM    9  C   UNL     1     -39.185 -51.060  12.755  1.00  0.00    -0.017 C 
HETATM   10  C   UNL     1     -38.904 -50.639  14.201  1.00  0.00     0.010 C 
HETATM   11  C   UNL     1     -40.658 -51.451  12.555  1.00  0.00     0.029 C 
ENDBRANCH   1   5
BRANCH   2  12
HETATM   12  C   UNL     1     -45.241 -51.181  13.195  1.00  0.00     0.249 C 
BRANCH  12  13
HETATM   13  N   UNL     1     -45.371 -52.611  13.301  1.00  0.00    -0.264 N 
HETATM   14  C   UNL     1     -46.141 -53.343  14.147  1.00  0.00     0.213 A 
HETATM   15  N   UNL     1     -46.001 -54.611  13.841  1.00  0.00    -0.281 N 
HETATM   16  N   UNL     1     -45.126 -54.648  12.779  1.00  0.00    -0.008 NA
ATOM     17  HN  UNL     1     -46.447 -55.407  14.297  1.00  0.00     0.184 HD
HETATM   18  N   UNL     1     -44.742 -53.426  12.437  1.00  0.00    -0.005 NA
ENDBRANCH  12  13
ENDBRANCH   2  12
TORSDOF 3
ENDMDL
MODEL 9
REMARK VINA RESULT:      -4.7      4.760      6.313
REMARK  3 active torsions:
REMARK  status: ('A' for Active; 'I' for Inactive)
REMARK    1  A    between atoms: C_6  and  N_8 
REMARK       I    between atoms: N_8  and  C_9 
REMARK    2  A    between atoms: C_9  and  C_11 
REMARK    3  A    between atoms: C_11  and  N_12 
ROOT
HETATM    1  N   UNL     1     -39.468 -48.117  11.370  1.00  0.00    -0.355 N 
HETATM    2  C   UNL     1     -39.809 -46.821  11.696  1.00  0.00     0.237 C 
HETATM    3  O   UNL     1     -39.653 -46.352  12.822  1.00  0.00    -0.272 OA
HETATM    4  H   UNL     1     -39.508 -48.431  10.408  1.00  0.00     0.162 HD
ENDROOT
BRANCH   1   5
HETATM    5  C   UNL     1     -38.893 -49.016  12.361  1.00  0.00     0.084 C 
HETATM    6  C   UNL     1     -37.905 -49.995  11.719  1.00  0.00     0.025 C 
HETATM    7  C   UNL     1     -37.301 -50.940  12.758  1.00  0.00     0.002 C 
HETATM    8  C   UNL     1     -38.378 -51.669  13.562  1.00  0.00     0.004 C 
HETATM    9  C   UNL     1     -39.417 -50.723  14.181  1.00  0.00    -0.017 C 
HETATM   10  C   UNL     1     -38.840 -49.947  15.369  1.00  0.00     0.010 C 
HETATM   11  C   UNL     1     -39.992 -49.778  13.114  1.00  0.00     0.029 C 
ENDBRANCH   1   5
BRANCH   2  12
HETATM   12  C   UNL     1     -40.407 -46.003  10.580  1.00  0.00     0.249 C 
BRANCH  12  13
HETATM   13  N   UNL     1     -41.776 -46.377  10.343  1.00  0.00    -0.264 N 
HETATM   14  C   UNL     1     -42.871 -45.584  10.205  1.00  0.00     0.213 A 
HETATM   15  N   UNL     1     -43.902 -46.348   9.930  1.00  0.00    -0.281 N 
HETATM   16  N   UNL     1     -43.418 -47.635   9.894  1.00  0.00    -0.008 NA
ATOM     17  HN  UNL     1     -44.865 -46.048   9.774  1.00  0.00     0.184 HD
HETATM   18  N   UNL     1     -42.115 -47.661  10.139  1.00  0.00    -0.005 NA
ENDBRANCH  12  13
ENDBRANCH   2  12
TORSDOF 3
ENDMDL
