MODEL 1
REMARK VINA RESULT:      -5.7      0.000      0.000
REMARK  6 active torsions:
REMARK  status: ('A' for Active; 'I' for Inactive)
REMARK    1  A    between atoms: C_2  and  C_3 
REMARK    2  A    between atoms: N_9  and  C_10 
REMARK    3  A    between atoms: C_10  and  C_11 
REMARK    4  A    between atoms: C_11  and  N_12 
REMARK    5  A    between atoms: N_12  and  C_13 
REMARK    6  A    between atoms: C_13  and  C_14 
ROOT
HETATM    1  C   UNL     1     -40.433 -53.514  13.261  1.00  0.00     0.289 C 
ENDROOT
BRANCH   1   2
HETATM    2  C   UNL     1     -40.405 -52.010  13.563  1.00  0.00     0.161 C 
BRANCH   2   3
HETATM    3  N   UNL     1     -40.059 -51.202  12.412  1.00  0.00    -0.329 N 
HETATM    4  C   UNL     1     -38.845 -50.658  12.086  1.00  0.00     0.098 A 
HETATM    5  N   UNL     1     -38.988 -49.945  10.984  1.00  0.00    -0.288 N 
HETATM    6  N   UNL     1     -40.302 -50.012  10.595  1.00  0.00    -0.295 N 
ATOM      7  HN  UNL     1     -38.249 -49.432  10.503  1.00  0.00     0.188 HD
HETATM    8  C   UNL     1     -40.930 -50.766  11.464  1.00  0.00     0.201 A 
ATOM      9  HN  UNL     1     -40.714 -49.558   9.779  1.00  0.00     0.187 HD
BRANCH   4  10
HETATM   10  C   UNL     1     -37.582 -50.833  12.851  1.00  0.00     0.073 C 
HETATM   11  C   UNL     1     -37.481 -49.850  14.008  1.00  0.00     0.013 C 
ENDBRANCH   4  10
ENDBRANCH   2   3
ENDBRANCH   1   2
BRANCH   1  12
HETATM   12  N   UNL     1     -41.696 -53.886  12.599  1.00  0.00     0.085 N 
HETATM   13  H   UNL     1     -41.653 -54.864  12.309  1.00  0.00     0.315 HD
BRANCH  12  14
HETATM   14  C   UNL     1     -42.835 -53.695  13.501  1.00  0.00     0.275 C 
BRANCH  14  15
HETATM   15  C   UNL     1     -43.944 -52.788  12.913  1.00  0.00     0.022 C 
HETATM   16  C   UNL     1     -44.119 -51.522  13.821  1.00  0.00     0.015 C 
HETATM   17  C   UNL     1     -45.566 -51.665  14.350  1.00  0.00     0.009 C 
HETATM   18  C   UNL     1     -45.760 -53.182  14.410  1.00  0.00     0.017 C 
HETATM   19  C   UNL     1     -46.482 -51.375  13.189  1.00  0.00    -0.026 C 
HETATM   20  C   UNL     1     -45.377 -53.390  12.940  1.00  0.00     0.014 C 
HETATM   21  C   UNL     1     -46.353 -52.396  12.328  1.00  0.00    -0.025 C 
ENDBRANCH  14  15
ENDBRANCH  12  14
ENDBRANCH   1  12
TORSDOF 6
ENDMDL
MODEL 2
REMARK VINA RESULT:      -5.7      3.428      5.241
REMARK  6 active torsions:
REMARK  status: ('A' for Active; 'I' for Inactive)
REMARK    1  A    between atoms: C_2  and  C_3 
REMARK    2  A    between atoms: N_9  and  C_10 
REMARK    3  A    between atoms: C_10  and  C_11 
REMARK    4  A    between atoms: C_11  and  N_12 
REMARK    5  A    between atoms: N_12  and  C_13 
REMARK    6  A    between atoms: C_13  and  C_14 
ROOT
HETATM    1  C   UNL     1     -42.309 -48.955  11.744  1.00  0.00     0.289 C 
ENDROOT
BRANCH   1   2
HETATM    2  C   UNL     1     -43.528 -48.049  11.521  1.00  0.00     0.161 C 
BRANCH   2   3
HETATM    3  N   UNL     1     -43.541 -47.420  10.218  1.00  0.00    -0.329 N 
HETATM    4  C   UNL     1     -44.568 -47.356   9.312  1.00  0.00     0.098 A 
HETATM    5  N   UNL     1     -44.132 -46.740   8.229  1.00  0.00    -0.288 N 
HETATM    6  N   UNL     1     -42.814 -46.412   8.419  1.00  0.00    -0.295 N 
ATOM      7  HN  UNL     1     -44.681 -46.542   7.392  1.00  0.00     0.188 HD
HETATM    8  C   UNL     1     -42.475 -46.831   9.615  1.00  0.00     0.201 A 
ATOM      9  HN  UNL     1     -42.209 -45.932   7.753  1.00  0.00     0.187 HD
BRANCH   4  10
HETATM   10  C   UNL     1     -45.937 -47.898   9.514  1.00  0.00     0.073 C 
HETATM   11  C   UNL     1     -46.429 -48.663   8.294  1.00  0.00     0.013 C 
ENDBRANCH   4  10
ENDBRANCH   2   3
ENDBRANCH   1   2
BRANCH   1  12
HETATM   12  N   UNL     1     -42.718 -50.229  12.362  1.00  0.00     0.085 N 
HETATM   13  H   UNL     1     -41.908 -50.670  12.799  1.00  0.00     0.315 HD
BRANCH  12  14
HETATM   14  C   UNL     1     -43.758 -50.013  13.371  1.00  0.00     0.275 C 
BRANCH  14  15
HETATM   15  C   UNL     1     -44.303 -51.324  13.988  1.00  0.00     0.022 C 
HETATM   16  C   UNL     1     -44.197 -52.479  12.934  1.00  0.00     0.015 C 
HETATM   17  C   UNL     1     -45.675 -52.869  12.688  1.00  0.00     0.009 C 
HETATM   18  C   UNL     1     -46.417 -51.547  12.902  1.00  0.00     0.017 C 
HETATM   19  C   UNL     1     -46.145 -53.586  13.927  1.00  0.00    -0.026 C 
HETATM   20  C   UNL     1     -45.826 -51.327  14.300  1.00  0.00     0.014 C 
HETATM   21  C   UNL     1     -46.214 -52.669  14.904  1.00  0.00    -0.025 C 
ENDBRANCH  14  15
ENDBRANCH  12  14
ENDBRANCH   1  12
TORSDOF 6
ENDMDL
MODEL 3
REMARK VINA RESULT:      -5.7      1.938      3.429
REMARK  6 active torsions:
REMARK  status: ('A' for Active; 'I' for Inactive)
REMARK    1  A    between atoms: C_2  and  C_3 
REMARK    2  A    between atoms: N_9  and  C_10 
REMARK    3  A    between atoms: C_10  and  C_11 
REMARK    4  A    between atoms: C_11  and  N_12 
REMARK    5  A    between atoms: N_12  and  C_13 
REMARK    6  A    between atoms: C_13  and  C_14 
ROOT
HETATM    1  C   UNL     1     -41.975 -50.761  14.938  1.00  0.00     0.289 C 
ENDROOT
BRANCH   1   2
HETATM    2  C   UNL     1     -40.642 -51.248  14.355  1.00  0.00     0.161 C 
BRANCH   2   3
HETATM    3  N   UNL     1     -40.801 -52.258  13.331  1.00  0.00    -0.329 N 
HETATM    4  C   UNL     1     -40.905 -53.616  13.481  1.00  0.00     0.098 A 
HETATM    5  N   UNL     1     -40.976 -54.164  12.282  1.00  0.00    -0.288 N 
HETATM    6  N   UNL     1     -40.906 -53.166  11.344  1.00  0.00    -0.295 N 
ATOM      7  HN  UNL     1     -41.069 -55.161  12.085  1.00  0.00     0.188 HD
HETATM    8  C   UNL     1     -40.797 -52.029  11.990  1.00  0.00     0.201 A 
ATOM      9  HN  UNL     1     -40.934 -53.285  10.332  1.00  0.00     0.187 HD
BRANCH   4  10
HETATM   10  C   UNL     1     -40.923 -54.347  14.775  1.00  0.00     0.073 C 
HETATM   11  C   UNL     1     -42.330 -54.774  15.164  1.00  0.00     0.013 C 
ENDBRANCH   4  10
ENDBRANCH   2   3
ENDBRANCH   1   2
BRANCH   1  12
HETATM   12  N   UNL     1     -42.574 -49.730  14.072  1.00  0.00     0.085 N 
HETATM   13  H   UNL     1     -41.886 -49.422  13.384  1.00  0.00     0.315 HD
BRANCH  12  14
HETATM   14  C   UNL     1     -43.756 -50.250  13.379  1.00  0.00     0.275 C 
BRANCH  14  15
HETATM   15  C   UNL     1     -44.385 -51.483  14.071  1.00  0.00     0.022 C 
HETATM   16  C   UNL     1     -44.455 -52.674  13.053  1.00  0.00     0.015 C 
HETATM   17  C   UNL     1     -45.975 -52.924  12.907  1.00  0.00     0.009 C 
HETATM   18  C   UNL     1     -46.573 -51.530  13.117  1.00  0.00     0.017 C 
HETATM   19  C   UNL     1     -46.436 -53.556  14.194  1.00  0.00    -0.026 C 
HETATM   20  C   UNL     1     -45.880 -51.329  14.470  1.00  0.00     0.014 C 
HETATM   21  C   UNL     1     -46.357 -52.608  15.142  1.00  0.00    -0.025 C 
ENDBRANCH  14  15
ENDBRANCH  12  14
ENDBRANCH   1  12
TORSDOF 6
ENDMDL
MODEL 4
REMARK VINA RESULT:      -5.5      2.335      6.994
REMARK  6 active torsions:
REMARK  status: ('A' for Active; 'I' for Inactive)
REMARK    1  A    between atoms: C_2  and  C_3 
REMARK    2  A    between atoms: N_9  and  C_10 
REMARK    3  A    between atoms: C_10  and  C_11 
REMARK    4  A    between atoms: C_11  and  N_12 
REMARK    5  A    between atoms: N_12  and  C_13 
REMARK    6  A    between atoms: C_13  and  C_14 
ROOT
HETATM    1  C   UNL     1     -42.762 -53.041  12.714  1.00  0.00     0.289 C 
ENDROOT
BRANCH   1   2
HETATM    2  C   UNL     1     -44.088 -52.327  13.007  1.00  0.00     0.161 C 
BRANCH   2   3
HETATM    3  N   UNL     1     -45.124 -53.218  13.484  1.00  0.00    -0.329 N 
HETATM    4  C   UNL     1     -46.292 -52.903  14.127  1.00  0.00     0.098 A 
HETATM    5  N   UNL     1     -46.915 -54.025  14.436  1.00  0.00    -0.288 N 
HETATM    6  N   UNL     1     -46.149 -55.078  14.005  1.00  0.00    -0.295 N 
ATOM      7  HN  UNL     1     -47.814 -54.097  14.913  1.00  0.00     0.188 HD
HETATM    8  C   UNL     1     -45.077 -54.577  13.440  1.00  0.00     0.201 A 
ATOM      9  HN  UNL     1     -46.372 -56.068  14.106  1.00  0.00     0.187 HD
BRANCH   4  10
HETATM   10  C   UNL     1     -46.769 -51.529  14.435  1.00  0.00     0.073 C 
HETATM   11  C   UNL     1     -47.201 -51.392  15.887  1.00  0.00     0.013 C 
ENDBRANCH   4  10
ENDBRANCH   2   3
ENDBRANCH   1   2
BRANCH   1  12
HETATM   12  N   UNL     1     -42.016 -52.335  11.657  1.00  0.00     0.085 N 
HETATM   13  H   UNL     1     -42.614 -52.218  10.838  1.00  0.00     0.315 HD
BRANCH  12  14
HETATM   14  C   UNL     1     -41.566 -51.020  12.122  1.00  0.00     0.275 C 
BRANCH  14  15
HETATM   15  C   UNL     1     -40.030 -50.915  12.286  1.00  0.00     0.022 C 
HETATM   16  C   UNL     1     -39.689 -50.538  13.769  1.00  0.00     0.015 C 
HETATM   17  C   UNL     1     -39.011 -49.153  13.634  1.00  0.00     0.009 C 
HETATM   18  C   UNL     1     -39.700 -48.554  12.405  1.00  0.00     0.017 C 
HETATM   19  C   UNL     1     -37.653 -49.393  13.027  1.00  0.00    -0.026 C 
HETATM   20  C   UNL     1     -39.358 -49.749  11.508  1.00  0.00     0.014 C 
HETATM   21  C   UNL     1     -37.857 -49.775  11.757  1.00  0.00    -0.025 C 
ENDBRANCH  14  15
ENDBRANCH  12  14
ENDBRANCH   1  12
TORSDOF 6
ENDMDL
MODEL 5
REMARK VINA RESULT:      -5.5      3.030      4.420
REMARK  6 active torsions:
REMARK  status: ('A' for Active; 'I' for Inactive)
REMARK    1  A    between atoms: C_2  and  C_3 
REMARK    2  A    between atoms: N_9  and  C_10 
REMARK    3  A    between atoms: C_10  and  C_11 
REMARK    4  A    between atoms: C_11  and  N_12 
REMARK    5  A    between atoms: N_12  and  C_13 
REMARK    6  A    between atoms: C_13  and  C_14 
ROOT
HETATM    1  C   UNL     1     -41.895 -49.889  12.085  1.00  0.00     0.289 C 
ENDROOT
BRANCH   1   2
HETATM    2  C   UNL     1     -42.397 -48.462  12.340  1.00  0.00     0.161 C 
BRANCH   2   3
HETATM    3  N   UNL     1     -42.024 -47.530  11.297  1.00  0.00    -0.329 N 
HETATM    4  C   UNL     1     -42.780 -47.076  10.249  1.00  0.00     0.098 A 
HETATM    5  N   UNL     1     -42.030 -46.284   9.504  1.00  0.00    -0.288 N 
HETATM    6  N   UNL     1     -40.776 -46.230  10.059  1.00  0.00    -0.295 N 
ATOM      7  HN  UNL     1     -42.331 -45.796   8.661  1.00  0.00     0.188 HD
HETATM    8  C   UNL     1     -40.789 -46.986  11.130  1.00  0.00     0.201 A 
ATOM      9  HN  UNL     1     -39.981 -45.700   9.703  1.00  0.00     0.187 HD
BRANCH   4  10
HETATM   10  C   UNL     1     -44.202 -47.425   9.989  1.00  0.00     0.073 C 
HETATM   11  C   UNL     1     -44.830 -46.504   8.953  1.00  0.00     0.013 C 
ENDBRANCH   4  10
ENDBRANCH   2   3
ENDBRANCH   1   2
BRANCH   1  12
HETATM   12  N   UNL     1     -42.943 -50.874  12.410  1.00  0.00     0.085 N 
HETATM   13  H   UNL     1     -42.527 -51.662  12.907  1.00  0.00     0.315 HD
BRANCH  12  14
HETATM   14  C   UNL     1     -43.988 -50.270  13.242  1.00  0.00     0.275 C 
BRANCH  14  15
HETATM   15  C   UNL     1     -44.714 -51.287  14.156  1.00  0.00     0.022 C 
HETATM   16  C   UNL     1     -44.346 -52.744  13.710  1.00  0.00     0.015 C 
HETATM   17  C   UNL     1     -45.705 -53.328  13.255  1.00  0.00     0.009 C 
HETATM   18  C   UNL     1     -46.446 -52.097  12.727  1.00  0.00     0.017 C 
HETATM   19  C   UNL     1     -46.519 -53.554  14.502  1.00  0.00    -0.026 C 
HETATM   20  C   UNL     1     -46.263 -51.306  14.027  1.00  0.00     0.014 C 
HETATM   21  C   UNL     1     -46.836 -52.342  14.984  1.00  0.00    -0.025 C 
ENDBRANCH  14  15
ENDBRANCH  12  14
ENDBRANCH   1  12
TORSDOF 6
ENDMDL
MODEL 6
REMARK VINA RESULT:      -5.5      1.545      1.852
REMARK  6 active torsions:
REMARK  status: ('A' for Active; 'I' for Inactive)
REMARK    1  A    between atoms: C_2  and  C_3 
REMARK    2  A    between atoms: N_9  and  C_10 
REMARK    3  A    between atoms: C_10  and  C_11 
REMARK    4  A    between atoms: C_11  and  N_12 
REMARK    5  A    between atoms: N_12  and  C_13 
REMARK    6  A    between atoms: C_13  and  C_14 
ROOT
HETATM    1  C   UNL     1     -41.179 -51.804  12.056  1.00  0.00     0.289 C 
ENDROOT
BRANCH   1   2
HETATM    2  C   UNL     1     -41.303 -50.436  12.740  1.00  0.00     0.161 C 
BRANCH   2   3
HETATM    3  N   UNL     1     -40.878 -49.336  11.900  1.00  0.00    -0.329 N 
HETATM    4  C   UNL     1     -39.637 -48.764  11.808  1.00  0.00     0.098 A 
HETATM    5  N   UNL     1     -39.705 -47.751  10.964  1.00  0.00    -0.288 N 
HETATM    6  N   UNL     1     -40.996 -47.651  10.512  1.00  0.00    -0.295 N 
ATOM      7  HN  UNL     1     -38.930 -47.146  10.693  1.00  0.00     0.188 HD
HETATM    8  C   UNL     1     -41.687 -48.607  11.086  1.00  0.00     0.201 A 
ATOM      9  HN  UNL     1     -41.353 -46.961   9.851  1.00  0.00     0.187 HD
BRANCH   4  10
HETATM   10  C   UNL     1     -38.422 -49.203  12.543  1.00  0.00     0.073 C 
HETATM   11  C   UNL     1     -37.539 -50.102  11.691  1.00  0.00     0.013 C 
ENDBRANCH   4  10
ENDBRANCH   2   3
ENDBRANCH   1   2
BRANCH   1  12
HETATM   12  N   UNL     1     -42.508 -52.317  11.678  1.00  0.00     0.085 N 
HETATM   13  H   UNL     1     -42.415 -52.951  10.884  1.00  0.00     0.315 HD
BRANCH  12  14
HETATM   14  C   UNL     1     -43.133 -53.027  12.797  1.00  0.00     0.275 C 
BRANCH  14  15
HETATM   15  C   UNL     1     -44.619 -52.654  13.013  1.00  0.00     0.022 C 
HETATM   16  C   UNL     1     -44.740 -51.108  13.248  1.00  0.00     0.015 C 
HETATM   17  C   UNL     1     -45.290 -51.013  14.692  1.00  0.00     0.009 C 
HETATM   18  C   UNL     1     -44.700 -52.255  15.365  1.00  0.00     0.017 C 
HETATM   19  C   UNL     1     -46.728 -51.458  14.638  1.00  0.00    -0.026 C 
HETATM   20  C   UNL     1     -45.263 -53.216  14.312  1.00  0.00     0.014 C 
HETATM   21  C   UNL     1     -46.718 -52.776  14.385  1.00  0.00    -0.025 C 
ENDBRANCH  14  15
ENDBRANCH  12  14
ENDBRANCH   1  12
TORSDOF 6
ENDMDL
MODEL 7
REMARK VINA RESULT:      -5.4      1.715      2.513
REMARK  6 active torsions:
REMARK  status: ('A' for Active; 'I' for Inactive)
REMARK    1  A    between atoms: C_2  and  C_3 
REMARK    2  A    between atoms: N_9  and  C_10 
REMARK    3  A    between atoms: C_10  and  C_11 
REMARK    4  A    between atoms: C_11  and  N_12 
REMARK    5  A    between atoms: N_12  and  C_13 
REMARK    6  A    between atoms: C_13  and  C_14 
ROOT
HETATM    1  C   UNL     1     -41.151 -53.823  15.142  1.00  0.00     0.289 C 
ENDROOT
BRANCH   1   2
HETATM    2  C   UNL     1     -40.669 -52.430  14.715  1.00  0.00     0.161 C 
BRANCH   2   3
HETATM    3  N   UNL     1     -40.797 -52.192  13.293  1.00  0.00    -0.329 N 
HETATM    4  C   UNL     1     -40.856 -50.995  12.630  1.00  0.00     0.098 A 
HETATM    5  N   UNL     1     -41.033 -51.237  11.344  1.00  0.00    -0.288 N 
HETATM    6  N   UNL     1     -41.104 -52.595  11.165  1.00  0.00    -0.295 N 
ATOM      7  HN  UNL     1     -41.105 -50.534  10.608  1.00  0.00     0.188 HD
HETATM    8  C   UNL     1     -40.965 -53.153  12.344  1.00  0.00     0.201 A 
ATOM      9  HN  UNL     1     -41.241 -53.081  10.279  1.00  0.00     0.187 HD
BRANCH   4  10
HETATM   10  C   UNL     1     -40.748 -49.651  13.255  1.00  0.00     0.073 C 
HETATM   11  C   UNL     1     -42.047 -48.868  13.141  1.00  0.00     0.013 C 
ENDBRANCH   4  10
ENDBRANCH   2   3
ENDBRANCH   1   2
BRANCH   1  12
HETATM   12  N   UNL     1     -42.500 -53.746  15.732  1.00  0.00     0.085 N 
HETATM   13  H   UNL     1     -42.722 -52.773  15.947  1.00  0.00     0.315 HD
BRANCH  12  14
HETATM   14  C   UNL     1     -43.506 -54.283  14.811  1.00  0.00     0.275 C 
BRANCH  14  15
HETATM   15  C   UNL     1     -44.837 -53.492  14.820  1.00  0.00     0.022 C 
HETATM   16  C   UNL     1     -45.644 -53.816  13.515  1.00  0.00     0.015 C 
HETATM   17  C   UNL     1     -45.711 -52.448  12.793  1.00  0.00     0.009 C 
HETATM   18  C   UNL     1     -44.407 -51.771  13.223  1.00  0.00     0.017 C 
HETATM   19  C   UNL     1     -46.670 -51.591  13.578  1.00  0.00    -0.026 C 
HETATM   20  C   UNL     1     -44.691 -51.947  14.718  1.00  0.00     0.014 C 
HETATM   21  C   UNL     1     -46.072 -51.308  14.745  1.00  0.00    -0.025 C 
ENDBRANCH  14  15
ENDBRANCH  12  14
ENDBRANCH   1  12
TORSDOF 6
ENDMDL
MODEL 8
REMARK VINA RESULT:      -5.3      2.324      3.535
REMARK  6 active torsions:
REMARK  status: ('A' for Active; 'I' for Inactive)
REMARK    1  A    between atoms: C_2  and  C_3 
REMARK    2  A    between atoms: N_9  and  C_10 
REMARK    3  A    between atoms: C_10  and  C_11 
REMARK    4  A    between atoms: C_11  and  N_12 
REMARK    5  A    between atoms: N_12  and  C_13 
REMARK    6  A    between atoms: C_13  and  C_14 
ROOT
HETATM    1  C   UNL     1     -41.818 -48.455  14.135  1.00  0.00     0.289 C 
ENDROOT
BRANCH   1   2
HETATM    2  C   UNL     1     -40.568 -48.001  13.370  1.00  0.00     0.161 C 
BRANCH   2   3
HETATM    3  N   UNL     1     -40.270 -48.828  12.219  1.00  0.00    -0.329 N 
HETATM    4  C   UNL     1     -39.121 -49.520  11.940  1.00  0.00     0.098 A 
HETATM    5  N   UNL     1     -39.254 -50.093  10.758  1.00  0.00    -0.288 N 
HETATM    6  N   UNL     1     -40.488 -49.766  10.256  1.00  0.00    -0.295 N 
ATOM      7  HN  UNL     1     -38.559 -50.680  10.297  1.00  0.00     0.188 HD
HETATM    8  C   UNL     1     -41.082 -49.004  11.143  1.00  0.00     0.201 A 
ATOM      9  HN  UNL     1     -40.872 -50.062   9.359  1.00  0.00     0.187 HD
BRANCH   4  10
HETATM   10  C   UNL     1     -37.923 -49.601  12.817  1.00  0.00     0.073 C 
HETATM   11  C   UNL     1     -37.264 -50.971  12.750  1.00  0.00     0.013 C 
ENDBRANCH   4  10
ENDBRANCH   2   3
ENDBRANCH   1   2
BRANCH   1  12
HETATM   12  N   UNL     1     -41.512 -49.624  14.979  1.00  0.00     0.085 N 
HETATM   13  H   UNL     1     -41.363 -49.320  15.941  1.00  0.00     0.315 HD
BRANCH  12  14
HETATM   14  C   UNL     1     -42.607 -50.598  14.940  1.00  0.00     0.275 C 
BRANCH  14  15
HETATM   15  C   UNL     1     -42.130 -52.056  14.734  1.00  0.00     0.022 C 
HETATM   16  C   UNL     1     -40.652 -52.052  14.213  1.00  0.00     0.015 C 
HETATM   17  C   UNL     1     -40.771 -52.691  12.808  1.00  0.00     0.009 C 
HETATM   18  C   UNL     1     -42.170 -52.264  12.357  1.00  0.00     0.017 C 
HETATM   19  C   UNL     1     -41.049 -54.156  13.021  1.00  0.00    -0.026 C 
HETATM   20  C   UNL     1     -42.855 -52.837  13.602  1.00  0.00     0.014 C 
HETATM   21  C   UNL     1     -42.291 -54.248  13.522  1.00  0.00    -0.025 C 
ENDBRANCH  14  15
ENDBRANCH  12  14
ENDBRANCH   1  12
TORSDOF 6
ENDMDL
MODEL 9
REMARK VINA RESULT:      -5.2      1.950      2.624
REMARK  6 active torsions:
REMARK  status: ('A' for Active; 'I' for Inactive)
REMARK    1  A    between atoms: C_2  and  C_3 
REMARK    2  A    between atoms: N_9  and  C_10 
REMARK    3  A    between atoms: C_10  and  C_11 
REMARK    4  A    between atoms: C_11  and  N_12 
REMARK    5  A    between atoms: N_12  and  C_13 
REMARK    6  A    between atoms: C_13  and  C_14 
ROOT
HETATM    1  C   UNL     1     -41.690 -49.475  14.525  1.00  0.00     0.289 C 
ENDROOT
BRANCH   1   2
HETATM    2  C   UNL     1     -41.000 -48.451  13.613  1.00  0.00     0.161 C 
BRANCH   2   3
HETATM    3  N   UNL     1     -40.873 -48.901  12.243  1.00  0.00    -0.329 N 
HETATM    4  C   UNL     1     -39.909 -49.704  11.694  1.00  0.00     0.098 A 
HETATM    5  N   UNL     1     -40.142 -49.813  10.399  1.00  0.00    -0.288 N 
HETATM    6  N   UNL     1     -41.253 -49.068  10.096  1.00  0.00    -0.295 N 
ATOM      7  HN  UNL     1     -39.590 -50.357   9.736  1.00  0.00     0.188 HD
HETATM    8  C   UNL     1     -41.677 -48.525  11.212  1.00  0.00     0.201 A 
ATOM      9  HN  UNL     1     -41.673 -48.958   9.173  1.00  0.00     0.187 HD
BRANCH   4  10
HETATM   10  C   UNL     1     -38.784 -50.338  12.432  1.00  0.00     0.073 C 
HETATM   11  C   UNL     1     -37.509 -50.367  11.604  1.00  0.00     0.013 C 
ENDBRANCH   4  10
ENDBRANCH   2   3
ENDBRANCH   1   2
BRANCH   1  12
HETATM   12  N   UNL     1     -43.072 -49.721  14.074  1.00  0.00     0.085 N 
HETATM   13  H   UNL     1     -43.271 -49.142  13.257  1.00  0.00     0.315 HD
BRANCH  12  14
HETATM   14  C   UNL     1     -43.267 -51.132  13.730  1.00  0.00     0.275 C 
BRANCH  14  15
HETATM   15  C   UNL     1     -44.378 -51.822  14.559  1.00  0.00     0.022 C 
HETATM   16  C   UNL     1     -44.718 -53.212  13.919  1.00  0.00     0.015 C 
HETATM   17  C   UNL     1     -46.194 -53.047  13.483  1.00  0.00     0.009 C 
HETATM   18  C   UNL     1     -46.289 -51.555  13.154  1.00  0.00     0.017 C 
HETATM   19  C   UNL     1     -47.020 -53.046  14.742  1.00  0.00    -0.026 C 
HETATM   20  C   UNL     1     -45.764 -51.119  14.527  1.00  0.00     0.014 C 
HETATM   21  C   UNL     1     -46.746 -51.901  15.386  1.00  0.00    -0.025 C 
ENDBRANCH  14  15
ENDBRANCH  12  14
ENDBRANCH   1  12
TORSDOF 6
ENDMDL
