MODEL 1
REMARK VINA RESULT:      -5.1      0.000      0.000
REMARK  4 active torsions:
REMARK  status: ('A' for Active; 'I' for Inactive)
REMARK    1  A    between atoms: C_5  and  C_6 
REMARK    2  A    between atoms: C_6  and  C_7 
REMARK    3  A    between atoms: C_7  and  N_8 
REMARK       I    between atoms: N_8  and  C_9 
REMARK    4  A    between atoms: C_9  and  C_11 
ROOT
HETATM    1  C   UNL     1     -42.290 -48.630  11.392  1.00  0.00     0.077 C 
ENDROOT
BRANCH   1   2
HETATM    2  C   UNL     1     -43.089 -47.734  10.501  1.00  0.00     0.018 A 
HETATM    3  N   UNL     1     -44.425 -48.020  10.262  1.00  0.00    -0.357 N 
HETATM    4  C   UNL     1     -44.948 -47.112   9.467  1.00  0.00     0.046 A 
ATOM      5  HN  UNL     1     -44.929 -48.819  10.648  1.00  0.00     0.166 HD
HETATM    6  C   UNL     1     -46.369 -47.095   9.029  1.00  0.00     0.076 C 
HETATM    7  S   UNL     1     -43.870 -45.887   8.930  1.00  0.00    -0.087 SA
HETATM    8  C   UNL     1     -42.617 -46.611   9.845  1.00  0.00     0.076 A 
ENDBRANCH   1   2
BRANCH   1   9
HETATM    9  C   UNL     1     -42.946 -48.869  12.754  1.00  0.00     0.128 C 
BRANCH   9  10
HETATM   10  N   UNL     1     -43.900 -49.967  12.737  1.00  0.00    -0.360 N 
HETATM   11  C   UNL     1     -44.178 -50.689  13.870  1.00  0.00     0.221 C 
HETATM   12  O   UNL     1     -43.608 -50.521  14.940  1.00  0.00    -0.273 OA
HETATM   13  H   UNL     1     -44.473 -50.086  11.915  1.00  0.00     0.162 HD
BRANCH  11  14
HETATM   14  C   UNL     1     -45.242 -51.723  13.775  1.00  0.00     0.078 A 
HETATM   15  C   UNL     1     -46.427 -51.710  12.842  1.00  0.00     0.015 A 
HETATM   16  C   UNL     1     -46.621 -51.387  14.295  1.00  0.00     0.015 A 
ENDBRANCH  11  14
ENDBRANCH   9  10
ENDBRANCH   1   9
TORSDOF 4
ENDMDL
MODEL 2
REMARK VINA RESULT:      -5.0      3.948      5.831
REMARK  4 active torsions:
REMARK  status: ('A' for Active; 'I' for Inactive)
REMARK    1  A    between atoms: C_5  and  C_6 
REMARK    2  A    between atoms: C_6  and  C_7 
REMARK    3  A    between atoms: C_7  and  N_8 
REMARK       I    between atoms: N_8  and  C_9 
REMARK    4  A    between atoms: C_9  and  C_11 
ROOT
HETATM    1  C   UNL     1     -42.181 -48.940  11.679  1.00  0.00     0.077 C 
ENDROOT
BRANCH   1   2
HETATM    2  C   UNL     1     -40.733 -48.934  12.052  1.00  0.00     0.018 A 
HETATM    3  N   UNL     1     -39.809 -49.546  11.219  1.00  0.00    -0.357 N 
HETATM    4  C   UNL     1     -38.597 -49.422  11.718  1.00  0.00     0.046 A 
ATOM      5  HN  UNL     1     -40.035 -50.024  10.347  1.00  0.00     0.166 HD
HETATM    6  C   UNL     1     -37.362 -49.936  11.067  1.00  0.00     0.076 C 
HETATM    7  S   UNL     1     -38.496 -48.600  13.222  1.00  0.00    -0.087 SA
HETATM    8  C   UNL     1     -40.192 -48.375  13.196  1.00  0.00     0.076 A 
ENDBRANCH   1   2
BRANCH   1   9
HETATM    9  C   UNL     1     -42.515 -47.975  10.540  1.00  0.00     0.128 C 
BRANCH   9  10
HETATM   10  N   UNL     1     -43.930 -47.971  10.199  1.00  0.00    -0.360 N 
HETATM   11  C   UNL     1     -44.391 -47.334   9.075  1.00  0.00     0.221 C 
HETATM   12  O   UNL     1     -43.682 -46.674   8.327  1.00  0.00    -0.273 OA
HETATM   13  H   UNL     1     -44.545 -48.580  10.717  1.00  0.00     0.162 HD
BRANCH  11  14
HETATM   14  C   UNL     1     -45.837 -47.473   8.758  1.00  0.00     0.078 A 
HETATM   15  C   UNL     1     -46.801 -48.459   9.370  1.00  0.00     0.015 A 
HETATM   16  C   UNL     1     -46.290 -48.685   7.976  1.00  0.00     0.015 A 
ENDBRANCH  11  14
ENDBRANCH   9  10
ENDBRANCH   1   9
TORSDOF 4
ENDMDL
MODEL 3
REMARK VINA RESULT:      -5.0      3.329      4.839
REMARK  4 active torsions:
REMARK  status: ('A' for Active; 'I' for Inactive)
REMARK    1  A    between atoms: C_5  and  C_6 
REMARK    2  A    between atoms: C_6  and  C_7 
REMARK    3  A    between atoms: C_7  and  N_8 
REMARK       I    between atoms: N_8  and  C_9 
REMARK    4  A    between atoms: C_9  and  C_11 
ROOT
HETATM    1  C   UNL     1     -42.023 -48.351  11.147  1.00  0.00     0.077 C 
ENDROOT
BRANCH   1   2
HETATM    2  C   UNL     1     -43.017 -47.582  10.336  1.00  0.00     0.018 A 
HETATM    3  N   UNL     1     -44.306 -48.070  10.191  1.00  0.00    -0.357 N 
HETATM    4  C   UNL     1     -45.022 -47.248   9.454  1.00  0.00     0.046 A 
ATOM      5  HN  UNL     1     -44.650 -48.942  10.596  1.00  0.00     0.166 HD
HETATM    6  C   UNL     1     -46.458 -47.447   9.122  1.00  0.00     0.076 C 
HETATM    7  S   UNL     1     -44.189 -45.866   8.865  1.00  0.00    -0.087 SA
HETATM    8  C   UNL     1     -42.774 -46.394   9.671  1.00  0.00     0.076 A 
ENDBRANCH   1   2
BRANCH   1   9
HETATM    9  C   UNL     1     -40.915 -47.475  11.735  1.00  0.00     0.128 C 
BRANCH   9  10
HETATM   10  N   UNL     1     -39.590 -48.051  11.568  1.00  0.00    -0.360 N 
HETATM   11  C   UNL     1     -38.957 -48.696  12.600  1.00  0.00     0.221 C 
HETATM   12  O   UNL     1     -39.410 -48.773  13.735  1.00  0.00    -0.273 OA
HETATM   13  H   UNL     1     -39.211 -48.109  10.635  1.00  0.00     0.162 HD
BRANCH  11  14
HETATM   14  C   UNL     1     -37.650 -49.340  12.302  1.00  0.00     0.078 A 
HETATM   15  C   UNL     1     -37.271 -50.056  11.030  1.00  0.00     0.015 A 
HETATM   16  C   UNL     1     -37.583 -50.850  12.266  1.00  0.00     0.015 A 
ENDBRANCH  11  14
ENDBRANCH   9  10
ENDBRANCH   1   9
TORSDOF 4
ENDMDL
MODEL 4
REMARK VINA RESULT:      -4.9      3.768      4.771
REMARK  4 active torsions:
REMARK  status: ('A' for Active; 'I' for Inactive)
REMARK    1  A    between atoms: C_5  and  C_6 
REMARK    2  A    between atoms: C_6  and  C_7 
REMARK    3  A    between atoms: C_7  and  N_8 
REMARK       I    between atoms: N_8  and  C_9 
REMARK    4  A    between atoms: C_9  and  C_11 
ROOT
HETATM    1  C   UNL     1     -41.530 -52.076  13.183  1.00  0.00     0.077 C 
ENDROOT
BRANCH   1   2
HETATM    2  C   UNL     1     -40.737 -50.931  12.638  1.00  0.00     0.018 A 
HETATM    3  N   UNL     1     -39.427 -51.136  12.233  1.00  0.00    -0.357 N 
HETATM    4  C   UNL     1     -38.912 -50.014  11.779  1.00  0.00     0.046 A 
ATOM      5  HN  UNL     1     -38.934 -52.029  12.281  1.00  0.00     0.166 HD
HETATM    6  C   UNL     1     -37.534 -49.880  11.234  1.00  0.00     0.076 C 
HETATM    7  S   UNL     1     -39.947 -48.645  11.842  1.00  0.00    -0.087 SA
HETATM    8  C   UNL     1     -41.181 -49.628  12.505  1.00  0.00     0.076 A 
ENDBRANCH   1   2
BRANCH   1   9
HETATM    9  C   UNL     1     -42.599 -52.586  12.214  1.00  0.00     0.128 C 
BRANCH   9  10
HETATM   10  N   UNL     1     -43.937 -52.128  12.557  1.00  0.00    -0.360 N 
HETATM   11  C   UNL     1     -44.981 -53.008  12.687  1.00  0.00     0.221 C 
HETATM   12  O   UNL     1     -44.892 -54.209  12.461  1.00  0.00    -0.273 OA
HETATM   13  H   UNL     1     -44.050 -51.171  12.854  1.00  0.00     0.162 HD
BRANCH  11  14
HETATM   14  C   UNL     1     -46.285 -52.457  13.140  1.00  0.00     0.078 A 
HETATM   15  C   UNL     1     -46.493 -51.336  14.128  1.00  0.00     0.015 A 
HETATM   16  C   UNL     1     -46.745 -52.756  14.548  1.00  0.00     0.015 A 
ENDBRANCH  11  14
ENDBRANCH   9  10
ENDBRANCH   1   9
TORSDOF 4
ENDMDL
MODEL 5
REMARK VINA RESULT:      -4.9      4.771      5.396
REMARK  4 active torsions:
REMARK  status: ('A' for Active; 'I' for Inactive)
REMARK    1  A    between atoms: C_5  and  C_6 
REMARK    2  A    between atoms: C_6  and  C_7 
REMARK    3  A    between atoms: C_7  and  N_8 
REMARK       I    between atoms: N_8  and  C_9 
REMARK    4  A    between atoms: C_9  and  C_11 
ROOT
HETATM    1  C   UNL     1     -41.954 -52.287  12.030  1.00  0.00     0.077 C 
ENDROOT
BRANCH   1   2
HETATM    2  C   UNL     1     -40.606 -51.805  12.463  1.00  0.00     0.018 A 
HETATM    3  N   UNL     1     -39.889 -50.949  11.641  1.00  0.00    -0.357 N 
HETATM    4  C   UNL     1     -38.742 -50.636  12.204  1.00  0.00     0.046 A 
ATOM      5  HN  UNL     1     -40.206 -50.610  10.732  1.00  0.00     0.166 HD
HETATM    6  C   UNL     1     -37.737 -49.713  11.611  1.00  0.00     0.076 C 
HETATM    7  S   UNL     1     -38.438 -51.373  13.725  1.00  0.00    -0.087 SA
HETATM    8  C   UNL     1     -39.961 -52.149  13.636  1.00  0.00     0.076 A 
ENDBRANCH   1   2
BRANCH   1   9
HETATM    9  C   UNL     1     -42.713 -53.030  13.131  1.00  0.00     0.128 C 
BRANCH   9  10
HETATM   10  N   UNL     1     -43.855 -52.283  13.635  1.00  0.00    -0.360 N 
HETATM   11  C   UNL     1     -45.121 -52.506  13.155  1.00  0.00     0.221 C 
HETATM   12  O   UNL     1     -45.376 -53.277  12.239  1.00  0.00    -0.273 OA
HETATM   13  H   UNL     1     -43.725 -51.711  14.455  1.00  0.00     0.162 HD
BRANCH  11  14
HETATM   14  C   UNL     1     -46.236 -51.766  13.805  1.00  0.00     0.078 A 
HETATM   15  C   UNL     1     -46.258 -51.230  15.214  1.00  0.00     0.015 A 
HETATM   16  C   UNL     1     -47.038 -52.468  14.876  1.00  0.00     0.015 A 
ENDBRANCH  11  14
ENDBRANCH   9  10
ENDBRANCH   1   9
TORSDOF 4
ENDMDL
MODEL 6
REMARK VINA RESULT:      -4.8      3.017      3.414
REMARK  4 active torsions:
REMARK  status: ('A' for Active; 'I' for Inactive)
REMARK    1  A    between atoms: C_5  and  C_6 
REMARK    2  A    between atoms: C_6  and  C_7 
REMARK    3  A    between atoms: C_7  and  N_8 
REMARK       I    between atoms: N_8  and  C_9 
REMARK    4  A    between atoms: C_9  and  C_11 
ROOT
HETATM    1  C   UNL     1     -41.135 -49.094  12.133  1.00  0.00     0.077 C 
ENDROOT
BRANCH   1   2
HETATM    2  C   UNL     1     -41.791 -48.094  11.235  1.00  0.00     0.018 A 
HETATM    3  N   UNL     1     -42.356 -48.514  10.041  1.00  0.00    -0.357 N 
HETATM    4  C   UNL     1     -42.886 -47.491   9.406  1.00  0.00     0.046 A 
ATOM      5  HN  UNL     1     -42.360 -49.477   9.703  1.00  0.00     0.166 HD
HETATM    6  C   UNL     1     -43.603 -47.586   8.106  1.00  0.00     0.076 C 
HETATM    7  S   UNL     1     -42.710 -45.968  10.179  1.00  0.00    -0.087 SA
HETATM    8  C   UNL     1     -41.883 -46.734  11.467  1.00  0.00     0.076 A 
ENDBRANCH   1   2
BRANCH   1   9
HETATM    9  C   UNL     1     -40.460 -50.238  11.374  1.00  0.00     0.128 C 
BRANCH   9  10
HETATM   10  N   UNL     1     -41.083 -51.528  11.625  1.00  0.00    -0.360 N 
HETATM   11  C   UNL     1     -40.497 -52.456  12.449  1.00  0.00     0.221 C 
HETATM   12  O   UNL     1     -39.397 -52.307  12.967  1.00  0.00    -0.273 OA
HETATM   13  H   UNL     1     -42.031 -51.668  11.311  1.00  0.00     0.162 HD
BRANCH  11  14
HETATM   14  C   UNL     1     -41.259 -53.702  12.724  1.00  0.00     0.078 A 
HETATM   15  C   UNL     1     -42.727 -53.802  13.056  1.00  0.00     0.015 A 
HETATM   16  C   UNL     1     -41.706 -53.975  14.143  1.00  0.00     0.015 A 
ENDBRANCH  11  14
ENDBRANCH   9  10
ENDBRANCH   1   9
TORSDOF 4
ENDMDL
MODEL 7
REMARK VINA RESULT:      -4.8      3.443      5.871
REMARK  4 active torsions:
REMARK  status: ('A' for Active; 'I' for Inactive)
REMARK    1  A    between atoms: C_5  and  C_6 
REMARK    2  A    between atoms: C_6  and  C_7 
REMARK    3  A    between atoms: C_7  and  N_8 
REMARK       I    between atoms: N_8  and  C_9 
REMARK    4  A    between atoms: C_9  and  C_11 
ROOT
HETATM    1  C   UNL     1     -40.517 -50.305  11.508  1.00  0.00     0.077 C 
ENDROOT
BRANCH   1   2
HETATM    2  C   UNL     1     -41.282 -51.261  12.365  1.00  0.00     0.018 A 
HETATM    3  N   UNL     1     -42.380 -51.925  11.838  1.00  0.00    -0.357 N 
HETATM    4  C   UNL     1     -42.904 -52.722  12.743  1.00  0.00     0.046 A 
ATOM      5  HN  UNL     1     -42.730 -51.810  10.887  1.00  0.00     0.166 HD
HETATM    6  C   UNL     1     -44.077 -53.607  12.508  1.00  0.00     0.076 C 
HETATM    7  S   UNL     1     -42.141 -52.701  14.282  1.00  0.00    -0.087 SA
HETATM    8  C   UNL     1     -41.014 -51.557  13.689  1.00  0.00     0.076 A 
ENDBRANCH   1   2
BRANCH   1   9
HETATM    9  C   UNL     1     -41.081 -48.882  11.537  1.00  0.00     0.128 C 
BRANCH   9  10
HETATM   10  N   UNL     1     -42.040 -48.633  10.472  1.00  0.00    -0.360 N 
HETATM   11  C   UNL     1     -43.094 -47.772  10.649  1.00  0.00     0.221 C 
HETATM   12  O   UNL     1     -43.348 -47.215  11.710  1.00  0.00    -0.273 OA
HETATM   13  H   UNL     1     -41.828 -48.980   9.550  1.00  0.00     0.162 HD
BRANCH  11  14
HETATM   14  C   UNL     1     -43.960 -47.504   9.470  1.00  0.00     0.078 A 
HETATM   15  C   UNL     1     -43.575 -47.654   8.020  1.00  0.00     0.015 A 
HETATM   16  C   UNL     1     -43.671 -46.283   8.626  1.00  0.00     0.015 A 
ENDBRANCH  11  14
ENDBRANCH   9  10
ENDBRANCH   1   9
TORSDOF 4
ENDMDL
MODEL 8
REMARK VINA RESULT:      -4.8      4.120      5.167
REMARK  4 active torsions:
REMARK  status: ('A' for Active; 'I' for Inactive)
REMARK    1  A    between atoms: C_5  and  C_6 
REMARK    2  A    between atoms: C_6  and  C_7 
REMARK    3  A    between atoms: C_7  and  N_8 
REMARK       I    between atoms: N_8  and  C_9 
REMARK    4  A    between atoms: C_9  and  C_11 
ROOT
HETATM    1  C   UNL     1     -41.531 -54.084  12.760  1.00  0.00     0.077 C 
ENDROOT
BRANCH   1   2
HETATM    2  C   UNL     1     -40.856 -52.751  12.718  1.00  0.00     0.018 A 
HETATM    3  N   UNL     1     -41.147 -51.869  11.688  1.00  0.00    -0.357 N 
HETATM    4  C   UNL     1     -40.461 -50.756  11.837  1.00  0.00     0.046 A 
ATOM      5  HN  UNL     1     -41.797 -52.057  10.924  1.00  0.00     0.166 HD
HETATM    6  C   UNL     1     -40.552 -49.583  10.928  1.00  0.00     0.076 C 
HETATM    7  S   UNL     1     -39.407 -50.712  13.192  1.00  0.00    -0.087 SA
HETATM    8  C   UNL     1     -39.919 -52.287  13.623  1.00  0.00     0.076 A 
ENDBRANCH   1   2
BRANCH   1   9
HETATM    9  C   UNL     1     -42.579 -54.197  13.870  1.00  0.00     0.128 C 
BRANCH   9  10
HETATM   10  N   UNL     1     -43.694 -53.280  13.690  1.00  0.00    -0.360 N 
HETATM   11  C   UNL     1     -44.931 -53.729  13.303  1.00  0.00     0.221 C 
HETATM   12  O   UNL     1     -45.173 -54.894  13.015  1.00  0.00    -0.273 OA
HETATM   13  H   UNL     1     -43.585 -52.330  14.009  1.00  0.00     0.162 HD
BRANCH  11  14
HETATM   14  C   UNL     1     -46.031 -52.730  13.246  1.00  0.00     0.078 A 
HETATM   15  C   UNL     1     -45.969 -51.297  13.710  1.00  0.00     0.015 A 
HETATM   16  C   UNL     1     -46.697 -52.316  14.538  1.00  0.00     0.015 A 
ENDBRANCH  11  14
ENDBRANCH   9  10
ENDBRANCH   1   9
TORSDOF 4
ENDMDL
MODEL 9
REMARK VINA RESULT:      -4.7      4.650      6.750
REMARK  4 active torsions:
REMARK  status: ('A' for Active; 'I' for Inactive)
REMARK    1  A    between atoms: C_5  and  C_6 
REMARK    2  A    between atoms: C_6  and  C_7 
REMARK    3  A    between atoms: C_7  and  N_8 
REMARK       I    between atoms: N_8  and  C_9 
REMARK    4  A    between atoms: C_9  and  C_11 
ROOT
HETATM    1  C   UNL     1     -41.859 -53.191  12.739  1.00  0.00     0.077 C 
ENDROOT
BRANCH   1   2
HETATM    2  C   UNL     1     -43.325 -53.335  12.996  1.00  0.00     0.018 A 
HETATM    3  N   UNL     1     -44.214 -52.451  12.404  1.00  0.00    -0.357 N 
HETATM    4  C   UNL     1     -45.448 -52.752  12.746  1.00  0.00     0.046 A 
ATOM      5  HN  UNL     1     -43.949 -51.679  11.791  1.00  0.00     0.166 HD
HETATM    6  C   UNL     1     -46.656 -52.028  12.266  1.00  0.00     0.076 C 
HETATM    7  S   UNL     1     -45.616 -54.082  13.821  1.00  0.00    -0.087 SA
HETATM    8  C   UNL     1     -43.916 -54.284  13.811  1.00  0.00     0.076 A 
ENDBRANCH   1   2
BRANCH   1   9
HETATM    9  C   UNL     1     -41.509 -51.951  11.913  1.00  0.00     0.128 C 
BRANCH   9  10
HETATM   10  N   UNL     1     -40.100 -51.599  11.991  1.00  0.00    -0.360 N 
HETATM   11  C   UNL     1     -39.657 -50.348  11.641  1.00  0.00     0.221 C 
HETATM   12  O   UNL     1     -40.379 -49.475  11.178  1.00  0.00    -0.273 OA
HETATM   13  H   UNL     1     -39.475 -52.238  12.458  1.00  0.00     0.162 HD
BRANCH  11  14
HETATM   14  C   UNL     1     -38.215 -50.052  11.852  1.00  0.00     0.078 A 
HETATM   15  C   UNL     1     -37.228 -50.896  12.620  1.00  0.00     0.015 A 
HETATM   16  C   UNL     1     -37.760 -49.631  13.231  1.00  0.00     0.015 A 
ENDBRANCH  11  14
ENDBRANCH   9  10
ENDBRANCH   1   9
TORSDOF 4
ENDMDL
