MODEL 1
REMARK VINA RESULT:      -5.8      0.000      0.000
REMARK  4 active torsions:
REMARK  status: ('A' for Active; 'I' for Inactive)
REMARK    1  A    between atoms: N_2  and  C_4 
REMARK    2  A    between atoms: N_9  and  C_10 
REMARK    3  A    between atoms: C_10  and  C_11 
REMARK       I    between atoms: C_11  and  N_13 
REMARK    4  A    between atoms: N_13  and  C_14 
ROOT
HETATM    1  C   UNL     1     -46.685 -52.264  15.838  1.00  0.00     0.118 A 
HETATM    2  C   UNL     1     -46.929 -51.309  14.779  1.00  0.00     0.043 A 
HETATM    3  C   UNL     1     -46.536 -51.578  13.525  1.00  0.00     0.077 A 
HETATM    4  C   UNL     1     -45.852 -52.863  13.205  1.00  0.00     0.247 A 
HETATM    5  O   UNL     1     -45.526 -53.103  12.047  1.00  0.00    -0.268 OA
HETATM    6  N   UNL     1     -45.623 -53.717  14.283  1.00  0.00    -0.314 N 
HETATM    7  C   UNL     1     -46.049 -53.417  15.576  1.00  0.00     0.130 A 
ENDROOT
BRANCH   6   8
HETATM    8  C   UNL     1     -45.027 -55.022  14.000  1.00  0.00     0.234 C 
BRANCH   8   9
HETATM    9  C   UNL     1     -43.626 -55.145  14.618  1.00  0.00     0.236 C 
HETATM   10  O   UNL     1     -43.375 -55.892  15.562  1.00  0.00    -0.272 OA
HETATM   11  N   UNL     1     -42.699 -54.264  14.091  1.00  0.00    -0.355 N 
HETATM   12  H   UNL     1     -42.880 -53.885  13.168  1.00  0.00     0.162 HD
BRANCH  11  13
HETATM   13  C   UNL     1     -41.333 -54.218  14.577  1.00  0.00     0.084 C 
HETATM   14  C   UNL     1     -41.051 -52.965  15.411  1.00  0.00     0.025 C 
HETATM   15  C   UNL     1     -39.613 -52.553  15.091  1.00  0.00     0.002 C 
HETATM   16  C   UNL     1     -39.065 -53.623  14.156  1.00  0.00     0.002 C 
HETATM   17  C   UNL     1     -40.300 -54.169  13.455  1.00  0.00     0.025 C 
ENDBRANCH  11  13
ENDBRANCH   8   9
ENDBRANCH   6   8
BRANCH   1  18
HETATM   18  N   UNL     1     -47.124 -52.008  17.212  1.00  0.00    -0.114 N 
HETATM   19  O   UNL     1     -46.316 -52.190  18.135  1.00  0.00    -0.532 OA
HETATM   20  O   UNL     1     -48.287 -51.609  17.366  1.00  0.00    -0.532 OA
ENDBRANCH   1  18
TORSDOF 4
ENDMDL
MODEL 2
REMARK VINA RESULT:      -5.8      4.577      6.475
REMARK  4 active torsions:
REMARK  status: ('A' for Active; 'I' for Inactive)
REMARK    1  A    between atoms: N_2  and  C_4 
REMARK    2  A    between atoms: N_9  and  C_10 
REMARK    3  A    between atoms: C_10  and  C_11 
REMARK       I    between atoms: C_11  and  N_13 
REMARK    4  A    between atoms: N_13  and  C_14 
ROOT
HETATM    1  C   UNL     1     -43.421 -53.664  13.005  1.00  0.00     0.118 A 
HETATM    2  C   UNL     1     -42.683 -54.412  13.998  1.00  0.00     0.043 A 
HETATM    3  C   UNL     1     -41.375 -54.182  14.181  1.00  0.00     0.077 A 
HETATM    4  C   UNL     1     -40.667 -53.150  13.372  1.00  0.00     0.247 A 
HETATM    5  O   UNL     1     -39.476 -52.933  13.574  1.00  0.00    -0.268 OA
HETATM    6  N   UNL     1     -41.436 -52.494  12.412  1.00  0.00    -0.314 N 
HETATM    7  C   UNL     1     -42.798 -52.746  12.248  1.00  0.00     0.130 A 
ENDROOT
BRANCH   6   8
HETATM    8  C   UNL     1     -40.802 -51.418  11.651  1.00  0.00     0.234 C 
BRANCH   8   9
HETATM    9  C   UNL     1     -41.387 -50.047  12.021  1.00  0.00     0.236 C 
HETATM   10  O   UNL     1     -41.591 -49.699  13.183  1.00  0.00    -0.272 OA
HETATM   11  N   UNL     1     -41.765 -49.284  10.931  1.00  0.00    -0.355 N 
HETATM   12  H   UNL     1     -41.336 -49.494  10.037  1.00  0.00     0.162 HD
BRANCH  11  13
HETATM   13  C   UNL     1     -42.365 -47.974  11.094  1.00  0.00     0.084 C 
HETATM   14  C   UNL     1     -43.379 -47.656   9.991  1.00  0.00     0.025 C 
HETATM   15  C   UNL     1     -43.239 -46.160   9.700  1.00  0.00     0.002 C 
HETATM   16  C   UNL     1     -42.219 -45.629  10.698  1.00  0.00     0.002 C 
HETATM   17  C   UNL     1     -41.351 -46.837  11.017  1.00  0.00     0.025 C 
ENDBRANCH  11  13
ENDBRANCH   8   9
ENDBRANCH   6   8
BRANCH   1  18
HETATM   18  N   UNL     1     -44.855 -53.876  12.799  1.00  0.00    -0.114 N 
HETATM   19  O   UNL     1     -45.503 -53.004  12.202  1.00  0.00    -0.532 OA
HETATM   20  O   UNL     1     -45.335 -54.935  13.229  1.00  0.00    -0.532 OA
ENDBRANCH   1  18
TORSDOF 4
ENDMDL
MODEL 3
REMARK VINA RESULT:      -5.7      5.927      7.545
REMARK  4 active torsions:
REMARK  status: ('A' for Active; 'I' for Inactive)
REMARK    1  A    between atoms: N_2  and  C_4 
REMARK    2  A    between atoms: N_9  and  C_10 
REMARK    3  A    between atoms: C_10  and  C_11 
REMARK       I    between atoms: C_11  and  N_13 
REMARK    4  A    between atoms: N_13  and  C_14 
ROOT
HETATM    1  C   UNL     1     -42.131 -46.811  10.017  1.00  0.00     0.118 A 
HETATM    2  C   UNL     1     -41.206 -45.837  10.554  1.00  0.00     0.043 A 
HETATM    3  C   UNL     1     -40.184 -46.232  11.326  1.00  0.00     0.077 A 
HETATM    4  C   UNL     1     -39.982 -47.676  11.635  1.00  0.00     0.247 A 
HETATM    5  O   UNL     1     -39.024 -48.020  12.320  1.00  0.00    -0.268 OA
HETATM    6  N   UNL     1     -40.933 -48.551  11.111  1.00  0.00    -0.314 N 
HETATM    7  C   UNL     1     -41.982 -48.115  10.302  1.00  0.00     0.130 A 
ENDROOT
BRANCH   6   8
HETATM    8  C   UNL     1     -40.728 -49.983  11.323  1.00  0.00     0.234 C 
BRANCH   8   9
HETATM    9  C   UNL     1     -41.670 -50.530  12.406  1.00  0.00     0.236 C 
HETATM   10  O   UNL     1     -41.804 -49.998  13.506  1.00  0.00    -0.272 OA
HETATM   11  N   UNL     1     -42.267 -51.734  12.076  1.00  0.00    -0.355 N 
HETATM   12  H   UNL     1     -42.335 -51.973  11.093  1.00  0.00     0.162 HD
BRANCH  11  13
HETATM   13  C   UNL     1     -43.163 -52.413  12.993  1.00  0.00     0.084 C 
HETATM   14  C   UNL     1     -42.416 -53.328  13.967  1.00  0.00     0.025 C 
HETATM   15  C   UNL     1     -43.314 -54.549  14.181  1.00  0.00     0.002 C 
HETATM   16  C   UNL     1     -44.594 -54.272  13.403  1.00  0.00     0.002 C 
HETATM   17  C   UNL     1     -44.154 -53.334  12.289  1.00  0.00     0.025 C 
ENDBRANCH  11  13
ENDBRANCH   8   9
ENDBRANCH   6   8
BRANCH   1  18
HETATM   18  N   UNL     1     -43.242 -46.412   9.151  1.00  0.00    -0.114 N 
HETATM   19  O   UNL     1     -43.520 -45.207   9.060  1.00  0.00    -0.532 OA
HETATM   20  O   UNL     1     -43.835 -47.315   8.543  1.00  0.00    -0.532 OA
ENDBRANCH   1  18
TORSDOF 4
ENDMDL
MODEL 4
REMARK VINA RESULT:      -5.7      4.472      7.240
REMARK  4 active torsions:
REMARK  status: ('A' for Active; 'I' for Inactive)
REMARK    1  A    between atoms: N_2  and  C_4 
REMARK    2  A    between atoms: N_9  and  C_10 
REMARK    3  A    between atoms: C_10  and  C_11 
REMARK       I    between atoms: C_11  and  N_13 
REMARK    4  A    between atoms: N_13  and  C_14 
ROOT
HETATM    1  C   UNL     1     -40.242 -48.683  11.550  1.00  0.00     0.118 A 
HETATM    2  C   UNL     1     -38.991 -48.626  12.274  1.00  0.00     0.043 A 
HETATM    3  C   UNL     1     -38.485 -49.735  12.833  1.00  0.00     0.077 A 
HETATM    4  C   UNL     1     -39.197 -51.038  12.710  1.00  0.00     0.247 A 
HETATM    5  O   UNL     1     -38.704 -52.047  13.204  1.00  0.00    -0.268 OA
HETATM    6  N   UNL     1     -40.412 -51.007  12.026  1.00  0.00    -0.314 N 
HETATM    7  C   UNL     1     -40.913 -49.842  11.447  1.00  0.00     0.130 A 
ENDROOT
BRANCH   6   8
HETATM    8  C   UNL     1     -41.104 -52.277  11.813  1.00  0.00     0.234 C 
BRANCH   8   9
HETATM    9  C   UNL     1     -42.173 -52.522  12.889  1.00  0.00     0.236 C 
HETATM   10  O   UNL     1     -41.945 -53.136  13.930  1.00  0.00    -0.272 OA
HETATM   11  N   UNL     1     -43.438 -52.089  12.535  1.00  0.00    -0.355 N 
HETATM   12  H   UNL     1     -43.508 -51.375  11.818  1.00  0.00     0.162 HD
BRANCH  11  13
HETATM   13  C   UNL     1     -44.576 -52.267  13.416  1.00  0.00     0.084 C 
HETATM   14  C   UNL     1     -45.904 -52.296  12.655  1.00  0.00     0.025 C 
HETATM   15  C   UNL     1     -46.926 -51.594  13.552  1.00  0.00     0.002 C 
HETATM   16  C   UNL     1     -46.193 -51.258  14.844  1.00  0.00     0.002 C 
HETATM   17  C   UNL     1     -44.738 -51.130  14.421  1.00  0.00     0.025 C 
ENDBRANCH  11  13
ENDBRANCH   8   9
ENDBRANCH   6   8
BRANCH   1  18
HETATM   18  N   UNL     1     -40.807 -47.494  10.908  1.00  0.00    -0.114 N 
HETATM   19  O   UNL     1     -41.851 -47.616  10.251  1.00  0.00    -0.532 OA
HETATM   20  O   UNL     1     -40.204 -46.424  11.075  1.00  0.00    -0.532 OA
ENDBRANCH   1  18
TORSDOF 4
ENDMDL
MODEL 5
REMARK VINA RESULT:      -5.2      3.078      5.193
REMARK  4 active torsions:
REMARK  status: ('A' for Active; 'I' for Inactive)
REMARK    1  A    between atoms: N_2  and  C_4 
REMARK    2  A    between atoms: N_9  and  C_10 
REMARK    3  A    between atoms: C_10  and  C_11 
REMARK       I    between atoms: C_11  and  N_13 
REMARK    4  A    between atoms: N_13  and  C_14 
ROOT
HETATM    1  C   UNL     1     -43.786 -54.423  13.811  1.00  0.00     0.118 A 
HETATM    2  C   UNL     1     -43.212 -54.956  15.027  1.00  0.00     0.043 A 
HETATM    3  C   UNL     1     -41.899 -54.822  15.267  1.00  0.00     0.077 A 
HETATM    4  C   UNL     1     -41.019 -54.118  14.293  1.00  0.00     0.247 A 
HETATM    5  O   UNL     1     -39.826 -53.980  14.544  1.00  0.00    -0.268 OA
HETATM    6  N   UNL     1     -41.638 -53.662  13.130  1.00  0.00    -0.314 N 
HETATM    7  C   UNL     1     -43.007 -53.806  12.908  1.00  0.00     0.130 A 
ENDROOT
BRANCH   6   8
HETATM    8  C   UNL     1     -40.827 -52.896  12.184  1.00  0.00     0.234 C 
BRANCH   8   9
HETATM    9  C   UNL     1     -40.782 -51.407  12.560  1.00  0.00     0.236 C 
HETATM   10  O   UNL     1     -41.635 -50.600  12.195  1.00  0.00    -0.272 OA
HETATM   11  N   UNL     1     -39.642 -51.035  13.250  1.00  0.00    -0.355 N 
HETATM   12  H   UNL     1     -39.132 -51.759  13.743  1.00  0.00     0.162 HD
BRANCH  11  13
HETATM   13  C   UNL     1     -39.417 -49.661  13.658  1.00  0.00     0.084 C 
HETATM   14  C   UNL     1     -38.132 -49.079  13.062  1.00  0.00     0.025 C 
HETATM   15  C   UNL     1     -37.539 -48.164  14.136  1.00  0.00     0.002 C 
HETATM   16  C   UNL     1     -38.535 -48.165  15.287  1.00  0.00     0.002 C 
HETATM   17  C   UNL     1     -39.241 -49.506  15.165  1.00  0.00     0.025 C 
ENDBRANCH  11  13
ENDBRANCH   8   9
ENDBRANCH   6   8
BRANCH   1  18
HETATM   18  N   UNL     1     -45.220 -54.532  13.532  1.00  0.00    -0.114 N 
HETATM   19  O   UNL     1     -45.867 -55.424  14.101  1.00  0.00    -0.532 OA
HETATM   20  O   UNL     1     -45.705 -53.707  12.745  1.00  0.00    -0.532 OA
ENDBRANCH   1  18
TORSDOF 4
ENDMDL
MODEL 6
REMARK VINA RESULT:      -5.2     11.535     13.553
REMARK  4 active torsions:
REMARK  status: ('A' for Active; 'I' for Inactive)
REMARK    1  A    between atoms: N_2  and  C_4 
REMARK    2  A    between atoms: N_9  and  C_10 
REMARK    3  A    between atoms: C_10  and  C_11 
REMARK       I    between atoms: C_11  and  N_13 
REMARK    4  A    between atoms: N_13  and  C_14 
ROOT
HETATM    1  C   UNL     1     -34.219 -61.190  18.554  1.00  0.00     0.118 A 
HETATM    2  C   UNL     1     -34.508 -61.510  19.934  1.00  0.00     0.043 A 
HETATM    3  C   UNL     1     -34.935 -60.554  20.772  1.00  0.00     0.077 A 
HETATM    4  C   UNL     1     -35.124 -59.155  20.293  1.00  0.00     0.247 A 
HETATM    5  O   UNL     1     -35.542 -58.301  21.068  1.00  0.00    -0.268 OA
HETATM    6  N   UNL     1     -34.792 -58.917  18.960  1.00  0.00    -0.314 N 
HETATM    7  C   UNL     1     -34.358 -59.931  18.107  1.00  0.00     0.130 A 
ENDROOT
BRANCH   6   8
HETATM    8  C   UNL     1     -35.038 -57.578  18.428  1.00  0.00     0.234 C 
BRANCH   8   9
HETATM    9  C   UNL     1     -33.786 -57.006  17.745  1.00  0.00     0.236 C 
HETATM   10  O   UNL     1     -33.629 -57.012  16.526  1.00  0.00    -0.272 OA
HETATM   11  N   UNL     1     -32.806 -56.585  18.627  1.00  0.00    -0.355 N 
HETATM   12  H   UNL     1     -33.090 -56.356  19.573  1.00  0.00     0.162 HD
BRANCH  11  13
HETATM   13  C   UNL     1     -31.544 -56.047  18.157  1.00  0.00     0.084 C 
HETATM   14  C   UNL     1     -30.372 -56.435  19.063  1.00  0.00     0.025 C 
HETATM   15  C   UNL     1     -29.430 -55.229  19.084  1.00  0.00     0.002 C 
HETATM   16  C   UNL     1     -30.028 -54.210  18.122  1.00  0.00     0.002 C 
HETATM   17  C   UNL     1     -31.516 -54.522  18.132  1.00  0.00     0.025 C 
ENDBRANCH  11  13
ENDBRANCH   8   9
ENDBRANCH   6   8
BRANCH   1  18
HETATM   18  N   UNL     1     -33.774 -62.217  17.609  1.00  0.00    -0.114 N 
HETATM   19  O   UNL     1     -34.624 -62.778  16.902  1.00  0.00    -0.532 OA
HETATM   20  O   UNL     1     -32.559 -62.454  17.565  1.00  0.00    -0.532 OA
ENDBRANCH   1  18
TORSDOF 4
ENDMDL
MODEL 7
REMARK VINA RESULT:      -5.2      4.409      6.858
REMARK  4 active torsions:
REMARK  status: ('A' for Active; 'I' for Inactive)
REMARK    1  A    between atoms: N_2  and  C_4 
REMARK    2  A    between atoms: N_9  and  C_10 
REMARK    3  A    between atoms: C_10  and  C_11 
REMARK       I    between atoms: C_11  and  N_13 
REMARK    4  A    between atoms: N_13  and  C_14 
ROOT
HETATM    1  C   UNL     1     -39.835 -48.910  12.813  1.00  0.00     0.118 A 
HETATM    2  C   UNL     1     -38.845 -48.830  11.762  1.00  0.00     0.043 A 
HETATM    3  C   UNL     1     -37.886 -49.762  11.668  1.00  0.00     0.077 A 
HETATM    4  C   UNL     1     -37.831 -50.893  12.636  1.00  0.00     0.247 A 
HETATM    5  O   UNL     1     -36.962 -51.752  12.515  1.00  0.00    -0.268 OA
HETATM    6  N   UNL     1     -38.798 -50.884  13.640  1.00  0.00    -0.314 N 
HETATM    7  C   UNL     1     -39.791 -49.908  13.711  1.00  0.00     0.130 A 
ENDROOT
BRANCH   6   8
HETATM    8  C   UNL     1     -38.830 -52.018  14.563  1.00  0.00     0.234 C 
BRANCH   8   9
HETATM    9  C   UNL     1     -39.729 -53.147  14.036  1.00  0.00     0.236 C 
HETATM   10  O   UNL     1     -39.329 -54.015  13.263  1.00  0.00    -0.272 OA
HETATM   11  N   UNL     1     -41.054 -53.036  14.420  1.00  0.00    -0.355 N 
HETATM   12  H   UNL     1     -41.261 -52.484  15.245  1.00  0.00     0.162 HD
BRANCH  11  13
HETATM   13  C   UNL     1     -42.052 -53.996  13.989  1.00  0.00     0.084 C 
HETATM   14  C   UNL     1     -42.959 -53.439  12.888  1.00  0.00     0.025 C 
HETATM   15  C   UNL     1     -44.353 -54.014  13.152  1.00  0.00     0.002 C 
HETATM   16  C   UNL     1     -44.203 -54.958  14.338  1.00  0.00     0.002 C 
HETATM   17  C   UNL     1     -43.011 -54.403  15.103  1.00  0.00     0.025 C 
ENDBRANCH  11  13
ENDBRANCH   8   9
ENDBRANCH   6   8
BRANCH   1  18
HETATM   18  N   UNL     1     -40.909 -47.921  12.928  1.00  0.00    -0.114 N 
HETATM   19  O   UNL     1     -41.573 -47.648  11.917  1.00  0.00    -0.532 OA
HETATM   20  O   UNL     1     -41.098 -47.421  14.046  1.00  0.00    -0.532 OA
ENDBRANCH   1  18
TORSDOF 4
ENDMDL
MODEL 8
REMARK VINA RESULT:      -5.1      2.381      5.817
REMARK  4 active torsions:
REMARK  status: ('A' for Active; 'I' for Inactive)
REMARK    1  A    between atoms: N_2  and  C_4 
REMARK    2  A    between atoms: N_9  and  C_10 
REMARK    3  A    between atoms: C_10  and  C_11 
REMARK       I    between atoms: C_11  and  N_13 
REMARK    4  A    between atoms: N_13  and  C_14 
ROOT
HETATM    1  C   UNL     1     -41.307 -55.065  15.573  1.00  0.00     0.118 A 
HETATM    2  C   UNL     1     -39.943 -54.752  15.207  1.00  0.00     0.043 A 
HETATM    3  C   UNL     1     -39.683 -54.116  14.056  1.00  0.00     0.077 A 
HETATM    4  C   UNL     1     -40.792 -53.717  13.144  1.00  0.00     0.247 A 
HETATM    5  O   UNL     1     -40.536 -53.110  12.108  1.00  0.00    -0.268 OA
HETATM    6  N   UNL     1     -42.075 -54.083  13.548  1.00  0.00    -0.314 N 
HETATM    7  C   UNL     1     -42.320 -54.736  14.755  1.00  0.00     0.130 A 
ENDROOT
BRANCH   6   8
HETATM    8  C   UNL     1     -43.199 -53.641  12.722  1.00  0.00     0.234 C 
BRANCH   8   9
HETATM    9  C   UNL     1     -44.535 -53.789  13.466  1.00  0.00     0.236 C 
HETATM   10  O   UNL     1     -45.362 -54.654  13.187  1.00  0.00    -0.272 OA
HETATM   11  N   UNL     1     -44.771 -52.798  14.402  1.00  0.00    -0.355 N 
HETATM   12  H   UNL     1     -43.970 -52.296  14.770  1.00  0.00     0.162 HD
BRANCH  11  13
HETATM   13  C   UNL     1     -45.997 -52.762  15.176  1.00  0.00     0.084 C 
HETATM   14  C   UNL     1     -46.811 -51.491  14.921  1.00  0.00     0.025 C 
HETATM   15  C   UNL     1     -47.445 -51.113  16.261  1.00  0.00     0.002 C 
HETATM   16  C   UNL     1     -47.061 -52.218  17.236  1.00  0.00     0.002 C 
HETATM   17  C   UNL     1     -45.754 -52.762  16.682  1.00  0.00     0.025 C 
ENDBRANCH  11  13
ENDBRANCH   8   9
ENDBRANCH   6   8
BRANCH   1  18
HETATM   18  N   UNL     1     -41.623 -55.737  16.835  1.00  0.00    -0.114 N 
HETATM   19  O   UNL     1     -40.719 -55.887  17.669  1.00  0.00    -0.532 OA
HETATM   20  O   UNL     1     -42.795 -56.107  16.997  1.00  0.00    -0.532 OA
ENDBRANCH   1  18
TORSDOF 4
ENDMDL
MODEL 9
REMARK VINA RESULT:      -5.0      1.346      3.175
REMARK  4 active torsions:
REMARK  status: ('A' for Active; 'I' for Inactive)
REMARK    1  A    between atoms: N_2  and  C_4 
REMARK    2  A    between atoms: N_9  and  C_10 
REMARK    3  A    between atoms: C_10  and  C_11 
REMARK       I    between atoms: C_11  and  N_13 
REMARK    4  A    between atoms: N_13  and  C_14 
ROOT
HETATM    1  C   UNL     1     -45.908 -52.638  13.937  1.00  0.00     0.118 A 
HETATM    2  C   UNL     1     -46.774 -51.558  14.354  1.00  0.00     0.043 A 
HETATM    3  C   UNL     1     -46.927 -51.282  15.658  1.00  0.00     0.077 A 
HETATM    4  C   UNL     1     -46.204 -52.076  16.690  1.00  0.00     0.247 A 
HETATM    5  O   UNL     1     -46.334 -51.789  17.876  1.00  0.00    -0.268 OA
HETATM    6  N   UNL     1     -45.414 -53.121  16.213  1.00  0.00    -0.314 N 
HETATM    7  C   UNL     1     -45.265 -53.383  14.852  1.00  0.00     0.130 A 
ENDROOT
BRANCH   6   8
HETATM    8  C   UNL     1     -44.624 -53.875  17.186  1.00  0.00     0.234 C 
BRANCH   8   9
HETATM    9  C   UNL     1     -43.392 -54.518  16.533  1.00  0.00     0.236 C 
HETATM   10  O   UNL     1     -43.279 -55.731  16.368  1.00  0.00    -0.272 OA
HETATM   11  N   UNL     1     -42.376 -53.624  16.247  1.00  0.00    -0.355 N 
HETATM   12  H   UNL     1     -42.622 -52.645  16.151  1.00  0.00     0.162 HD
BRANCH  11  13
HETATM   13  C   UNL     1     -41.125 -54.060  15.656  1.00  0.00     0.084 C 
HETATM   14  C   UNL     1     -39.991 -53.057  15.885  1.00  0.00     0.025 C 
HETATM   15  C   UNL     1     -39.137 -53.081  14.615  1.00  0.00     0.002 C 
HETATM   16  C   UNL     1     -39.738 -54.157  13.722  1.00  0.00     0.002 C 
HETATM   17  C   UNL     1     -41.200 -54.210  14.139  1.00  0.00     0.025 C 
ENDBRANCH  11  13
ENDBRANCH   8   9
ENDBRANCH   6   8
BRANCH   1  18
HETATM   18  N   UNL     1     -45.702 -52.948  12.521  1.00  0.00    -0.114 N 
HETATM   19  O   UNL     1     -44.736 -53.658  12.204  1.00  0.00    -0.532 OA
HETATM   20  O   UNL     1     -46.526 -52.486  11.718  1.00  0.00    -0.532 OA
ENDBRANCH   1  18
TORSDOF 4
ENDMDL
