MODEL 1
REMARK VINA RESULT:      -6.1      0.000      0.000
REMARK  4 active torsions:
REMARK  status: ('A' for Active; 'I' for Inactive)
REMARK    1  A    between atoms: C_2  and  C_3 
REMARK    2  A    between atoms: C_2  and  N_10 
REMARK    3  A    between atoms: C_3  and  N_4 
REMARK       I    between atoms: N_10  and  C_11 
REMARK       I    between atoms: C_11  and  N_13 
REMARK    4  A    between atoms: N_13  and  C_14 
ROOT
HETATM    1  N   UNL     1     -41.638 -47.873  10.003  1.00  0.00    -0.337 N 
HETATM    2  C   UNL     1     -41.689 -48.813  11.007  1.00  0.00     0.321 C 
HETATM    3  O   UNL     1     -42.446 -48.734  11.964  1.00  0.00    -0.247 OA
HETATM    4  N   UNL     1     -40.707 -49.762  10.824  1.00  0.00    -0.308 N 
HETATM    5  H   UNL     1     -41.484 -48.239   9.075  1.00  0.00     0.164 HD
HETATM    6  H   UNL     1     -39.902 -49.405  10.329  1.00  0.00     0.170 HD
ENDROOT
BRANCH   1   7
HETATM    7  C   UNL     1     -42.389 -46.626  10.100  1.00  0.00     0.100 C 
HETATM    8  C   UNL     1     -41.421 -45.478  10.368  1.00  0.00     0.034 C 
BRANCH   7   9
HETATM    9  C   UNL     1     -43.324 -46.371   8.901  1.00  0.00     0.150 C 
BRANCH   9  10
HETATM   10  N   UNL     1     -44.450 -47.291   8.780  1.00  0.00    -0.350 N 
HETATM   11  C   UNL     1     -45.672 -47.106   9.511  1.00  0.00     0.126 C 
HETATM   12  C   UNL     1     -46.653 -48.109   8.925  1.00  0.00     0.029 C 
HETATM   13  C   UNL     1     -45.981 -48.707   7.696  1.00  0.00     0.104 C 
HETATM   14  C   UNL     1     -44.566 -48.202   7.743  1.00  0.00     0.219 C 
HETATM   15  O   UNL     1     -43.684 -48.520   6.960  1.00  0.00    -0.273 OA
ENDBRANCH   9  10
ENDBRANCH   7   9
ENDBRANCH   1   7
BRANCH   4  16
HETATM   16  C   UNL     1     -40.476 -50.800  11.746  1.00  0.00     0.051 A 
HETATM   17  C   UNL     1     -41.313 -51.913  11.723  1.00  0.00     0.032 A 
HETATM   18  C   UNL     1     -41.068 -52.973  12.593  1.00  0.00     0.019 A 
HETATM   19  C   UNL     1     -40.020 -52.858  13.493  1.00  0.00     0.088 A 
HETATM   20  N   UNL     1     -39.217 -51.777  13.574  1.00  0.00    -0.373 N 
HETATM   21  C   UNL     1     -39.449 -50.778  12.686  1.00  0.00     0.117 A 
ATOM     22  HN  UNL     1     -38.473 -51.713  14.269  1.00  0.00     0.164 HD
ENDBRANCH   4  16
TORSDOF 4
ENDMDL
MODEL 2
REMARK VINA RESULT:      -6.0      4.552      6.620
REMARK  4 active torsions:
REMARK  status: ('A' for Active; 'I' for Inactive)
REMARK    1  A    between atoms: C_2  and  C_3 
REMARK    2  A    between atoms: C_2  and  N_10 
REMARK    3  A    between atoms: C_3  and  N_4 
REMARK       I    between atoms: N_10  and  C_11 
REMARK       I    between atoms: C_11  and  N_13 
REMARK    4  A    between atoms: N_13  and  C_14 
ROOT
HETATM    1  N   UNL     1     -42.414 -53.152  14.204  1.00  0.00    -0.337 N 
HETATM    2  C   UNL     1     -41.400 -52.867  13.319  1.00  0.00     0.321 C 
HETATM    3  O   UNL     1     -40.986 -53.665  12.490  1.00  0.00    -0.247 OA
HETATM    4  N   UNL     1     -40.870 -51.622  13.583  1.00  0.00    -0.308 N 
HETATM    5  H   UNL     1     -43.044 -52.388  14.400  1.00  0.00     0.164 HD
HETATM    6  H   UNL     1     -40.960 -51.354  14.553  1.00  0.00     0.170 HD
ENDROOT
BRANCH   1   7
HETATM    7  C   UNL     1     -42.963 -54.499  14.310  1.00  0.00     0.100 C 
HETATM    8  C   UNL     1     -42.592 -55.084  15.670  1.00  0.00     0.034 C 
BRANCH   7   9
HETATM    9  C   UNL     1     -44.472 -54.580  14.001  1.00  0.00     0.150 C 
BRANCH   9  10
HETATM   10  N   UNL     1     -45.159 -53.297  13.906  1.00  0.00    -0.350 N 
HETATM   11  C   UNL     1     -45.569 -52.740  12.648  1.00  0.00     0.126 C 
HETATM   12  C   UNL     1     -46.451 -51.551  12.997  1.00  0.00     0.029 C 
HETATM   13  C   UNL     1     -46.681 -51.608  14.501  1.00  0.00     0.104 C 
HETATM   14  C   UNL     1     -45.752 -52.681  14.996  1.00  0.00     0.219 C 
HETATM   15  O   UNL     1     -45.590 -52.979  16.169  1.00  0.00    -0.273 OA
ENDBRANCH   9  10
ENDBRANCH   7   9
ENDBRANCH   1   7
BRANCH   4  16
HETATM   16  C   UNL     1     -39.763 -51.106  12.883  1.00  0.00     0.051 A 
HETATM   17  C   UNL     1     -38.486 -51.336  13.387  1.00  0.00     0.032 A 
HETATM   18  C   UNL     1     -37.377 -50.877  12.680  1.00  0.00     0.019 A 
HETATM   19  C   UNL     1     -37.590 -50.157  11.515  1.00  0.00     0.088 A 
HETATM   20  N   UNL     1     -38.814 -49.876  11.020  1.00  0.00    -0.373 N 
HETATM   21  C   UNL     1     -39.875 -50.373  11.704  1.00  0.00     0.117 A 
ATOM     22  HN  UNL     1     -38.935 -49.318  10.175  1.00  0.00     0.164 HD
ENDBRANCH   4  16
TORSDOF 4
ENDMDL
MODEL 3
REMARK VINA RESULT:      -5.6      2.963      4.825
REMARK  4 active torsions:
REMARK  status: ('A' for Active; 'I' for Inactive)
REMARK    1  A    between atoms: C_2  and  C_3 
REMARK    2  A    between atoms: C_2  and  N_10 
REMARK    3  A    between atoms: C_3  and  N_4 
REMARK       I    between atoms: N_10  and  C_11 
REMARK       I    between atoms: C_11  and  N_13 
REMARK    4  A    between atoms: N_13  and  C_14 
ROOT
HETATM    1  N   UNL     1     -40.858 -50.983  11.589  1.00  0.00    -0.337 N 
HETATM    2  C   UNL     1     -41.891 -51.373  12.411  1.00  0.00     0.321 C 
HETATM    3  O   UNL     1     -42.127 -50.845  13.489  1.00  0.00    -0.247 OA
HETATM    4  N   UNL     1     -42.520 -52.485  11.895  1.00  0.00    -0.308 N 
HETATM    5  H   UNL     1     -41.059 -51.012  10.600  1.00  0.00     0.164 HD
HETATM    6  H   UNL     1     -41.909 -53.057  11.330  1.00  0.00     0.170 HD
ENDROOT
BRANCH   1   7
HETATM    7  C   UNL     1     -39.874 -50.002  12.030  1.00  0.00     0.100 C 
HETATM    8  C   UNL     1     -38.487 -50.637  12.002  1.00  0.00     0.034 C 
BRANCH   7   9
HETATM    9  C   UNL     1     -39.949 -48.663  11.268  1.00  0.00     0.150 C 
BRANCH   9  10
HETATM   10  N   UNL     1     -41.226 -47.965  11.356  1.00  0.00    -0.350 N 
HETATM   11  C   UNL     1     -42.220 -48.053  10.324  1.00  0.00     0.126 C 
HETATM   12  C   UNL     1     -43.468 -47.405  10.903  1.00  0.00     0.029 C 
HETATM   13  C   UNL     1     -43.179 -47.148  12.376  1.00  0.00     0.104 C 
HETATM   14  C   UNL     1     -41.716 -47.444  12.543  1.00  0.00     0.219 C 
HETATM   15  O   UNL     1     -41.084 -47.286  13.576  1.00  0.00    -0.273 OA
ENDBRANCH   9  10
ENDBRANCH   7   9
ENDBRANCH   1   7
BRANCH   4  16
HETATM   16  C   UNL     1     -43.563 -53.147  12.571  1.00  0.00     0.051 A 
HETATM   17  C   UNL     1     -43.239 -54.161  13.469  1.00  0.00     0.032 A 
HETATM   18  C   UNL     1     -44.253 -54.792  14.185  1.00  0.00     0.019 A 
HETATM   19  C   UNL     1     -45.565 -54.418  13.937  1.00  0.00     0.088 A 
HETATM   20  N   UNL     1     -45.919 -53.472  13.042  1.00  0.00    -0.373 N 
HETATM   21  C   UNL     1     -44.909 -52.842  12.392  1.00  0.00     0.117 A 
ATOM     22  HN  UNL     1     -46.897 -53.242  12.864  1.00  0.00     0.164 HD
ENDBRANCH   4  16
TORSDOF 4
ENDMDL
MODEL 4
REMARK VINA RESULT:      -5.5      3.045      7.211
REMARK  4 active torsions:
REMARK  status: ('A' for Active; 'I' for Inactive)
REMARK    1  A    between atoms: C_2  and  C_3 
REMARK    2  A    between atoms: C_2  and  N_10 
REMARK    3  A    between atoms: C_3  and  N_4 
REMARK       I    between atoms: N_10  and  C_11 
REMARK       I    between atoms: C_11  and  N_13 
REMARK    4  A    between atoms: N_13  and  C_14 
ROOT
HETATM    1  N   UNL     1     -42.987 -51.152  12.537  1.00  0.00    -0.337 N 
HETATM    2  C   UNL     1     -42.398 -49.908  12.541  1.00  0.00     0.321 C 
HETATM    3  O   UNL     1     -41.977 -49.367  13.554  1.00  0.00    -0.247 OA
HETATM    4  N   UNL     1     -42.461 -49.345  11.285  1.00  0.00    -0.308 N 
HETATM    5  H   UNL     1     -42.775 -51.728  11.736  1.00  0.00     0.164 HD
HETATM    6  H   UNL     1     -43.250 -49.671  10.746  1.00  0.00     0.170 HD
ENDROOT
BRANCH   1   7
HETATM    7  C   UNL     1     -43.287 -51.847  13.784  1.00  0.00     0.100 C 
HETATM    8  C   UNL     1     -44.727 -51.548  14.190  1.00  0.00     0.034 C 
BRANCH   7   9
HETATM    9  C   UNL     1     -42.962 -53.354  13.747  1.00  0.00     0.150 C 
BRANCH   9  10
HETATM   10  N   UNL     1     -41.613 -53.713  14.171  1.00  0.00    -0.350 N 
HETATM   11  C   UNL     1     -41.359 -54.442  15.381  1.00  0.00     0.126 C 
HETATM   12  C   UNL     1     -39.888 -54.822  15.326  1.00  0.00     0.029 C 
HETATM   13  C   UNL     1     -39.396 -54.454  13.933  1.00  0.00     0.104 C 
HETATM   14  C   UNL     1     -40.525 -53.678  13.315  1.00  0.00     0.219 C 
HETATM   15  O   UNL     1     -40.486 -53.144  12.217  1.00  0.00    -0.273 OA
ENDBRANCH   9  10
ENDBRANCH   7   9
ENDBRANCH   1   7
BRANCH   4  16
HETATM   16  C   UNL     1     -42.006 -48.040  11.016  1.00  0.00     0.051 A 
HETATM   17  C   UNL     1     -42.942 -47.014  10.911  1.00  0.00     0.032 A 
HETATM   18  C   UNL     1     -42.506 -45.709  10.697  1.00  0.00     0.019 A 
HETATM   19  C   UNL     1     -41.147 -45.484  10.545  1.00  0.00     0.088 A 
HETATM   20  N   UNL     1     -40.215 -46.459  10.596  1.00  0.00    -0.373 N 
HETATM   21  C   UNL     1     -40.662 -47.715  10.850  1.00  0.00     0.117 A 
ATOM     22  HN  UNL     1     -39.225 -46.263  10.451  1.00  0.00     0.164 HD
ENDBRANCH   4  16
TORSDOF 4
ENDMDL
MODEL 5
REMARK VINA RESULT:      -5.5      3.490      7.187
REMARK  4 active torsions:
REMARK  status: ('A' for Active; 'I' for Inactive)
REMARK    1  A    between atoms: C_2  and  C_3 
REMARK    2  A    between atoms: C_2  and  N_10 
REMARK    3  A    between atoms: C_3  and  N_4 
REMARK       I    between atoms: N_10  and  C_11 
REMARK       I    between atoms: C_11  and  N_13 
REMARK    4  A    between atoms: N_13  and  C_14 
ROOT
HETATM    1  N   UNL     1     -44.533 -50.774  12.726  1.00  0.00    -0.337 N 
HETATM    2  C   UNL     1     -43.423 -49.961  12.739  1.00  0.00     0.321 C 
HETATM    3  O   UNL     1     -42.530 -50.056  13.569  1.00  0.00    -0.247 OA
HETATM    4  N   UNL     1     -43.533 -48.987  11.771  1.00  0.00    -0.308 N 
HETATM    5  H   UNL     1     -44.867 -51.036  11.810  1.00  0.00     0.164 HD
HETATM    6  H   UNL     1     -44.492 -48.749  11.559  1.00  0.00     0.170 HD
ENDROOT
BRANCH   1   7
HETATM    7  C   UNL     1     -44.789 -51.715  13.811  1.00  0.00     0.100 C 
HETATM    8  C   UNL     1     -46.133 -51.383  14.455  1.00  0.00     0.034 C 
BRANCH   7   9
HETATM    9  C   UNL     1     -44.661 -53.194  13.393  1.00  0.00     0.150 C 
BRANCH   9  10
HETATM   10  N   UNL     1     -43.425 -53.852  13.801  1.00  0.00    -0.350 N 
HETATM   11  C   UNL     1     -42.161 -53.556  13.188  1.00  0.00     0.126 C 
HETATM   12  C   UNL     1     -41.117 -54.250  14.049  1.00  0.00     0.029 C 
HETATM   13  C   UNL     1     -41.846 -54.763  15.284  1.00  0.00     0.104 C 
HETATM   14  C   UNL     1     -43.305 -54.550  14.992  1.00  0.00     0.219 C 
HETATM   15  O   UNL     1     -44.222 -54.903  15.717  1.00  0.00    -0.273 OA
ENDBRANCH   9  10
ENDBRANCH   7   9
ENDBRANCH   1   7
BRANCH   4  16
HETATM   16  C   UNL     1     -42.577 -47.966  11.611  1.00  0.00     0.051 A 
HETATM   17  C   UNL     1     -42.717 -46.796  12.354  1.00  0.00     0.032 A 
HETATM   18  C   UNL     1     -41.752 -45.798  12.247  1.00  0.00     0.019 A 
HETATM   19  C   UNL     1     -40.704 -45.986  11.359  1.00  0.00     0.088 A 
HETATM   20  N   UNL     1     -40.560 -47.085  10.591  1.00  0.00    -0.373 N 
HETATM   21  C   UNL     1     -41.489 -48.062  10.747  1.00  0.00     0.117 A 
ATOM     22  HN  UNL     1     -39.793 -47.178   9.926  1.00  0.00     0.164 HD
ENDBRANCH   4  16
TORSDOF 4
ENDMDL
MODEL 6
REMARK VINA RESULT:      -5.1      3.416      6.258
REMARK  4 active torsions:
REMARK  status: ('A' for Active; 'I' for Inactive)
REMARK    1  A    between atoms: C_2  and  C_3 
REMARK    2  A    between atoms: C_2  and  N_10 
REMARK    3  A    between atoms: C_3  and  N_4 
REMARK       I    between atoms: N_10  and  C_11 
REMARK       I    between atoms: C_11  and  N_13 
REMARK    4  A    between atoms: N_13  and  C_14 
ROOT
HETATM    1  N   UNL     1     -41.552 -51.578  14.102  1.00  0.00    -0.337 N 
HETATM    2  C   UNL     1     -41.859 -50.612  13.171  1.00  0.00     0.321 C 
HETATM    3  O   UNL     1     -42.602 -50.807  12.219  1.00  0.00    -0.247 OA
HETATM    4  N   UNL     1     -41.131 -49.467  13.413  1.00  0.00    -0.308 N 
HETATM    5  H   UNL     1     -41.465 -51.251  15.052  1.00  0.00     0.164 HD
HETATM    6  H   UNL     1     -40.249 -49.650  13.870  1.00  0.00     0.170 HD
ENDROOT
BRANCH   1   7
HETATM    7  C   UNL     1     -41.983 -52.960  13.921  1.00  0.00     0.100 C 
HETATM    8  C   UNL     1     -40.793 -53.888  14.151  1.00  0.00     0.034 C 
BRANCH   7   9
HETATM    9  C   UNL     1     -43.223 -53.338  14.756  1.00  0.00     0.150 C 
BRANCH   9  10
HETATM   10  N   UNL     1     -44.498 -52.868  14.226  1.00  0.00    -0.350 N 
HETATM   11  C   UNL     1     -45.128 -51.667  14.698  1.00  0.00     0.126 C 
HETATM   12  C   UNL     1     -46.278 -51.406  13.738  1.00  0.00     0.029 C 
HETATM   13  C   UNL     1     -46.122 -52.399  12.594  1.00  0.00     0.104 C 
HETATM   14  C   UNL     1     -45.034 -53.336  13.038  1.00  0.00     0.219 C 
HETATM   15  O   UNL     1     -44.666 -54.322  12.419  1.00  0.00    -0.273 OA
ENDBRANCH   9  10
ENDBRANCH   7   9
ENDBRANCH   1   7
BRANCH   4  16
HETATM   16  C   UNL     1     -41.184 -48.343  12.567  1.00  0.00     0.051 A 
HETATM   17  C   UNL     1     -42.140 -47.361  12.821  1.00  0.00     0.032 A 
HETATM   18  C   UNL     1     -42.174 -46.217  12.027  1.00  0.00     0.019 A 
HETATM   19  C   UNL     1     -41.280 -46.120  10.972  1.00  0.00     0.088 A 
HETATM   20  N   UNL     1     -40.371 -47.071  10.669  1.00  0.00    -0.373 N 
HETATM   21  C   UNL     1     -40.329 -48.154  11.486  1.00  0.00     0.117 A 
ATOM     22  HN  UNL     1     -39.747 -46.980   9.867  1.00  0.00     0.164 HD
ENDBRANCH   4  16
TORSDOF 4
ENDMDL
MODEL 7
REMARK VINA RESULT:      -5.1      3.442      6.765
REMARK  4 active torsions:
REMARK  status: ('A' for Active; 'I' for Inactive)
REMARK    1  A    between atoms: C_2  and  C_3 
REMARK    2  A    between atoms: C_2  and  N_10 
REMARK    3  A    between atoms: C_3  and  N_4 
REMARK       I    between atoms: N_10  and  C_11 
REMARK       I    between atoms: C_11  and  N_13 
REMARK    4  A    between atoms: N_13  and  C_14 
ROOT
HETATM    1  N   UNL     1     -43.073 -51.298  12.775  1.00  0.00    -0.337 N 
HETATM    2  C   UNL     1     -42.388 -50.223  12.256  1.00  0.00     0.321 C 
HETATM    3  O   UNL     1     -41.168 -50.160  12.214  1.00  0.00    -0.247 OA
HETATM    4  N   UNL     1     -43.266 -49.219  11.909  1.00  0.00    -0.308 N 
HETATM    5  H   UNL     1     -43.924 -51.543  12.290  1.00  0.00     0.164 HD
HETATM    6  H   UNL     1     -44.111 -49.226  12.462  1.00  0.00     0.170 HD
ENDROOT
BRANCH   1   7
HETATM    7  C   UNL     1     -42.372 -52.379  13.457  1.00  0.00     0.100 C 
HETATM    8  C   UNL     1     -42.166 -51.999  14.920  1.00  0.00     0.034 C 
BRANCH   7   9
HETATM    9  C   UNL     1     -43.032 -53.761  13.271  1.00  0.00     0.150 C 
BRANCH   9  10
HETATM   10  N   UNL     1     -44.349 -53.910  13.880  1.00  0.00    -0.350 N 
HETATM   11  C   UNL     1     -44.518 -54.277  15.258  1.00  0.00     0.126 C 
HETATM   12  C   UNL     1     -45.997 -54.081  15.553  1.00  0.00     0.029 C 
HETATM   13  C   UNL     1     -46.594 -53.386  14.337  1.00  0.00     0.104 C 
HETATM   14  C   UNL     1     -45.503 -53.408  13.302  1.00  0.00     0.219 C 
HETATM   15  O   UNL     1     -45.620 -53.006  12.155  1.00  0.00    -0.273 OA
ENDBRANCH   9  10
ENDBRANCH   7   9
ENDBRANCH   1   7
BRANCH   4  16
HETATM   16  C   UNL     1     -42.834 -47.969  11.426  1.00  0.00     0.051 A 
HETATM   17  C   UNL     1     -42.816 -46.885  12.300  1.00  0.00     0.032 A 
HETATM   18  C   UNL     1     -42.342 -45.653  11.854  1.00  0.00     0.019 A 
HETATM   19  C   UNL     1     -41.951 -45.538  10.529  1.00  0.00     0.088 A 
HETATM   20  N   UNL     1     -41.998 -46.554   9.642  1.00  0.00    -0.373 N 
HETATM   21  C   UNL     1     -42.420 -47.754  10.114  1.00  0.00     0.117 A 
ATOM     22  HN  UNL     1     -41.730 -46.427   8.666  1.00  0.00     0.164 HD
ENDBRANCH   4  16
TORSDOF 4
ENDMDL
MODEL 8
REMARK VINA RESULT:      -5.1      3.944      5.727
REMARK  4 active torsions:
REMARK  status: ('A' for Active; 'I' for Inactive)
REMARK    1  A    between atoms: C_2  and  C_3 
REMARK    2  A    between atoms: C_2  and  N_10 
REMARK    3  A    between atoms: C_3  and  N_4 
REMARK       I    between atoms: N_10  and  C_11 
REMARK       I    between atoms: C_11  and  N_13 
REMARK    4  A    between atoms: N_13  and  C_14 
ROOT
HETATM    1  N   UNL     1     -43.533 -49.233  12.104  1.00  0.00    -0.337 N 
HETATM    2  C   UNL     1     -43.924 -50.150  13.053  1.00  0.00     0.321 C 
HETATM    3  O   UNL     1     -43.337 -50.313  14.113  1.00  0.00    -0.247 OA
HETATM    4  N   UNL     1     -44.978 -50.904  12.583  1.00  0.00    -0.308 N 
HETATM    5  H   UNL     1     -44.284 -48.767  11.617  1.00  0.00     0.164 HD
HETATM    6  H   UNL     1     -44.982 -50.991  11.577  1.00  0.00     0.170 HD
ENDROOT
BRANCH   1   7
HETATM    7  C   UNL     1     -42.283 -48.494  12.242  1.00  0.00     0.100 C 
HETATM    8  C   UNL     1     -41.242 -49.091  11.299  1.00  0.00     0.034 C 
BRANCH   7   9
HETATM    9  C   UNL     1     -42.444 -46.968  12.089  1.00  0.00     0.150 C 
BRANCH   9  10
HETATM   10  N   UNL     1     -41.224 -46.242  11.754  1.00  0.00    -0.350 N 
HETATM   11  C   UNL     1     -41.011 -45.658  10.460  1.00  0.00     0.126 C 
HETATM   12  C   UNL     1     -39.763 -44.800  10.601  1.00  0.00     0.029 C 
HETATM   13  C   UNL     1     -39.423 -44.770  12.085  1.00  0.00     0.104 C 
HETATM   14  C   UNL     1     -40.339 -45.781  12.715  1.00  0.00     0.219 C 
HETATM   15  O   UNL     1     -40.320 -46.102  13.893  1.00  0.00    -0.273 OA
ENDBRANCH   9  10
ENDBRANCH   7   9
ENDBRANCH   1   7
BRANCH   4  16
HETATM   16  C   UNL     1     -45.529 -51.973  13.314  1.00  0.00     0.051 A 
HETATM   17  C   UNL     1     -46.388 -51.686  14.372  1.00  0.00     0.032 A 
HETATM   18  C   UNL     1     -46.984 -52.731  15.074  1.00  0.00     0.019 A 
HETATM   19  C   UNL     1     -46.658 -54.031  14.721  1.00  0.00     0.088 A 
HETATM   20  N   UNL     1     -45.796 -54.347  13.732  1.00  0.00    -0.373 N 
HETATM   21  C   UNL     1     -45.264 -53.311  13.036  1.00  0.00     0.117 A 
ATOM     22  HN  UNL     1     -45.556 -55.315  13.519  1.00  0.00     0.164 HD
ENDBRANCH   4  16
TORSDOF 4
ENDMDL
MODEL 9
REMARK VINA RESULT:      -4.9      3.802      6.484
REMARK  4 active torsions:
REMARK  status: ('A' for Active; 'I' for Inactive)
REMARK    1  A    between atoms: C_2  and  C_3 
REMARK    2  A    between atoms: C_2  and  N_10 
REMARK    3  A    between atoms: C_3  and  N_4 
REMARK       I    between atoms: N_10  and  C_11 
REMARK       I    between atoms: C_11  and  N_13 
REMARK    4  A    between atoms: N_13  and  C_14 
ROOT
HETATM    1  N   UNL     1     -43.030 -49.401  12.127  1.00  0.00    -0.337 N 
HETATM    2  C   UNL     1     -43.335 -50.578  12.772  1.00  0.00     0.321 C 
HETATM    3  O   UNL     1     -42.512 -51.453  13.000  1.00  0.00    -0.247 OA
HETATM    4  N   UNL     1     -44.691 -50.656  13.008  1.00  0.00    -0.308 N 
HETATM    5  H   UNL     1     -43.511 -48.583  12.471  1.00  0.00     0.164 HD
HETATM    6  H   UNL     1     -45.238 -50.142  12.333  1.00  0.00     0.170 HD
ENDROOT
BRANCH   1   7
HETATM    7  C   UNL     1     -41.716 -49.189  11.532  1.00  0.00     0.100 C 
HETATM    8  C   UNL     1     -41.859 -48.277  10.316  1.00  0.00     0.034 C 
BRANCH   7   9
HETATM    9  C   UNL     1     -40.651 -48.705  12.537  1.00  0.00     0.150 C 
BRANCH   9  10
HETATM   10  N   UNL     1     -39.580 -49.654  12.817  1.00  0.00    -0.350 N 
HETATM   11  C   UNL     1     -38.465 -49.834  11.930  1.00  0.00     0.126 C 
HETATM   12  C   UNL     1     -37.475 -50.703  12.691  1.00  0.00     0.029 C 
HETATM   13  C   UNL     1     -38.002 -50.815  14.115  1.00  0.00     0.104 C 
HETATM   14  C   UNL     1     -39.375 -50.204  14.071  1.00  0.00     0.219 C 
HETATM   15  O   UNL     1     -40.154 -50.170  15.010  1.00  0.00    -0.273 OA
ENDBRANCH   9  10
ENDBRANCH   7   9
ENDBRANCH   1   7
BRANCH   4  16
HETATM   16  C   UNL     1     -45.295 -51.791  13.583  1.00  0.00     0.051 A 
HETATM   17  C   UNL     1     -45.814 -51.690  14.872  1.00  0.00     0.032 A 
HETATM   18  C   UNL     1     -46.462 -52.786  15.438  1.00  0.00     0.019 A 
HETATM   19  C   UNL     1     -46.522 -53.963  14.709  1.00  0.00     0.088 A 
HETATM   20  N   UNL     1     -45.991 -54.111  13.477  1.00  0.00    -0.373 N 
HETATM   21  C   UNL     1     -45.406 -53.015  12.931  1.00  0.00     0.117 A 
ATOM     22  HN  UNL     1     -46.029 -55.002  12.981  1.00  0.00     0.164 HD
ENDBRANCH   4  16
TORSDOF 4
ENDMDL
