MODEL 1
REMARK VINA RESULT:      -5.9      0.000      0.000
REMARK  5 active torsions:
REMARK  status: ('A' for Active; 'I' for Inactive)
REMARK       I    between atoms: C_2  and  N_3 
REMARK       I    between atoms: C_2  and  N_15 
REMARK    1  A    between atoms: N_3  and  C_4 
REMARK    2  A    between atoms: C_4  and  C_5 
REMARK    3  A    between atoms: C_5  and  S_6 
REMARK    4  A    between atoms: S_6  and  N_9 
REMARK    5  A    between atoms: N_15  and  C_16 
ROOT
HETATM    1  O   UNL     1     -42.019 -48.571  10.746  1.00  0.00    -0.247 OA
HETATM    2  C   UNL     1     -41.887 -47.500  10.164  1.00  0.00     0.321 C 
HETATM    3  N   UNL     1     -40.758 -46.777  10.445  1.00  0.00    -0.342 N 
HETATM    4  N   UNL     1     -42.726 -46.939   9.247  1.00  0.00    -0.295 N 
HETATM    5  H   UNL     1     -40.265 -47.212  11.226  1.00  0.00     0.164 HD
HETATM    6  H   UNL     1     -42.481 -46.046   8.871  1.00  0.00     0.172 HD
ENDROOT
BRANCH   3   7
HETATM    7  C   UNL     1     -40.443 -45.396  10.118  1.00  0.00     0.141 C 
BRANCH   7   8
HETATM    8  C   UNL     1     -40.592 -44.454  11.297  1.00  0.00     0.183 C 
BRANCH   8   9
HETATM    9  S   UNL     1     -42.267 -43.880  11.478  1.00  0.00     0.230 S 
HETATM   10  O   UNL     1     -42.974 -44.200  10.259  1.00  0.00    -0.206 OA
HETATM   11  O   UNL     1     -42.764 -44.289  12.771  1.00  0.00    -0.206 OA
BRANCH   9  12
HETATM   12  N   UNL     1     -42.032 -42.207  11.521  1.00  0.00    -0.309 N 
HETATM   13  C   UNL     1     -40.724 -41.678  12.000  1.00  0.00     0.145 C 
HETATM   14  C   UNL     1     -40.673 -41.347  13.492  1.00  0.00     0.094 C 
HETATM   15  S   UNL     1     -41.973 -40.186  14.008  1.00  0.00    -0.166 SA
HETATM   16  C   UNL     1     -43.381 -41.128  13.344  1.00  0.00     0.094 C 
HETATM   17  C   UNL     1     -43.208 -41.358  11.847  1.00  0.00     0.145 C 
ENDBRANCH   9  12
ENDBRANCH   8   9
ENDBRANCH   7   8
ENDBRANCH   3   7
BRANCH   4  18
HETATM   18  C   UNL     1     -43.922 -47.492   8.779  1.00  0.00     0.108 A 
HETATM   19  C   UNL     1     -45.033 -47.384   9.614  1.00  0.00     0.049 A 
HETATM   20  C   UNL     1     -46.243 -47.940   9.210  1.00  0.00     0.005 A 
HETATM   21  C   UNL     1     -46.315 -48.585   7.983  1.00  0.00     0.017 A 
HETATM   22  C   UNL     1     -45.170 -48.636   7.210  1.00  0.00     0.089 A 
HETATM   23  N   UNL     1     -43.989 -48.104   7.586  1.00  0.00    -0.352 N 
ATOM     24  HN  UNL     1     -43.170 -48.164   6.981  1.00  0.00     0.166 HD
ENDBRANCH   4  18
TORSDOF 5
ENDMDL
MODEL 2
REMARK VINA RESULT:      -5.8      4.941      7.338
REMARK  5 active torsions:
REMARK  status: ('A' for Active; 'I' for Inactive)
REMARK       I    between atoms: C_2  and  N_3 
REMARK       I    between atoms: C_2  and  N_15 
REMARK    1  A    between atoms: N_3  and  C_4 
REMARK    2  A    between atoms: C_4  and  C_5 
REMARK    3  A    between atoms: C_5  and  S_6 
REMARK    4  A    between atoms: S_6  and  N_9 
REMARK    5  A    between atoms: N_15  and  C_16 
ROOT
HETATM    1  O   UNL     1     -40.725 -45.778  10.550  1.00  0.00    -0.247 OA
HETATM    2  C   UNL     1     -40.606 -46.969  10.812  1.00  0.00     0.321 C 
HETATM    3  N   UNL     1     -39.504 -47.339  11.536  1.00  0.00    -0.342 N 
HETATM    4  N   UNL     1     -41.457 -47.984  10.484  1.00  0.00    -0.295 N 
HETATM    5  H   UNL     1     -38.874 -46.541  11.620  1.00  0.00     0.164 HD
HETATM    6  H   UNL     1     -41.210 -48.912  10.762  1.00  0.00     0.172 HD
ENDROOT
BRANCH   3   7
HETATM    7  C   UNL     1     -38.967 -48.667  11.783  1.00  0.00     0.141 C 
BRANCH   7   8
HETATM    8  C   UNL     1     -39.002 -49.062  13.247  1.00  0.00     0.183 C 
BRANCH   8   9
HETATM    9  S   UNL     1     -38.250 -50.652  13.522  1.00  0.00     0.230 S 
HETATM   10  O   UNL     1     -37.950 -51.225  12.229  1.00  0.00    -0.206 OA
HETATM   11  O   UNL     1     -37.237 -50.519  14.543  1.00  0.00    -0.206 OA
BRANCH   9  12
HETATM   12  N   UNL     1     -39.543 -51.511  14.187  1.00  0.00    -0.309 N 
HETATM   13  C   UNL     1     -39.276 -52.828  14.831  1.00  0.00     0.145 C 
HETATM   14  C   UNL     1     -39.435 -54.037  13.909  1.00  0.00     0.094 C 
HETATM   15  S   UNL     1     -41.069 -54.119  13.118  1.00  0.00    -0.166 SA
HETATM   16  C   UNL     1     -41.051 -52.443  12.408  1.00  0.00     0.094 C 
HETATM   17  C   UNL     1     -40.860 -51.403  13.506  1.00  0.00     0.145 C 
ENDBRANCH   9  12
ENDBRANCH   8   9
ENDBRANCH   7   8
ENDBRANCH   3   7
BRANCH   4  18
HETATM   18  C   UNL     1     -42.655 -47.857   9.775  1.00  0.00     0.108 A 
HETATM   19  C   UNL     1     -43.799 -47.573  10.519  1.00  0.00     0.049 A 
HETATM   20  C   UNL     1     -45.024 -47.461   9.868  1.00  0.00     0.005 A 
HETATM   21  C   UNL     1     -45.076 -47.633   8.492  1.00  0.00     0.017 A 
HETATM   22  C   UNL     1     -43.893 -47.900   7.827  1.00  0.00     0.089 A 
HETATM   23  N   UNL     1     -42.697 -48.011   8.442  1.00  0.00    -0.352 N 
ATOM     24  HN  UNL     1     -41.850 -48.207   7.909  1.00  0.00     0.166 HD
ENDBRANCH   4  18
TORSDOF 5
ENDMDL
MODEL 3
REMARK VINA RESULT:      -5.7      6.574      7.290
REMARK  5 active torsions:
REMARK  status: ('A' for Active; 'I' for Inactive)
REMARK       I    between atoms: C_2  and  N_3 
REMARK       I    between atoms: C_2  and  N_15 
REMARK    1  A    between atoms: N_3  and  C_4 
REMARK    2  A    between atoms: C_4  and  C_5 
REMARK    3  A    between atoms: C_5  and  S_6 
REMARK    4  A    between atoms: S_6  and  N_9 
REMARK    5  A    between atoms: N_15  and  C_16 
ROOT
HETATM    1  O   UNL     1     -41.898 -53.233  12.371  1.00  0.00    -0.247 OA
HETATM    2  C   UNL     1     -41.931 -52.025  12.165  1.00  0.00     0.321 C 
HETATM    3  N   UNL     1     -40.829 -51.466  11.573  1.00  0.00    -0.342 N 
HETATM    4  N   UNL     1     -42.948 -51.159  12.439  1.00  0.00    -0.295 N 
HETATM    5  H   UNL     1     -40.083 -52.161  11.526  1.00  0.00     0.164 HD
HETATM    6  H   UNL     1     -42.814 -50.193  12.221  1.00  0.00     0.172 HD
ENDROOT
BRANCH   3   7
HETATM    7  C   UNL     1     -40.472 -50.064  11.430  1.00  0.00     0.141 C 
BRANCH   7   8
HETATM    8  C   UNL     1     -39.102 -49.736  11.992  1.00  0.00     0.183 C 
BRANCH   8   9
HETATM    9  S   UNL     1     -38.789 -50.599  13.517  1.00  0.00     0.230 S 
HETATM   10  O   UNL     1     -39.953 -50.440  14.358  1.00  0.00    -0.206 OA
HETATM   11  O   UNL     1     -38.248 -51.904  13.214  1.00  0.00    -0.206 OA
BRANCH   9  12
HETATM   12  N   UNL     1     -37.543 -49.662  14.168  1.00  0.00    -0.309 N 
HETATM   13  C   UNL     1     -36.904 -50.100  15.442  1.00  0.00     0.145 C 
HETATM   14  C   UNL     1     -37.514 -49.494  16.706  1.00  0.00     0.094 C 
HETATM   15  S   UNL     1     -37.538 -47.676  16.683  1.00  0.00    -0.166 SA
HETATM   16  C   UNL     1     -38.400 -47.490  15.092  1.00  0.00     0.094 C 
HETATM   17  C   UNL     1     -37.624 -48.190  13.982  1.00  0.00     0.145 C 
ENDBRANCH   9  12
ENDBRANCH   8   9
ENDBRANCH   7   8
ENDBRANCH   3   7
BRANCH   4  18
HETATM   18  C   UNL     1     -44.178 -51.491  13.016  1.00  0.00     0.108 A 
HETATM   19  C   UNL     1     -44.511 -50.841  14.204  1.00  0.00     0.049 A 
HETATM   20  C   UNL     1     -45.712 -51.152  14.835  1.00  0.00     0.005 A 
HETATM   21  C   UNL     1     -46.551 -52.098  14.264  1.00  0.00     0.017 A 
HETATM   22  C   UNL     1     -46.152 -52.686  13.078  1.00  0.00     0.089 A 
HETATM   23  N   UNL     1     -44.992 -52.398  12.452  1.00  0.00    -0.352 N 
ATOM     24  HN  UNL     1     -44.741 -52.856  11.577  1.00  0.00     0.166 HD
ENDBRANCH   4  18
TORSDOF 5
ENDMDL
MODEL 4
REMARK VINA RESULT:      -5.7      7.886     10.061
REMARK  5 active torsions:
REMARK  status: ('A' for Active; 'I' for Inactive)
REMARK       I    between atoms: C_2  and  N_3 
REMARK       I    between atoms: C_2  and  N_15 
REMARK    1  A    between atoms: N_3  and  C_4 
REMARK    2  A    between atoms: C_4  and  C_5 
REMARK    3  A    between atoms: C_5  and  S_6 
REMARK    4  A    between atoms: S_6  and  N_9 
REMARK    5  A    between atoms: N_15  and  C_16 
ROOT
HETATM    1  O   UNL     1     -40.089 -54.147  12.927  1.00  0.00    -0.247 OA
HETATM    2  C   UNL     1     -41.032 -53.381  12.764  1.00  0.00     0.321 C 
HETATM    3  N   UNL     1     -42.285 -53.933  12.746  1.00  0.00    -0.342 N 
HETATM    4  N   UNL     1     -40.988 -52.026  12.614  1.00  0.00    -0.295 N 
HETATM    5  H   UNL     1     -42.205 -54.950  12.737  1.00  0.00     0.164 HD
HETATM    6  H   UNL     1     -41.851 -51.541  12.475  1.00  0.00     0.172 HD
ENDROOT
BRANCH   3   7
HETATM    7  C   UNL     1     -43.547 -53.340  12.334  1.00  0.00     0.141 C 
BRANCH   7   8
HETATM    8  C   UNL     1     -44.737 -53.871  13.109  1.00  0.00     0.183 C 
BRANCH   8   9
HETATM    9  S   UNL     1     -44.361 -54.084  14.837  1.00  0.00     0.230 S 
HETATM   10  O   UNL     1     -43.963 -55.460  15.032  1.00  0.00    -0.206 OA
HETATM   11  O   UNL     1     -43.529 -52.987  15.273  1.00  0.00    -0.206 OA
BRANCH   9  12
HETATM   12  N   UNL     1     -45.889 -53.879  15.527  1.00  0.00    -0.309 N 
HETATM   13  C   UNL     1     -46.918 -53.102  14.779  1.00  0.00     0.145 C 
HETATM   14  C   UNL     1     -46.974 -51.614  15.125  1.00  0.00     0.094 C 
HETATM   15  S   UNL     1     -47.215 -51.304  16.900  1.00  0.00    -0.166 SA
HETATM   16  C   UNL     1     -45.819 -52.311  17.488  1.00  0.00     0.094 C 
HETATM   17  C   UNL     1     -45.961 -53.751  17.006  1.00  0.00     0.145 C 
ENDBRANCH   9  12
ENDBRANCH   8   9
ENDBRANCH   7   8
ENDBRANCH   3   7
BRANCH   4  18
HETATM   18  C   UNL     1     -39.837 -51.233  12.624  1.00  0.00     0.108 A 
HETATM   19  C   UNL     1     -39.812 -50.150  11.746  1.00  0.00     0.049 A 
HETATM   20  C   UNL     1     -38.680 -49.342  11.694  1.00  0.00     0.005 A 
HETATM   21  C   UNL     1     -37.604 -49.632  12.521  1.00  0.00     0.017 A 
HETATM   22  C   UNL     1     -37.715 -50.716  13.372  1.00  0.00     0.089 A 
HETATM   23  N   UNL     1     -38.804 -51.510  13.435  1.00  0.00    -0.352 N 
ATOM     24  HN  UNL     1     -38.841 -52.299  14.081  1.00  0.00     0.166 HD
ENDBRANCH   4  18
TORSDOF 5
ENDMDL
MODEL 5
REMARK VINA RESULT:      -5.6      6.261      7.628
REMARK  5 active torsions:
REMARK  status: ('A' for Active; 'I' for Inactive)
REMARK       I    between atoms: C_2  and  N_3 
REMARK       I    between atoms: C_2  and  N_15 
REMARK    1  A    between atoms: N_3  and  C_4 
REMARK    2  A    between atoms: C_4  and  C_5 
REMARK    3  A    between atoms: C_5  and  S_6 
REMARK    4  A    between atoms: S_6  and  N_9 
REMARK    5  A    between atoms: N_15  and  C_16 
ROOT
HETATM    1  O   UNL     1     -43.338 -49.648  13.014  1.00  0.00    -0.247 OA
HETATM    2  C   UNL     1     -42.428 -50.268  12.475  1.00  0.00     0.321 C 
HETATM    3  N   UNL     1     -41.376 -49.534  11.995  1.00  0.00    -0.342 N 
HETATM    4  N   UNL     1     -42.323 -51.617  12.308  1.00  0.00    -0.295 N 
HETATM    5  H   UNL     1     -41.605 -48.541  12.052  1.00  0.00     0.164 HD
HETATM    6  H   UNL     1     -41.518 -51.970  11.831  1.00  0.00     0.172 HD
ENDROOT
BRANCH   3   7
HETATM    7  C   UNL     1     -40.297 -49.940  11.110  1.00  0.00     0.141 C 
BRANCH   7   8
HETATM    8  C   UNL     1     -38.920 -49.633  11.666  1.00  0.00     0.183 C 
BRANCH   8   9
HETATM    9  S   UNL     1     -38.419 -50.827  12.888  1.00  0.00     0.230 S 
HETATM   10  O   UNL     1     -39.393 -51.895  12.883  1.00  0.00    -0.206 OA
HETATM   11  O   UNL     1     -37.007 -51.090  12.733  1.00  0.00    -0.206 OA
BRANCH   9  12
HETATM   12  N   UNL     1     -38.624 -49.939  14.310  1.00  0.00    -0.309 N 
HETATM   13  C   UNL     1     -38.642 -48.450  14.232  1.00  0.00     0.145 C 
HETATM   14  C   UNL     1     -37.286 -47.780  14.452  1.00  0.00     0.094 C 
HETATM   15  S   UNL     1     -36.506 -48.251  16.025  1.00  0.00    -0.166 SA
HETATM   16  C   UNL     1     -36.589 -50.052  15.777  1.00  0.00     0.094 C 
HETATM   17  C   UNL     1     -38.032 -50.492  15.556  1.00  0.00     0.145 C 
ENDBRANCH   9  12
ENDBRANCH   8   9
ENDBRANCH   7   8
ENDBRANCH   3   7
BRANCH   4  18
HETATM   18  C   UNL     1     -43.250 -52.574  12.732  1.00  0.00     0.108 A 
HETATM   19  C   UNL     1     -42.758 -53.626  13.503  1.00  0.00     0.049 A 
HETATM   20  C   UNL     1     -43.631 -54.622  13.932  1.00  0.00     0.005 A 
HETATM   21  C   UNL     1     -44.972 -54.541  13.583  1.00  0.00     0.017 A 
HETATM   22  C   UNL     1     -45.380 -53.457  12.826  1.00  0.00     0.089 A 
HETATM   23  N   UNL     1     -44.548 -52.484  12.403  1.00  0.00    -0.352 N 
ATOM     24  HN  UNL     1     -44.895 -51.702  11.848  1.00  0.00     0.166 HD
ENDBRANCH   4  18
TORSDOF 5
ENDMDL
MODEL 6
REMARK VINA RESULT:      -5.6      3.824      4.758
REMARK  5 active torsions:
REMARK  status: ('A' for Active; 'I' for Inactive)
REMARK       I    between atoms: C_2  and  N_3 
REMARK       I    between atoms: C_2  and  N_15 
REMARK    1  A    between atoms: N_3  and  C_4 
REMARK    2  A    between atoms: C_4  and  C_5 
REMARK    3  A    between atoms: C_5  and  S_6 
REMARK    4  A    between atoms: S_6  and  N_9 
REMARK    5  A    between atoms: N_15  and  C_16 
ROOT
HETATM    1  O   UNL     1     -39.617 -49.745  11.752  1.00  0.00    -0.247 OA
HETATM    2  C   UNL     1     -40.766 -49.626  11.342  1.00  0.00     0.321 C 
HETATM    3  N   UNL     1     -41.052 -48.502  10.614  1.00  0.00    -0.342 N 
HETATM    4  N   UNL     1     -41.804 -50.494  11.508  1.00  0.00    -0.295 N 
HETATM    5  H   UNL     1     -40.257 -47.863  10.654  1.00  0.00     0.164 HD
HETATM    6  H   UNL     1     -42.691 -50.245  11.121  1.00  0.00     0.172 HD
ENDROOT
BRANCH   3   7
HETATM    7  C   UNL     1     -42.343 -47.967  10.215  1.00  0.00     0.141 C 
BRANCH   7   8
HETATM    8  C   UNL     1     -42.809 -46.817  11.087  1.00  0.00     0.183 C 
BRANCH   8   9
HETATM    9  S   UNL     1     -42.403 -45.237  10.373  1.00  0.00     0.230 S 
HETATM   10  O   UNL     1     -41.025 -45.293   9.942  1.00  0.00    -0.206 OA
HETATM   11  O   UNL     1     -43.462 -44.845   9.473  1.00  0.00    -0.206 OA
BRANCH   9  12
HETATM   12  N   UNL     1     -42.485 -44.239  11.733  1.00  0.00    -0.309 N 
HETATM   13  C   UNL     1     -42.326 -42.767  11.555  1.00  0.00     0.145 C 
HETATM   14  C   UNL     1     -40.897 -42.251  11.725  1.00  0.00     0.094 C 
HETATM   15  S   UNL     1     -40.162 -42.706  13.324  1.00  0.00    -0.166 SA
HETATM   16  C   UNL     1     -40.461 -44.497  13.198  1.00  0.00     0.094 C 
HETATM   17  C   UNL     1     -41.949 -44.775  13.011  1.00  0.00     0.145 C 
ENDBRANCH   9  12
ENDBRANCH   8   9
ENDBRANCH   7   8
ENDBRANCH   3   7
BRANCH   4  18
HETATM   18  C   UNL     1     -41.756 -51.716  12.187  1.00  0.00     0.108 A 
HETATM   19  C   UNL     1     -42.789 -51.976  13.086  1.00  0.00     0.049 A 
HETATM   20  C   UNL     1     -42.778 -53.165  13.809  1.00  0.00     0.005 A 
HETATM   21  C   UNL     1     -41.740 -54.065  13.615  1.00  0.00     0.017 A 
HETATM   22  C   UNL     1     -40.761 -53.735  12.695  1.00  0.00     0.089 A 
HETATM   23  N   UNL     1     -40.755 -52.588  11.986  1.00  0.00    -0.352 N 
ATOM     24  HN  UNL     1     -40.013 -52.389  11.316  1.00  0.00     0.166 HD
ENDBRANCH   4  18
TORSDOF 5
ENDMDL
MODEL 7
REMARK VINA RESULT:      -5.6      5.652      8.357
REMARK  5 active torsions:
REMARK  status: ('A' for Active; 'I' for Inactive)
REMARK       I    between atoms: C_2  and  N_3 
REMARK       I    between atoms: C_2  and  N_15 
REMARK    1  A    between atoms: N_3  and  C_4 
REMARK    2  A    between atoms: C_4  and  C_5 
REMARK    3  A    between atoms: C_5  and  S_6 
REMARK    4  A    between atoms: S_6  and  N_9 
REMARK    5  A    between atoms: N_15  and  C_16 
ROOT
HETATM    1  O   UNL     1     -39.118 -49.293  11.630  1.00  0.00    -0.247 OA
HETATM    2  C   UNL     1     -40.138 -49.970  11.557  1.00  0.00     0.321 C 
HETATM    3  N   UNL     1     -40.031 -51.293  11.895  1.00  0.00    -0.342 N 
HETATM    4  N   UNL     1     -41.386 -49.559  11.193  1.00  0.00    -0.295 N 
HETATM    5  H   UNL     1     -39.047 -51.528  12.027  1.00  0.00     0.164 HD
HETATM    6  H   UNL     1     -42.117 -50.241  11.170  1.00  0.00     0.172 HD
ENDROOT
BRANCH   3   7
HETATM    7  C   UNL     1     -40.974 -52.378  11.678  1.00  0.00     0.141 C 
BRANCH   7   8
HETATM    8  C   UNL     1     -41.215 -53.216  12.918  1.00  0.00     0.183 C 
BRANCH   8   9
HETATM    9  S   UNL     1     -42.288 -52.392  14.076  1.00  0.00     0.230 S 
HETATM   10  O   UNL     1     -41.595 -52.323  15.343  1.00  0.00    -0.206 OA
HETATM   11  O   UNL     1     -42.835 -51.212  13.448  1.00  0.00    -0.206 OA
BRANCH   9  12
HETATM   12  N   UNL     1     -43.534 -53.523  14.223  1.00  0.00    -0.309 N 
HETATM   13  C   UNL     1     -44.408 -53.787  13.045  1.00  0.00     0.145 C 
HETATM   14  C   UNL     1     -45.683 -52.945  12.991  1.00  0.00     0.094 C 
HETATM   15  S   UNL     1     -46.699 -53.097  14.490  1.00  0.00    -0.166 SA
HETATM   16  C   UNL     1     -45.392 -52.672  15.683  1.00  0.00     0.094 C 
HETATM   17  C   UNL     1     -44.213 -53.627  15.541  1.00  0.00     0.145 C 
ENDBRANCH   9  12
ENDBRANCH   8   9
ENDBRANCH   7   8
ENDBRANCH   3   7
BRANCH   4  18
HETATM   18  C   UNL     1     -41.752 -48.259  10.831  1.00  0.00     0.108 A 
HETATM   19  C   UNL     1     -43.117 -48.005  10.696  1.00  0.00     0.049 A 
HETATM   20  C   UNL     1     -43.537 -46.735  10.312  1.00  0.00     0.005 A 
HETATM   21  C   UNL     1     -42.587 -45.751  10.075  1.00  0.00     0.017 A 
HETATM   22  C   UNL     1     -41.256 -46.082  10.245  1.00  0.00     0.089 A 
HETATM   23  N   UNL     1     -40.830 -47.307  10.616  1.00  0.00    -0.352 N 
ATOM     24  HN  UNL     1     -39.836 -47.505  10.731  1.00  0.00     0.166 HD
ENDBRANCH   4  18
TORSDOF 5
ENDMDL
MODEL 8
REMARK VINA RESULT:      -5.5      4.224      6.237
REMARK  5 active torsions:
REMARK  status: ('A' for Active; 'I' for Inactive)
REMARK       I    between atoms: C_2  and  N_3 
REMARK       I    between atoms: C_2  and  N_15 
REMARK    1  A    between atoms: N_3  and  C_4 
REMARK    2  A    between atoms: C_4  and  C_5 
REMARK    3  A    between atoms: C_5  and  S_6 
REMARK    4  A    between atoms: S_6  and  N_9 
REMARK    5  A    between atoms: N_15  and  C_16 
ROOT
HETATM    1  O   UNL     1     -40.188 -46.162  11.417  1.00  0.00    -0.247 OA
HETATM    2  C   UNL     1     -40.243 -47.362  11.174  1.00  0.00     0.321 C 
HETATM    3  N   UNL     1     -39.204 -48.135  11.621  1.00  0.00    -0.342 N 
HETATM    4  N   UNL     1     -41.233 -48.036  10.521  1.00  0.00    -0.295 N 
HETATM    5  H   UNL     1     -38.465 -47.529  11.979  1.00  0.00     0.164 HD
HETATM    6  H   UNL     1     -41.123 -49.021  10.390  1.00  0.00     0.172 HD
ENDROOT
BRANCH   3   7
HETATM    7  C   UNL     1     -38.866 -49.508  11.285  1.00  0.00     0.141 C 
BRANCH   7   8
HETATM    8  C   UNL     1     -38.872 -50.435  12.485  1.00  0.00     0.183 C 
BRANCH   8   9
HETATM    9  S   UNL     1     -40.407 -51.326  12.624  1.00  0.00     0.230 S 
HETATM   10  O   UNL     1     -41.366 -50.687  11.753  1.00  0.00    -0.206 OA
HETATM   11  O   UNL     1     -40.135 -52.743  12.539  1.00  0.00    -0.206 OA
BRANCH   9  12
HETATM   12  N   UNL     1     -40.838 -50.979  14.220  1.00  0.00    -0.309 N 
HETATM   13  C   UNL     1     -42.125 -51.513  14.750  1.00  0.00     0.145 C 
HETATM   14  C   UNL     1     -43.317 -50.563  14.616  1.00  0.00     0.094 C 
HETATM   15  S   UNL     1     -43.022 -48.941  15.381  1.00  0.00    -0.166 SA
HETATM   16  C   UNL     1     -41.472 -48.566  14.506  1.00  0.00     0.094 C 
HETATM   17  C   UNL     1     -40.438 -49.655  14.766  1.00  0.00     0.145 C 
ENDBRANCH   9  12
ENDBRANCH   8   9
ENDBRANCH   7   8
ENDBRANCH   3   7
BRANCH   4  18
HETATM   18  C   UNL     1     -42.402 -47.477   9.996  1.00  0.00     0.108 A 
HETATM   19  C   UNL     1     -43.610 -47.977  10.481  1.00  0.00     0.049 A 
HETATM   20  C   UNL     1     -44.805 -47.475   9.974  1.00  0.00     0.005 A 
HETATM   21  C   UNL     1     -44.765 -46.487   9.001  1.00  0.00     0.017 A 
HETATM   22  C   UNL     1     -43.526 -46.037   8.585  1.00  0.00     0.089 A 
HETATM   23  N   UNL     1     -42.358 -46.512   9.064  1.00  0.00    -0.352 N 
ATOM     24  HN  UNL     1     -41.466 -46.148   8.729  1.00  0.00     0.166 HD
ENDBRANCH   4  18
TORSDOF 5
ENDMDL
MODEL 9
REMARK VINA RESULT:      -5.5      5.016      8.359
REMARK  5 active torsions:
REMARK  status: ('A' for Active; 'I' for Inactive)
REMARK       I    between atoms: C_2  and  N_3 
REMARK       I    between atoms: C_2  and  N_15 
REMARK    1  A    between atoms: N_3  and  C_4 
REMARK    2  A    between atoms: C_4  and  C_5 
REMARK    3  A    between atoms: C_5  and  S_6 
REMARK    4  A    between atoms: S_6  and  N_9 
REMARK    5  A    between atoms: N_15  and  C_16 
ROOT
HETATM    1  O   UNL     1     -42.052 -48.298  10.184  1.00  0.00    -0.247 OA
HETATM    2  C   UNL     1     -41.151 -48.738  10.888  1.00  0.00     0.321 C 
HETATM    3  N   UNL     1     -41.120 -50.094  11.082  1.00  0.00    -0.342 N 
HETATM    4  N   UNL     1     -40.151 -48.039  11.496  1.00  0.00    -0.295 N 
HETATM    5  H   UNL     1     -41.970 -50.508  10.699  1.00  0.00     0.164 HD
HETATM    6  H   UNL     1     -39.495 -48.546  12.054  1.00  0.00     0.172 HD
ENDROOT
BRANCH   3   7
HETATM    7  C   UNL     1     -40.349 -50.870  12.039  1.00  0.00     0.141 C 
BRANCH   7   8
HETATM    8  C   UNL     1     -41.049 -51.041  13.373  1.00  0.00     0.183 C 
BRANCH   8   9
HETATM    9  S   UNL     1     -41.859 -52.621  13.499  1.00  0.00     0.230 S 
HETATM   10  O   UNL     1     -41.174 -53.536  12.614  1.00  0.00    -0.206 OA
HETATM   11  O   UNL     1     -42.066 -52.931  14.894  1.00  0.00    -0.206 OA
BRANCH   9  12
HETATM   12  N   UNL     1     -43.365 -52.267  12.820  1.00  0.00    -0.309 N 
HETATM   13  C   UNL     1     -44.105 -51.065  13.299  1.00  0.00     0.145 C 
HETATM   14  C   UNL     1     -45.097 -51.333  14.432  1.00  0.00     0.094 C 
HETATM   15  S   UNL     1     -46.315 -52.618  14.022  1.00  0.00    -0.166 SA
HETATM   16  C   UNL     1     -45.121 -53.907  13.550  1.00  0.00     0.094 C 
HETATM   17  C   UNL     1     -44.223 -53.413  12.421  1.00  0.00     0.145 C 
ENDBRANCH   9  12
ENDBRANCH   8   9
ENDBRANCH   7   8
ENDBRANCH   3   7
BRANCH   4  18
HETATM   18  C   UNL     1     -39.954 -46.656  11.428  1.00  0.00     0.108 A 
HETATM   19  C   UNL     1     -39.800 -45.983  12.639  1.00  0.00     0.049 A 
HETATM   20  C   UNL     1     -39.627 -44.602  12.632  1.00  0.00     0.005 A 
HETATM   21  C   UNL     1     -39.608 -43.929  11.418  1.00  0.00     0.017 A 
HETATM   22  C   UNL     1     -39.755 -44.674  10.262  1.00  0.00     0.089 A 
HETATM   23  N   UNL     1     -39.924 -46.012  10.250  1.00  0.00    -0.352 N 
ATOM     24  HN  UNL     1     -40.026 -46.520   9.372  1.00  0.00     0.166 HD
ENDBRANCH   4  18
TORSDOF 5
ENDMDL
