MODEL 1
REMARK VINA RESULT:      -6.0      0.000      0.000
REMARK  6 active torsions:
REMARK  status: ('A' for Active; 'I' for Inactive)
REMARK    1  A    between atoms: N_5  and  C_13 
REMARK    2  A    between atoms: C_13  and  O_18 
REMARK    3  A    between atoms: C_14  and  O_17 
REMARK    4  A    between atoms: O_17  and  C_20 
REMARK    5  A    between atoms: O_18  and  C_21 
REMARK    6  A    between atoms: C_20  and  C_21 
ROOT
HETATM    1  C   UNL     1     -42.560 -47.242  10.041  1.00  0.00     0.158 A 
HETATM    2  C   UNL     1     -42.580 -45.865  10.060  1.00  0.00     0.147 A 
HETATM    3  N   UNL     1     -43.477 -48.087   9.508  1.00  0.00    -0.174 N 
ATOM      4  HN  UNL     1     -43.390 -49.103   9.540  1.00  0.00     0.186 HD
HETATM    5  N   UNL     1     -41.389 -47.583  10.663  1.00  0.00    -0.305 N 
HETATM    6  N   UNL     1     -44.627 -46.096   8.927  1.00  0.00    -0.154 N 
HETATM    7  N   UNL     1     -41.461 -45.351  10.662  1.00  0.00    -0.345 N 
ATOM      8  HN  UNL     1     -41.224 -44.370  10.810  1.00  0.00     0.167 HD
HETATM    9  C   UNL     1     -43.710 -45.197   9.456  1.00  0.00     0.290 A 
HETATM   10  C   UNL     1     -44.484 -47.470   8.947  1.00  0.00     0.680 A 
HETATM   11  C   UNL     1     -40.761 -46.414  11.009  1.00  0.00     0.187 A 
HETATM   12  O   UNL     1     -43.881 -43.984   9.387  1.00  0.00    -0.265 OA
HETATM   13  N   UNL     1     -45.466 -48.176   8.337  1.00  0.00    -0.234 N 
HETATM   14  H   UNL     1     -45.413 -45.671   8.466  1.00  0.00     0.187 HD
HETATM   15  H   UNL     1     -45.470 -49.165   8.560  1.00  0.00     0.174 HD
HETATM   16  H   UNL     1     -46.382 -47.763   8.228  1.00  0.00     0.174 HD
ENDROOT
BRANCH   5  17
HETATM   17  C   UNL     1     -40.918 -48.937  10.888  1.00  0.00     0.301 C 
BRANCH  17  18
HETATM   18  O   UNL     1     -41.857 -49.644  11.699  1.00  0.00    -0.369 OA
BRANCH  18  19
HETATM   19  C   UNL     1     -41.353 -50.919  12.105  1.00  0.00     0.196 C 
BRANCH  19  20
HETATM   20  C   UNL     1     -40.145 -50.712  13.020  1.00  0.00     0.205 C 
BRANCH  20  21
HETATM   21  O   UNL     1     -39.081 -51.630  12.704  1.00  0.00    -0.320 OA
BRANCH  21  22
HETATM   22  C   UNL     1     -37.841 -51.084  12.622  1.00  0.00     0.254 C 
HETATM   23  O   UNL     1     -36.835 -51.672  12.249  1.00  0.00    -0.266 OA
HETATM   24  C   UNL     1     -37.862 -49.646  13.044  1.00  0.00     0.126 C 
ENDBRANCH  21  22
ENDBRANCH  20  21
ENDBRANCH  19  20
ENDBRANCH  18  19
ENDBRANCH  17  18
ENDBRANCH   5  17
TORSDOF 6
ENDMDL
MODEL 2
REMARK VINA RESULT:      -6.0      4.947      6.668
REMARK  6 active torsions:
REMARK  status: ('A' for Active; 'I' for Inactive)
REMARK    1  A    between atoms: N_5  and  C_13 
REMARK    2  A    between atoms: C_13  and  O_18 
REMARK    3  A    between atoms: C_14  and  O_17 
REMARK    4  A    between atoms: O_17  and  C_20 
REMARK    5  A    between atoms: O_18  and  C_21 
REMARK    6  A    between atoms: C_20  and  C_21 
ROOT
HETATM    1  C   UNL     1     -43.791 -53.462  13.121  1.00  0.00     0.158 A 
HETATM    2  C   UNL     1     -44.319 -54.242  14.128  1.00  0.00     0.147 A 
HETATM    3  N   UNL     1     -44.453 -52.679  12.234  1.00  0.00    -0.174 N 
ATOM      4  HN  UNL     1     -43.985 -52.132  11.511  1.00  0.00     0.186 HD
HETATM    5  N   UNL     1     -42.437 -53.629  13.223  1.00  0.00    -0.305 N 
HETATM    6  N   UNL     1     -46.394 -53.456  13.353  1.00  0.00    -0.154 N 
HETATM    7  N   UNL     1     -43.336 -54.873  14.845  1.00  0.00    -0.345 N 
ATOM      8  HN  UNL     1     -43.447 -55.505  15.638  1.00  0.00     0.167 HD
HETATM    9  C   UNL     1     -45.755 -54.265  14.282  1.00  0.00     0.290 A 
HETATM   10  C   UNL     1     -45.750 -52.694  12.398  1.00  0.00     0.680 A 
HETATM   11  C   UNL     1     -42.213 -54.477  14.278  1.00  0.00     0.187 A 
HETATM   12  O   UNL     1     -46.381 -54.903  15.123  1.00  0.00    -0.265 OA
HETATM   13  N   UNL     1     -46.548 -51.932  11.611  1.00  0.00    -0.234 N 
HETATM   14  H   UNL     1     -47.394 -53.417  13.447  1.00  0.00     0.187 HD
HETATM   15  H   UNL     1     -46.093 -51.569  10.781  1.00  0.00     0.174 HD
HETATM   16  H   UNL     1     -47.516 -52.193  11.483  1.00  0.00     0.174 HD
ENDROOT
BRANCH   5  17
HETATM   17  C   UNL     1     -41.444 -53.003  12.371  1.00  0.00     0.301 C 
BRANCH  17  18
HETATM   18  O   UNL     1     -41.751 -51.616  12.215  1.00  0.00    -0.369 OA
BRANCH  18  19
HETATM   19  C   UNL     1     -40.883 -50.790  12.995  1.00  0.00     0.196 C 
BRANCH  19  20
HETATM   20  C   UNL     1     -39.580 -51.545  13.263  1.00  0.00     0.205 C 
BRANCH  20  21
HETATM   21  O   UNL     1     -38.446 -50.657  13.260  1.00  0.00    -0.320 OA
BRANCH  21  22
HETATM   22  C   UNL     1     -37.525 -50.885  12.289  1.00  0.00     0.254 C 
HETATM   23  O   UNL     1     -36.812 -51.876  12.210  1.00  0.00    -0.266 OA
HETATM   24  C   UNL     1     -37.499 -49.755  11.304  1.00  0.00     0.126 C 
ENDBRANCH  21  22
ENDBRANCH  20  21
ENDBRANCH  19  20
ENDBRANCH  18  19
ENDBRANCH  17  18
ENDBRANCH   5  17
TORSDOF 6
ENDMDL
MODEL 3
REMARK VINA RESULT:      -5.9      5.246      6.880
REMARK  6 active torsions:
REMARK  status: ('A' for Active; 'I' for Inactive)
REMARK    1  A    between atoms: N_5  and  C_13 
REMARK    2  A    between atoms: C_13  and  O_18 
REMARK    3  A    between atoms: C_14  and  O_17 
REMARK    4  A    between atoms: O_17  and  C_20 
REMARK    5  A    between atoms: O_18  and  C_21 
REMARK    6  A    between atoms: C_20  and  C_21 
ROOT
HETATM    1  C   UNL     1     -41.947 -53.914  13.796  1.00  0.00     0.158 A 
HETATM    2  C   UNL     1     -43.303 -54.087  13.625  1.00  0.00     0.147 A 
HETATM    3  N   UNL     1     -41.096 -53.167  13.050  1.00  0.00    -0.174 N 
ATOM      4  HN  UNL     1     -40.097 -53.095  13.241  1.00  0.00     0.186 HD
HETATM    5  N   UNL     1     -41.639 -54.648  14.909  1.00  0.00    -0.305 N 
HETATM    6  N   UNL     1     -43.030 -52.665  11.773  1.00  0.00    -0.154 N 
HETATM    7  N   UNL     1     -43.837 -54.892  14.597  1.00  0.00    -0.345 N 
ATOM      8  HN  UNL     1     -44.809 -55.181  14.707  1.00  0.00     0.167 HD
HETATM    9  C   UNL     1     -43.935 -53.413  12.514  1.00  0.00     0.290 A 
HETATM   10  C   UNL     1     -41.684 -52.548  12.060  1.00  0.00     0.680 A 
HETATM   11  C   UNL     1     -42.808 -55.208  15.359  1.00  0.00     0.187 A 
HETATM   12  O   UNL     1     -45.127 -53.461  12.222  1.00  0.00    -0.265 OA
HETATM   13  N   UNL     1     -40.974 -51.732  11.244  1.00  0.00    -0.234 N 
HETATM   14  H   UNL     1     -43.436 -52.152  11.009  1.00  0.00     0.187 HD
HETATM   15  H   UNL     1     -39.968 -51.838  11.319  1.00  0.00     0.174 HD
HETATM   16  H   UNL     1     -41.311 -51.546  10.310  1.00  0.00     0.174 HD
ENDROOT
BRANCH   5  17
HETATM   17  C   UNL     1     -40.317 -54.780  15.493  1.00  0.00     0.301 C 
BRANCH  17  18
HETATM   18  O   UNL     1     -39.419 -53.869  14.857  1.00  0.00    -0.369 OA
BRANCH  18  19
HETATM   19  C   UNL     1     -38.984 -52.842  15.751  1.00  0.00     0.196 C 
BRANCH  19  20
HETATM   20  C   UNL     1     -38.592 -51.605  14.941  1.00  0.00     0.205 C 
BRANCH  20  21
HETATM   21  O   UNL     1     -38.573 -51.884  13.528  1.00  0.00    -0.320 OA
BRANCH  21  22
HETATM   22  C   UNL     1     -37.645 -51.203  12.808  1.00  0.00     0.254 C 
HETATM   23  O   UNL     1     -36.764 -51.713  12.130  1.00  0.00    -0.266 OA
HETATM   24  C   UNL     1     -37.847 -49.724  12.941  1.00  0.00     0.126 C 
ENDBRANCH  21  22
ENDBRANCH  20  21
ENDBRANCH  19  20
ENDBRANCH  18  19
ENDBRANCH  17  18
ENDBRANCH   5  17
TORSDOF 6
ENDMDL
MODEL 4
REMARK VINA RESULT:      -5.8      2.062      3.276
REMARK  6 active torsions:
REMARK  status: ('A' for Active; 'I' for Inactive)
REMARK    1  A    between atoms: N_5  and  C_13 
REMARK    2  A    between atoms: C_13  and  O_18 
REMARK    3  A    between atoms: C_14  and  O_17 
REMARK    4  A    between atoms: O_17  and  C_20 
REMARK    5  A    between atoms: O_18  and  C_21 
REMARK    6  A    between atoms: C_20  and  C_21 
ROOT
HETATM    1  C   UNL     1     -42.302 -47.319  10.123  1.00  0.00     0.158 A 
HETATM    2  C   UNL     1     -42.614 -45.987  10.291  1.00  0.00     0.147 A 
HETATM    3  N   UNL     1     -42.740 -48.169   9.162  1.00  0.00    -0.174 N 
ATOM      4  HN  UNL     1     -42.462 -49.149   9.110  1.00  0.00     0.186 HD
HETATM    5  N   UNL     1     -41.422 -47.601  11.133  1.00  0.00    -0.305 N 
HETATM    6  N   UNL     1     -43.961 -46.289   8.388  1.00  0.00    -0.154 N 
HETATM    7  N   UNL     1     -41.953 -45.444  11.361  1.00  0.00    -0.345 N 
ATOM      8  HN  UNL     1     -42.002 -44.485  11.706  1.00  0.00     0.167 HD
HETATM    9  C   UNL     1     -43.532 -45.386   9.351  1.00  0.00     0.290 A 
HETATM   10  C   UNL     1     -43.554 -47.607   8.307  1.00  0.00     0.680 A 
HETATM   11  C   UNL     1     -41.238 -46.441  11.843  1.00  0.00     0.187 A 
HETATM   12  O   UNL     1     -43.913 -44.219   9.358  1.00  0.00    -0.265 OA
HETATM   13  N   UNL     1     -44.050 -48.317   7.265  1.00  0.00    -0.234 N 
HETATM   14  H   UNL     1     -44.576 -45.901   7.693  1.00  0.00     0.187 HD
HETATM   15  H   UNL     1     -43.934 -49.320   7.350  1.00  0.00     0.174 HD
HETATM   16  H   UNL     1     -44.915 -48.026   6.832  1.00  0.00     0.174 HD
ENDROOT
BRANCH   5  17
HETATM   17  C   UNL     1     -40.804 -48.890  11.377  1.00  0.00     0.301 C 
BRANCH  17  18
HETATM   18  O   UNL     1     -41.808 -49.846  11.725  1.00  0.00    -0.369 OA
BRANCH  18  19
HETATM   19  C   UNL     1     -41.247 -51.136  11.978  1.00  0.00     0.196 C 
BRANCH  19  20
HETATM   20  C   UNL     1     -42.225 -51.950  12.827  1.00  0.00     0.205 C 
BRANCH  20  21
HETATM   21  O   UNL     1     -42.983 -52.871  12.020  1.00  0.00    -0.320 OA
BRANCH  21  22
HETATM   22  C   UNL     1     -44.065 -53.428  12.624  1.00  0.00     0.254 C 
HETATM   23  O   UNL     1     -45.221 -53.318  12.241  1.00  0.00    -0.266 OA
HETATM   24  C   UNL     1     -43.655 -54.216  13.831  1.00  0.00     0.126 C 
ENDBRANCH  21  22
ENDBRANCH  20  21
ENDBRANCH  19  20
ENDBRANCH  18  19
ENDBRANCH  17  18
ENDBRANCH   5  17
TORSDOF 6
ENDMDL
MODEL 5
REMARK VINA RESULT:      -5.8      2.798      6.613
REMARK  6 active torsions:
REMARK  status: ('A' for Active; 'I' for Inactive)
REMARK    1  A    between atoms: N_5  and  C_13 
REMARK    2  A    between atoms: C_13  and  O_18 
REMARK    3  A    between atoms: C_14  and  O_17 
REMARK    4  A    between atoms: O_17  and  C_20 
REMARK    5  A    between atoms: O_18  and  C_21 
REMARK    6  A    between atoms: C_20  and  C_21 
ROOT
HETATM    1  C   UNL     1     -41.064 -49.295  12.001  1.00  0.00     0.158 A 
HETATM    2  C   UNL     1     -39.711 -49.473  12.193  1.00  0.00     0.147 A 
HETATM    3  N   UNL     1     -42.020 -50.243  11.837  1.00  0.00    -0.174 N 
ATOM      4  HN  UNL     1     -43.006 -50.026  11.695  1.00  0.00     0.186 HD
HETATM    5  N   UNL     1     -41.245 -47.939  12.035  1.00  0.00    -0.305 N 
HETATM    6  N   UNL     1     -40.212 -51.765  12.041  1.00  0.00    -0.154 N 
HETATM    7  N   UNL     1     -39.061 -48.277  12.351  1.00  0.00    -0.345 N 
ATOM      8  HN  UNL     1     -38.065 -48.122  12.507  1.00  0.00     0.167 HD
HETATM    9  C   UNL     1     -39.205 -50.826  12.217  1.00  0.00     0.290 A 
HETATM   10  C   UNL     1     -41.551 -51.462  11.881  1.00  0.00     0.680 A 
HETATM   11  C   UNL     1     -40.016 -47.372  12.257  1.00  0.00     0.187 A 
HETATM   12  O   UNL     1     -38.033 -51.158  12.377  1.00  0.00    -0.265 OA
HETATM   13  N   UNL     1     -42.388 -52.522  11.770  1.00  0.00    -0.234 N 
HETATM   14  H   UNL     1     -39.907 -52.722  12.085  1.00  0.00     0.187 HD
HETATM   15  H   UNL     1     -43.313 -52.290  11.424  1.00  0.00     0.174 HD
HETATM   16  H   UNL     1     -42.027 -53.410  11.449  1.00  0.00     0.174 HD
ENDROOT
BRANCH   5  17
HETATM   17  C   UNL     1     -42.515 -47.255  11.878  1.00  0.00     0.301 C 
BRANCH  17  18
HETATM   18  O   UNL     1     -43.092 -47.598  10.617  1.00  0.00    -0.369 OA
BRANCH  18  19
HETATM   19  C   UNL     1     -43.053 -46.503   9.699  1.00  0.00     0.196 C 
BRANCH  19  20
HETATM   20  C   UNL     1     -44.114 -46.717   8.618  1.00  0.00     0.205 C 
BRANCH  20  21
HETATM   21  O   UNL     1     -44.706 -48.026   8.712  1.00  0.00    -0.320 OA
BRANCH  21  22
HETATM   22  C   UNL     1     -46.028 -48.096   8.406  1.00  0.00     0.254 C 
HETATM   23  O   UNL     1     -46.529 -48.888   7.620  1.00  0.00    -0.266 OA
HETATM   24  C   UNL     1     -46.808 -47.071   9.173  1.00  0.00     0.126 C 
ENDBRANCH  21  22
ENDBRANCH  20  21
ENDBRANCH  19  20
ENDBRANCH  18  19
ENDBRANCH  17  18
ENDBRANCH   5  17
TORSDOF 6
ENDMDL
MODEL 6
REMARK VINA RESULT:      -5.8      2.634      4.066
REMARK  6 active torsions:
REMARK  status: ('A' for Active; 'I' for Inactive)
REMARK    1  A    between atoms: N_5  and  C_13 
REMARK    2  A    between atoms: C_13  and  O_18 
REMARK    3  A    between atoms: C_14  and  O_17 
REMARK    4  A    between atoms: O_17  and  C_20 
REMARK    5  A    between atoms: O_18  and  C_21 
REMARK    6  A    between atoms: C_20  and  C_21 
ROOT
HETATM    1  C   UNL     1     -42.462 -47.353  10.405  1.00  0.00     0.158 A 
HETATM    2  C   UNL     1     -42.994 -46.083  10.461  1.00  0.00     0.147 A 
HETATM    3  N   UNL     1     -42.451 -48.212   9.356  1.00  0.00    -0.174 N 
ATOM      4  HN  UNL     1     -42.037 -49.144   9.398  1.00  0.00     0.186 HD
HETATM    5  N   UNL     1     -41.917 -47.559  11.644  1.00  0.00    -0.305 N 
HETATM    6  N   UNL     1     -43.614 -46.480   8.229  1.00  0.00    -0.154 N 
HETATM    7  N   UNL     1     -42.787 -45.502  11.685  1.00  0.00    -0.345 N 
ATOM      8  HN  UNL     1     -43.076 -44.574  11.995  1.00  0.00     0.167 HD
HETATM    9  C   UNL     1     -43.642 -45.569   9.277  1.00  0.00     0.290 A 
HETATM   10  C   UNL     1     -43.023 -47.727   8.285  1.00  0.00     0.680 A 
HETATM   11  C   UNL     1     -42.130 -46.416  12.373  1.00  0.00     0.187 A 
HETATM   12  O   UNL     1     -44.164 -44.465   9.159  1.00  0.00    -0.265 OA
HETATM   13  N   UNL     1     -43.059 -48.452   7.141  1.00  0.00    -0.234 N 
HETATM   14  H   UNL     1     -44.025 -46.148   7.373  1.00  0.00     0.187 HD
HETATM   15  H   UNL     1     -42.837 -49.434   7.261  1.00  0.00     0.174 HD
HETATM   16  H   UNL     1     -43.775 -48.261   6.454  1.00  0.00     0.174 HD
ENDROOT
BRANCH   5  17
HETATM   17  C   UNL     1     -41.234 -48.764  12.075  1.00  0.00     0.301 C 
BRANCH  17  18
HETATM   18  O   UNL     1     -42.036 -49.906  11.768  1.00  0.00    -0.369 OA
BRANCH  18  19
HETATM   19  C   UNL     1     -42.454 -50.594  12.950  1.00  0.00     0.196 C 
BRANCH  19  20
HETATM   20  C   UNL     1     -43.896 -50.202  13.275  1.00  0.00     0.205 C 
BRANCH  20  21
HETATM   21  O   UNL     1     -44.597 -51.271  13.937  1.00  0.00    -0.320 OA
BRANCH  21  22
HETATM   22  C   UNL     1     -45.908 -51.405  13.610  1.00  0.00     0.254 C 
HETATM   23  O   UNL     1     -46.344 -51.500  12.471  1.00  0.00    -0.266 OA
HETATM   24  C   UNL     1     -46.764 -51.434  14.839  1.00  0.00     0.126 C 
ENDBRANCH  21  22
ENDBRANCH  20  21
ENDBRANCH  19  20
ENDBRANCH  18  19
ENDBRANCH  17  18
ENDBRANCH   5  17
TORSDOF 6
ENDMDL
MODEL 7
REMARK VINA RESULT:      -5.6      1.284      2.058
REMARK  6 active torsions:
REMARK  status: ('A' for Active; 'I' for Inactive)
REMARK    1  A    between atoms: N_5  and  C_13 
REMARK    2  A    between atoms: C_13  and  O_18 
REMARK    3  A    between atoms: C_14  and  O_17 
REMARK    4  A    between atoms: O_17  and  C_20 
REMARK    5  A    between atoms: O_18  and  C_21 
REMARK    6  A    between atoms: C_20  and  C_21 
ROOT
HETATM    1  C   UNL     1     -42.759 -47.303  10.254  1.00  0.00     0.158 A 
HETATM    2  C   UNL     1     -42.665 -45.943  10.050  1.00  0.00     0.147 A 
HETATM    3  N   UNL     1     -43.812 -48.119  10.000  1.00  0.00    -0.174 N 
ATOM      4  HN  UNL     1     -43.802 -49.122  10.186  1.00  0.00     0.186 HD
HETATM    5  N   UNL     1     -41.537 -47.666  10.753  1.00  0.00    -0.305 N 
HETATM    6  N   UNL     1     -44.874 -46.129   9.269  1.00  0.00    -0.154 N 
HETATM    7  N   UNL     1     -41.429 -45.464  10.397  1.00  0.00    -0.345 N 
ATOM      8  HN  UNL     1     -41.094 -44.502  10.347  1.00  0.00     0.167 HD
HETATM    9  C   UNL     1     -43.818 -45.261   9.509  1.00  0.00     0.290 A 
HETATM   10  C   UNL     1     -44.840 -47.492   9.493  1.00  0.00     0.680 A 
HETATM   11  C   UNL     1     -40.771 -46.529  10.812  1.00  0.00     0.187 A 
HETATM   12  O   UNL     1     -43.900 -44.060   9.268  1.00  0.00    -0.265 OA
HETATM   13  N   UNL     1     -45.959 -48.177   9.151  1.00  0.00    -0.234 N 
HETATM   14  H   UNL     1     -45.686 -45.699   8.860  1.00  0.00     0.187 HD
HETATM   15  H   UNL     1     -46.007 -49.115   9.531  1.00  0.00     0.174 HD
HETATM   16  H   UNL     1     -46.844 -47.692   9.105  1.00  0.00     0.174 HD
ENDROOT
BRANCH   5  17
HETATM   17  C   UNL     1     -41.146 -49.012  11.128  1.00  0.00     0.301 C 
BRANCH  17  18
HETATM   18  O   UNL     1     -40.481 -48.983  12.393  1.00  0.00    -0.369 OA
BRANCH  18  19
HETATM   19  C   UNL     1     -39.326 -49.826  12.404  1.00  0.00     0.196 C 
BRANCH  19  20
HETATM   20  C   UNL     1     -39.613 -51.057  13.266  1.00  0.00     0.205 C 
BRANCH  20  21
HETATM   21  O   UNL     1     -39.700 -52.252  12.468  1.00  0.00    -0.320 OA
BRANCH  21  22
HETATM   22  C   UNL     1     -40.926 -52.835  12.416  1.00  0.00     0.254 C 
HETATM   23  O   UNL     1     -41.910 -52.361  11.866  1.00  0.00    -0.266 OA
HETATM   24  C   UNL     1     -40.916 -54.158  13.121  1.00  0.00     0.126 C 
ENDBRANCH  21  22
ENDBRANCH  20  21
ENDBRANCH  19  20
ENDBRANCH  18  19
ENDBRANCH  17  18
ENDBRANCH   5  17
TORSDOF 6
ENDMDL
MODEL 8
REMARK VINA RESULT:      -5.6      4.381      7.079
REMARK  6 active torsions:
REMARK  status: ('A' for Active; 'I' for Inactive)
REMARK    1  A    between atoms: N_5  and  C_13 
REMARK    2  A    between atoms: C_13  and  O_18 
REMARK    3  A    between atoms: C_14  and  O_17 
REMARK    4  A    between atoms: O_17  and  C_20 
REMARK    5  A    between atoms: O_18  and  C_21 
REMARK    6  A    between atoms: C_20  and  C_21 
ROOT
HETATM    1  C   UNL     1     -40.067 -52.020  12.852  1.00  0.00     0.158 A 
HETATM    2  C   UNL     1     -39.098 -51.442  13.644  1.00  0.00     0.147 A 
HETATM    3  N   UNL     1     -40.627 -51.528  11.719  1.00  0.00    -0.174 N 
ATOM      4  HN  UNL     1     -41.347 -52.020  11.190  1.00  0.00     0.186 HD
HETATM    5  N   UNL     1     -40.332 -53.223  13.447  1.00  0.00    -0.305 N 
HETATM    6  N   UNL     1     -39.199 -49.673  12.099  1.00  0.00    -0.154 N 
HETATM    7  N   UNL     1     -38.756 -52.251  14.695  1.00  0.00    -0.345 N 
ATOM      8  HN  UNL     1     -38.071 -52.069  15.429  1.00  0.00     0.167 HD
HETATM    9  C   UNL     1     -38.598 -50.142  13.259  1.00  0.00     0.290 A 
HETATM   10  C   UNL     1     -40.151 -50.361  11.371  1.00  0.00     0.680 A 
HETATM   11  C   UNL     1     -39.514 -53.320  14.544  1.00  0.00     0.187 A 
HETATM   12  O   UNL     1     -37.740 -49.493  13.850  1.00  0.00    -0.265 OA
HETATM   13  N   UNL     1     -40.584 -49.755  10.239  1.00  0.00    -0.234 N 
HETATM   14  H   UNL     1     -38.854 -48.785  11.776  1.00  0.00     0.187 HD
HETATM   15  H   UNL     1     -41.432 -50.151   9.851  1.00  0.00     0.174 HD
HETATM   16  H   UNL     1     -40.507 -48.751  10.152  1.00  0.00     0.174 HD
ENDROOT
BRANCH   5  17
HETATM   17  C   UNL     1     -41.294 -54.202  12.976  1.00  0.00     0.301 C 
BRANCH  17  18
HETATM   18  O   UNL     1     -42.325 -54.369  13.951  1.00  0.00    -0.369 OA
BRANCH  18  19
HETATM   19  C   UNL     1     -43.321 -53.349  13.850  1.00  0.00     0.196 C 
BRANCH  19  20
HETATM   20  C   UNL     1     -44.147 -53.579  12.583  1.00  0.00     0.205 C 
BRANCH  20  21
HETATM   21  O   UNL     1     -45.557 -53.615  12.873  1.00  0.00    -0.320 OA
BRANCH  21  22
HETATM   22  C   UNL     1     -46.263 -52.518  12.495  1.00  0.00     0.254 C 
HETATM   23  O   UNL     1     -46.710 -52.319  11.374  1.00  0.00    -0.266 OA
HETATM   24  C   UNL     1     -46.436 -51.573  13.646  1.00  0.00     0.126 C 
ENDBRANCH  21  22
ENDBRANCH  20  21
ENDBRANCH  19  20
ENDBRANCH  18  19
ENDBRANCH  17  18
ENDBRANCH   5  17
TORSDOF 6
ENDMDL
MODEL 9
REMARK VINA RESULT:      -5.4      4.603      7.190
REMARK  6 active torsions:
REMARK  status: ('A' for Active; 'I' for Inactive)
REMARK    1  A    between atoms: N_5  and  C_13 
REMARK    2  A    between atoms: C_13  and  O_18 
REMARK    3  A    between atoms: C_14  and  O_17 
REMARK    4  A    between atoms: O_17  and  C_20 
REMARK    5  A    between atoms: O_18  and  C_21 
REMARK    6  A    between atoms: C_20  and  C_21 
ROOT
HETATM    1  C   UNL     1     -43.846 -53.288  12.977  1.00  0.00     0.158 A 
HETATM    2  C   UNL     1     -44.301 -54.164  13.939  1.00  0.00     0.147 A 
HETATM    3  N   UNL     1     -44.575 -52.473  12.173  1.00  0.00    -0.174 N 
ATOM      4  HN  UNL     1     -44.159 -51.853  11.479  1.00  0.00     0.186 HD
HETATM    5  N   UNL     1     -42.483 -53.396  13.022  1.00  0.00    -0.305 N 
HETATM    6  N   UNL     1     -46.436 -53.424  13.294  1.00  0.00    -0.154 N 
HETATM    7  N   UNL     1     -43.265 -54.798  14.575  1.00  0.00    -0.345 N 
ATOM      8  HN  UNL     1     -43.319 -55.491  15.321  1.00  0.00     0.167 HD
HETATM    9  C   UNL     1     -45.728 -54.267  14.138  1.00  0.00     0.290 A 
HETATM   10  C   UNL     1     -45.863 -52.563  12.378  1.00  0.00     0.680 A 
HETATM   11  C   UNL     1     -42.182 -54.307  14.003  1.00  0.00     0.187 A 
HETATM   12  O   UNL     1     -46.294 -54.995  14.949  1.00  0.00    -0.265 OA
HETATM   13  N   UNL     1     -46.723 -51.784  11.677  1.00  0.00    -0.234 N 
HETATM   14  H   UNL     1     -47.433 -53.440  13.424  1.00  0.00     0.187 HD
HETATM   15  H   UNL     1     -46.315 -51.340  10.862  1.00  0.00     0.174 HD
HETATM   16  H   UNL     1     -47.681 -52.082  11.562  1.00  0.00     0.174 HD
ENDROOT
BRANCH   5  17
HETATM   17  C   UNL     1     -41.551 -52.661  12.187  1.00  0.00     0.301 C 
BRANCH  17  18
HETATM   18  O   UNL     1     -41.880 -51.271  12.209  1.00  0.00    -0.369 OA
BRANCH  18  19
HETATM   19  C   UNL     1     -40.852 -50.473  11.618  1.00  0.00     0.196 C 
BRANCH  19  20
HETATM   20  C   UNL     1     -41.231 -48.996  11.740  1.00  0.00     0.205 C 
BRANCH  20  21
HETATM   21  O   UNL     1     -41.628 -48.448  10.469  1.00  0.00    -0.320 OA
BRANCH  21  22
HETATM   22  C   UNL     1     -42.658 -47.563  10.508  1.00  0.00     0.254 C 
HETATM   23  O   UNL     1     -43.805 -47.830  10.838  1.00  0.00    -0.266 OA
HETATM   24  C   UNL     1     -42.202 -46.195  10.098  1.00  0.00     0.126 C 
ENDBRANCH  21  22
ENDBRANCH  20  21
ENDBRANCH  19  20
ENDBRANCH  18  19
ENDBRANCH  17  18
ENDBRANCH   5  17
TORSDOF 6
ENDMDL
