MODEL 1
REMARK VINA RESULT:      -6.6      0.000      0.000
REMARK  2 active torsions:
REMARK  status: ('A' for Active; 'I' for Inactive)
REMARK    1  A    between atoms: C_4  and  N_5 
REMARK       I    between atoms: N_5  and  C_6 
REMARK       I    between atoms: C_6  and  N_8 
REMARK    2  A    between atoms: N_8  and  C_9 
ROOT
HETATM    1  N   UNL     1     -41.480 -47.983  10.248  1.00  0.00    -0.293 N 
HETATM    2  C   UNL     1     -41.147 -48.936  11.160  1.00  0.00     0.322 C 
HETATM    3  O   UNL     1     -40.014 -48.940  11.638  1.00  0.00    -0.247 OA
HETATM    4  N   UNL     1     -42.122 -49.817  11.525  1.00  0.00    -0.338 N 
HETATM    5  H   UNL     1     -40.740 -47.322  10.065  1.00  0.00     0.172 HD
HETATM    6  H   UNL     1     -42.963 -49.840  10.960  1.00  0.00     0.164 HD
ENDROOT
BRANCH   1   7
HETATM    7  C   UNL     1     -42.678 -47.817   9.590  1.00  0.00     0.132 A 
HETATM    8  C   UNL     1     -43.874 -47.386  10.206  1.00  0.00     0.084 A 
HETATM    9  C   UNL     1     -44.794 -47.360   9.185  1.00  0.00     0.076 A 
HETATM   10  C   UNL     1     -46.221 -47.021   9.082  1.00  0.00     0.079 C 
HETATM   11  O   UNL     1     -44.193 -47.744   8.032  1.00  0.00    -0.241 OA
HETATM   12  N   UNL     1     -42.869 -48.028   8.282  1.00  0.00    -0.245 N 
ATOM     13  HN  UNL     1     -42.172 -48.337   7.604  1.00  0.00     0.196 HD
ENDBRANCH   1   7
BRANCH   4  14
HETATM   14  C   UNL     1     -41.892 -50.869  12.494  1.00  0.00     0.086 C 
HETATM   15  C   UNL     1     -41.515 -52.184  11.797  1.00  0.00     0.025 C 
HETATM   16  C   UNL     1     -40.642 -53.045  12.701  1.00  0.00     0.002 C 
HETATM   17  C   UNL     1     -41.369 -53.873  13.758  1.00  0.00     0.000 C 
HETATM   18  C   UNL     1     -42.705 -53.372  14.305  1.00  0.00     0.000 C 
HETATM   19  C   UNL     1     -42.794 -51.886  14.633  1.00  0.00     0.002 C 
HETATM   20  C   UNL     1     -43.103 -51.021  13.412  1.00  0.00     0.025 C 
ENDBRANCH   4  14
TORSDOF 2
ENDMDL
MODEL 2
REMARK VINA RESULT:      -6.1      1.944      2.523
REMARK  2 active torsions:
REMARK  status: ('A' for Active; 'I' for Inactive)
REMARK    1  A    between atoms: C_4  and  N_5 
REMARK       I    between atoms: N_5  and  C_6 
REMARK       I    between atoms: C_6  and  N_8 
REMARK    2  A    between atoms: N_8  and  C_9 
ROOT
HETATM    1  N   UNL     1     -41.998 -46.466   9.836  1.00  0.00    -0.293 N 
HETATM    2  C   UNL     1     -41.094 -47.019  10.690  1.00  0.00     0.322 C 
HETATM    3  O   UNL     1     -40.193 -46.319  11.147  1.00  0.00    -0.247 OA
HETATM    4  N   UNL     1     -41.275 -48.329  11.024  1.00  0.00    -0.338 N 
HETATM    5  H   UNL     1     -41.852 -45.481   9.675  1.00  0.00     0.172 HD
HETATM    6  H   UNL     1     -41.937 -48.863  10.473  1.00  0.00     0.164 HD
ENDROOT
BRANCH   1   7
HETATM    7  C   UNL     1     -43.061 -47.077   9.208  1.00  0.00     0.132 A 
HETATM    8  C   UNL     1     -44.365 -47.157   9.744  1.00  0.00     0.084 A 
HETATM    9  C   UNL     1     -45.085 -47.835   8.791  1.00  0.00     0.076 A 
HETATM   10  C   UNL     1     -46.481 -48.279   8.665  1.00  0.00     0.079 C 
HETATM   11  O   UNL     1     -44.272 -48.138   7.749  1.00  0.00    -0.241 OA
HETATM   12  N   UNL     1     -43.006 -47.663   8.006  1.00  0.00    -0.245 N 
ATOM     13  HN  UNL     1     -42.189 -47.742   7.401  1.00  0.00     0.196 HD
ENDBRANCH   1   7
BRANCH   4  14
HETATM   14  C   UNL     1     -40.386 -49.026  11.931  1.00  0.00     0.086 C 
HETATM   15  C   UNL     1     -39.187 -49.617  11.178  1.00  0.00     0.025 C 
HETATM   16  C   UNL     1     -37.972 -49.723  12.092  1.00  0.00     0.002 C 
HETATM   17  C   UNL     1     -37.924 -50.937  13.018  1.00  0.00     0.000 C 
HETATM   18  C   UNL     1     -39.235 -51.574  13.477  1.00  0.00     0.000 C 
HETATM   19  C   UNL     1     -40.345 -50.619  13.902  1.00  0.00     0.002 C 
HETATM   20  C   UNL     1     -41.156 -50.081  12.723  1.00  0.00     0.025 C 
ENDBRANCH   4  14
TORSDOF 2
ENDMDL
MODEL 3
REMARK VINA RESULT:      -6.1      4.312      6.204
REMARK  2 active torsions:
REMARK  status: ('A' for Active; 'I' for Inactive)
REMARK    1  A    between atoms: C_4  and  N_5 
REMARK       I    between atoms: N_5  and  C_6 
REMARK       I    between atoms: C_6  and  N_8 
REMARK    2  A    between atoms: N_8  and  C_9 
ROOT
HETATM    1  N   UNL     1     -43.186 -53.014  11.813  1.00  0.00    -0.293 N 
HETATM    2  C   UNL     1     -44.274 -53.018  12.630  1.00  0.00     0.322 C 
HETATM    3  O   UNL     1     -45.378 -53.287  12.159  1.00  0.00    -0.247 OA
HETATM    4  N   UNL     1     -44.061 -52.760  13.952  1.00  0.00    -0.338 N 
HETATM    5  H   UNL     1     -43.394 -53.273  10.860  1.00  0.00     0.172 HD
HETATM    6  H   UNL     1     -43.155 -52.389  14.213  1.00  0.00     0.164 HD
ENDROOT
BRANCH   1   7
HETATM    7  C   UNL     1     -41.879 -52.726  12.137  1.00  0.00     0.132 A 
HETATM    8  C   UNL     1     -41.368 -51.420  12.307  1.00  0.00     0.084 A 
HETATM    9  C   UNL     1     -40.045 -51.610  12.623  1.00  0.00     0.076 A 
HETATM   10  C   UNL     1     -38.912 -50.722  12.928  1.00  0.00     0.079 C 
HETATM   11  O   UNL     1     -39.777 -52.939  12.647  1.00  0.00    -0.241 OA
HETATM   12  N   UNL     1     -40.923 -53.640  12.345  1.00  0.00    -0.245 N 
ATOM     13  HN  UNL     1     -41.023 -54.653  12.291  1.00  0.00     0.196 HD
ENDBRANCH   1   7
BRANCH   4  14
HETATM   14  C   UNL     1     -45.137 -52.747  14.921  1.00  0.00     0.086 C 
HETATM   15  C   UNL     1     -45.707 -51.332  15.088  1.00  0.00     0.025 C 
HETATM   16  C   UNL     1     -47.170 -51.383  15.509  1.00  0.00     0.002 C 
HETATM   17  C   UNL     1     -47.441 -51.613  16.995  1.00  0.00     0.000 C 
HETATM   18  C   UNL     1     -46.420 -52.389  17.826  1.00  0.00     0.000 C 
HETATM   19  C   UNL     1     -45.834 -53.643  17.187  1.00  0.00     0.002 C 
HETATM   20  C   UNL     1     -44.668 -53.348  16.245  1.00  0.00     0.025 C 
ENDBRANCH   4  14
TORSDOF 2
ENDMDL
MODEL 4
REMARK VINA RESULT:      -6.0      2.048      2.545
REMARK  2 active torsions:
REMARK  status: ('A' for Active; 'I' for Inactive)
REMARK    1  A    between atoms: C_4  and  N_5 
REMARK       I    between atoms: N_5  and  C_6 
REMARK       I    between atoms: C_6  and  N_8 
REMARK    2  A    between atoms: N_8  and  C_9 
ROOT
HETATM    1  N   UNL     1     -41.796 -48.966  12.184  1.00  0.00    -0.293 N 
HETATM    2  C   UNL     1     -42.253 -50.003  12.937  1.00  0.00     0.322 C 
HETATM    3  O   UNL     1     -41.603 -50.368  13.915  1.00  0.00    -0.247 OA
HETATM    4  N   UNL     1     -43.448 -50.554  12.577  1.00  0.00    -0.338 N 
HETATM    5  H   UNL     1     -40.942 -48.558  12.534  1.00  0.00     0.172 HD
HETATM    6  H   UNL     1     -43.822 -50.302  11.670  1.00  0.00     0.164 HD
ENDROOT
BRANCH   1   7
HETATM    7  C   UNL     1     -42.360 -48.421  11.052  1.00  0.00     0.132 A 
HETATM    8  C   UNL     1     -43.522 -47.618  11.048  1.00  0.00     0.084 A 
HETATM    9  C   UNL     1     -43.712 -47.300   9.725  1.00  0.00     0.076 A 
HETATM   10  C   UNL     1     -44.705 -46.512   8.979  1.00  0.00     0.079 C 
HETATM   11  O   UNL     1     -42.731 -47.868   8.983  1.00  0.00    -0.241 OA
HETATM   12  N   UNL     1     -41.882 -48.569   9.811  1.00  0.00    -0.245 N 
ATOM     13  HN  UNL     1     -41.054 -49.095   9.533  1.00  0.00     0.196 HD
ENDBRANCH   1   7
BRANCH   4  14
HETATM   14  C   UNL     1     -44.043 -51.656  13.307  1.00  0.00     0.086 C 
HETATM   15  C   UNL     1     -44.047 -52.935  12.460  1.00  0.00     0.025 C 
HETATM   16  C   UNL     1     -44.001 -54.173  13.349  1.00  0.00     0.002 C 
HETATM   17  C   UNL     1     -45.330 -54.626  13.949  1.00  0.00     0.000 C 
HETATM   18  C   UNL     1     -46.422 -53.588  14.207  1.00  0.00     0.000 C 
HETATM   19  C   UNL     1     -45.976 -52.269  14.826  1.00  0.00     0.002 C 
HETATM   20  C   UNL     1     -45.438 -51.275  13.798  1.00  0.00     0.025 C 
ENDBRANCH   4  14
TORSDOF 2
ENDMDL
MODEL 5
REMARK VINA RESULT:      -5.9      4.715      5.498
REMARK  2 active torsions:
REMARK  status: ('A' for Active; 'I' for Inactive)
REMARK    1  A    between atoms: C_4  and  N_5 
REMARK       I    between atoms: N_5  and  C_6 
REMARK       I    between atoms: C_6  and  N_8 
REMARK    2  A    between atoms: N_8  and  C_9 
ROOT
HETATM    1  N   UNL     1     -44.329 -44.858   9.179  1.00  0.00    -0.293 N 
HETATM    2  C   UNL     1     -43.427 -44.472  10.121  1.00  0.00     0.322 C 
HETATM    3  O   UNL     1     -43.186 -43.274  10.267  1.00  0.00    -0.247 OA
HETATM    4  N   UNL     1     -42.870 -45.451  10.889  1.00  0.00    -0.338 N 
HETATM    5  H   UNL     1     -44.755 -44.088   8.686  1.00  0.00     0.172 HD
HETATM    6  H   UNL     1     -43.001 -46.410  10.587  1.00  0.00     0.164 HD
ENDROOT
BRANCH   1   7
HETATM    7  C   UNL     1     -44.723 -46.137   8.851  1.00  0.00     0.132 A 
HETATM    8  C   UNL     1     -45.967 -46.704   9.208  1.00  0.00     0.084 A 
HETATM    9  C   UNL     1     -45.929 -47.970   8.676  1.00  0.00     0.076 A 
HETATM   10  C   UNL     1     -46.853 -49.114   8.652  1.00  0.00     0.079 C 
HETATM   11  O   UNL     1     -44.746 -48.153   8.039  1.00  0.00    -0.241 OA
HETATM   12  N   UNL     1     -43.990 -47.006   8.145  1.00  0.00    -0.245 N 
ATOM     13  HN  UNL     1     -43.058 -46.851   7.762  1.00  0.00     0.196 HD
ENDBRANCH   1   7
BRANCH   4  14
HETATM   14  C   UNL     1     -41.906 -45.163  11.932  1.00  0.00     0.086 C 
HETATM   15  C   UNL     1     -40.481 -45.117  11.364  1.00  0.00     0.025 C 
HETATM   16  C   UNL     1     -39.597 -44.194  12.193  1.00  0.00     0.002 C 
HETATM   17  C   UNL     1     -39.012 -44.786  13.474  1.00  0.00     0.000 C 
HETATM   18  C   UNL     1     -39.772 -45.901  14.192  1.00  0.00     0.000 C 
HETATM   19  C   UNL     1     -41.280 -45.723  14.323  1.00  0.00     0.002 C 
HETATM   20  C   UNL     1     -42.046 -46.165  13.076  1.00  0.00     0.025 C 
ENDBRANCH   4  14
TORSDOF 2
ENDMDL
MODEL 6
REMARK VINA RESULT:      -5.9      2.721      3.938
REMARK  2 active torsions:
REMARK  status: ('A' for Active; 'I' for Inactive)
REMARK    1  A    between atoms: C_4  and  N_5 
REMARK       I    between atoms: N_5  and  C_6 
REMARK       I    between atoms: C_6  and  N_8 
REMARK    2  A    between atoms: N_8  and  C_9 
ROOT
HETATM    1  N   UNL     1     -41.202 -50.557  11.461  1.00  0.00    -0.293 N 
HETATM    2  C   UNL     1     -42.080 -51.231  12.252  1.00  0.00     0.322 C 
HETATM    3  O   UNL     1     -41.939 -52.443  12.409  1.00  0.00    -0.247 OA
HETATM    4  N   UNL     1     -43.053 -50.500  12.867  1.00  0.00    -0.338 N 
HETATM    5  H   UNL     1     -40.468 -51.138  11.085  1.00  0.00     0.172 HD
HETATM    6  H   UNL     1     -43.190 -49.548  12.549  1.00  0.00     0.164 HD
ENDROOT
BRANCH   1   7
HETATM    7  C   UNL     1     -41.196 -49.216  11.148  1.00  0.00     0.132 A 
HETATM    8  C   UNL     1     -40.283 -48.277  11.679  1.00  0.00     0.084 A 
HETATM    9  C   UNL     1     -40.640 -47.087  11.094  1.00  0.00     0.076 A 
HETATM   10  C   UNL     1     -40.148 -45.702  11.172  1.00  0.00     0.079 C 
HETATM   11  O   UNL     1     -41.691 -47.294  10.263  1.00  0.00    -0.241 OA
HETATM   12  N   UNL     1     -42.039 -48.626  10.293  1.00  0.00    -0.245 N 
ATOM     13  HN  UNL     1     -42.790 -49.073   9.768  1.00  0.00     0.196 HD
ENDBRANCH   1   7
BRANCH   4  14
HETATM   14  C   UNL     1     -44.039 -51.103  13.742  1.00  0.00     0.086 C 
HETATM   15  C   UNL     1     -45.425 -51.107  13.085  1.00  0.00     0.025 C 
HETATM   16  C   UNL     1     -46.268 -52.265  13.604  1.00  0.00     0.002 C 
HETATM   17  C   UNL     1     -46.961 -52.050  14.948  1.00  0.00     0.000 C 
HETATM   18  C   UNL     1     -46.334 -51.096  15.964  1.00  0.00     0.000 C 
HETATM   19  C   UNL     1     -44.824 -51.195  16.149  1.00  0.00     0.002 C 
HETATM   20  C   UNL     1     -44.039 -50.407  15.102  1.00  0.00     0.025 C 
ENDBRANCH   4  14
TORSDOF 2
ENDMDL
MODEL 7
REMARK VINA RESULT:      -5.7      4.086      6.295
REMARK  2 active torsions:
REMARK  status: ('A' for Active; 'I' for Inactive)
REMARK    1  A    between atoms: C_4  and  N_5 
REMARK       I    between atoms: N_5  and  C_6 
REMARK       I    between atoms: C_6  and  N_8 
REMARK    2  A    between atoms: N_8  and  C_9 
ROOT
HETATM    1  N   UNL     1     -41.602 -47.723  10.100  1.00  0.00    -0.293 N 
HETATM    2  C   UNL     1     -41.079 -46.779  10.929  1.00  0.00     0.322 C 
HETATM    3  O   UNL     1     -39.964 -46.958  11.415  1.00  0.00    -0.247 OA
HETATM    4  N   UNL     1     -41.822 -45.654  11.138  1.00  0.00    -0.338 N 
HETATM    5  H   UNL     1     -40.982 -48.502   9.932  1.00  0.00     0.172 HD
HETATM    6  H   UNL     1     -42.788 -45.672  10.833  1.00  0.00     0.164 HD
ENDROOT
BRANCH   1   7
HETATM    7  C   UNL     1     -42.828 -47.721   9.472  1.00  0.00     0.132 A 
HETATM    8  C   UNL     1     -44.056 -47.467  10.123  1.00  0.00     0.084 A 
HETATM    9  C   UNL     1     -44.996 -47.561   9.125  1.00  0.00     0.076 A 
HETATM   10  C   UNL     1     -46.459 -47.425   9.060  1.00  0.00     0.079 C 
HETATM   11  O   UNL     1     -44.377 -47.847   7.953  1.00  0.00    -0.241 OA
HETATM   12  N   UNL     1     -43.020 -47.945   8.167  1.00  0.00    -0.245 N 
ATOM     13  HN  UNL     1     -42.305 -48.148   7.469  1.00  0.00     0.196 HD
ENDBRANCH   1   7
BRANCH   4  14
HETATM   14  C   UNL     1     -41.368 -44.575  11.991  1.00  0.00     0.086 C 
HETATM   15  C   UNL     1     -42.341 -44.350  13.156  1.00  0.00     0.025 C 
HETATM   16  C   UNL     1     -41.614 -43.774  14.365  1.00  0.00     0.002 C 
HETATM   17  C   UNL     1     -41.363 -42.268  14.352  1.00  0.00     0.000 C 
HETATM   18  C   UNL     1     -41.220 -41.550  13.010  1.00  0.00     0.000 C 
HETATM   19  C   UNL     1     -40.370 -42.246  11.953  1.00  0.00     0.002 C 
HETATM   20  C   UNL     1     -41.139 -43.308  11.169  1.00  0.00     0.025 C 
ENDBRANCH   4  14
TORSDOF 2
ENDMDL
MODEL 8
REMARK VINA RESULT:      -5.6      4.464      5.821
REMARK  2 active torsions:
REMARK  status: ('A' for Active; 'I' for Inactive)
REMARK    1  A    between atoms: C_4  and  N_5 
REMARK       I    between atoms: N_5  and  C_6 
REMARK       I    between atoms: C_6  and  N_8 
REMARK    2  A    between atoms: N_8  and  C_9 
ROOT
HETATM    1  N   UNL     1     -42.025 -54.329  13.024  1.00  0.00    -0.293 N 
HETATM    2  C   UNL     1     -40.848 -53.654  13.125  1.00  0.00     0.322 C 
HETATM    3  O   UNL     1     -39.796 -54.288  13.187  1.00  0.00    -0.247 OA
HETATM    4  N   UNL     1     -40.907 -52.291  13.106  1.00  0.00    -0.338 N 
HETATM    5  H   UNL     1     -41.915 -55.330  12.979  1.00  0.00     0.172 HD
HETATM    6  H   UNL     1     -41.819 -51.864  13.221  1.00  0.00     0.164 HD
ENDROOT
BRANCH   1   7
HETATM    7  C   UNL     1     -43.300 -53.811  12.960  1.00  0.00     0.132 A 
HETATM    8  C   UNL     1     -44.148 -53.638  14.076  1.00  0.00     0.084 A 
HETATM    9  C   UNL     1     -45.297 -53.097  13.551  1.00  0.00     0.076 A 
HETATM   10  C   UNL     1     -46.589 -52.665  14.105  1.00  0.00     0.079 C 
HETATM   11  O   UNL     1     -45.150 -52.950  12.211  1.00  0.00    -0.241 OA
HETATM   12  N   UNL     1     -43.900 -53.394  11.839  1.00  0.00    -0.245 N 
ATOM     13  HN  UNL     1     -43.511 -53.402  10.897  1.00  0.00     0.196 HD
ENDBRANCH   1   7
BRANCH   4  14
HETATM   14  C   UNL     1     -39.721 -51.464  13.196  1.00  0.00     0.086 C 
HETATM   15  C   UNL     1     -39.558 -50.890  14.609  1.00  0.00     0.025 C 
HETATM   16  C   UNL     1     -38.090 -50.631  14.923  1.00  0.00     0.002 C 
HETATM   17  C   UNL     1     -37.499 -49.331  14.382  1.00  0.00     0.000 C 
HETATM   18  C   UNL     1     -38.087 -48.719  13.111  1.00  0.00     0.000 C 
HETATM   19  C   UNL     1     -38.397 -49.683  11.971  1.00  0.00     0.002 C 
HETATM   20  C   UNL     1     -39.750 -50.376  12.123  1.00  0.00     0.025 C 
ENDBRANCH   4  14
TORSDOF 2
ENDMDL
MODEL 9
REMARK VINA RESULT:      -5.5      3.398      5.977
REMARK  2 active torsions:
REMARK  status: ('A' for Active; 'I' for Inactive)
REMARK    1  A    between atoms: C_4  and  N_5 
REMARK       I    between atoms: N_5  and  C_6 
REMARK       I    between atoms: C_6  and  N_8 
REMARK    2  A    between atoms: N_8  and  C_9 
ROOT
HETATM    1  N   UNL     1     -41.680 -53.568  12.656  1.00  0.00    -0.293 N 
HETATM    2  C   UNL     1     -40.975 -52.414  12.509  1.00  0.00     0.322 C 
HETATM    3  O   UNL     1     -39.753 -52.469  12.383  1.00  0.00    -0.247 OA
HETATM    4  N   UNL     1     -41.685 -51.250  12.469  1.00  0.00    -0.338 N 
HETATM    5  H   UNL     1     -41.110 -54.399  12.615  1.00  0.00     0.172 HD
HETATM    6  H   UNL     1     -42.659 -51.290  12.747  1.00  0.00     0.164 HD
ENDROOT
BRANCH   1   7
HETATM    7  C   UNL     1     -43.039 -53.719  12.826  1.00  0.00     0.132 A 
HETATM    8  C   UNL     1     -43.641 -54.277  13.976  1.00  0.00     0.084 A 
HETATM    9  C   UNL     1     -44.989 -54.225  13.714  1.00  0.00     0.076 A 
HETATM   10  C   UNL     1     -46.204 -54.623  14.441  1.00  0.00     0.079 C 
HETATM   11  O   UNL     1     -45.186 -53.670  12.493  1.00  0.00    -0.241 OA
HETATM   12  N   UNL     1     -43.968 -53.350  11.936  1.00  0.00    -0.245 N 
ATOM     13  HN  UNL     1     -43.806 -52.919  11.026  1.00  0.00     0.196 HD
ENDBRANCH   1   7
BRANCH   4  14
HETATM   14  C   UNL     1     -41.048 -49.959  12.306  1.00  0.00     0.086 C 
HETATM   15  C   UNL     1     -40.652 -49.368  13.665  1.00  0.00     0.025 C 
HETATM   16  C   UNL     1     -39.449 -48.443  13.524  1.00  0.00     0.002 C 
HETATM   17  C   UNL     1     -39.738 -47.022  13.047  1.00  0.00     0.000 C 
HETATM   18  C   UNL     1     -40.955 -46.769  12.157  1.00  0.00     0.000 C 
HETATM   19  C   UNL     1     -41.198 -47.772  11.035  1.00  0.00     0.002 C 
HETATM   20  C   UNL     1     -41.944 -49.022  11.500  1.00  0.00     0.025 C 
ENDBRANCH   4  14
TORSDOF 2
ENDMDL
