MODEL 1
REMARK VINA RESULT:      -5.9      0.000      0.000
REMARK  3 active torsions:
REMARK  status: ('A' for Active; 'I' for Inactive)
REMARK    1  A    between atoms: C_5  and  N_8 
REMARK       I    between atoms: N_8  and  C_9 
REMARK    2  A    between atoms: C_9  and  C_11 
REMARK    3  A    between atoms: C_11  and  C_12 
ROOT
HETATM    1  N   UNL     1     -43.789 -50.069  12.989  1.00  0.00    -0.356 N 
HETATM    2  C   UNL     1     -42.622 -49.620  12.408  1.00  0.00     0.223 C 
HETATM    3  O   UNL     1     -41.660 -50.346  12.165  1.00  0.00    -0.273 OA
HETATM    4  H   UNL     1     -44.561 -49.420  13.084  1.00  0.00     0.162 HD
ENDROOT
BRANCH   2   5
HETATM    5  C   UNL     1     -42.614 -48.144  12.066  1.00  0.00     0.160 C 
BRANCH   5   6
HETATM    6  C   UNL     1     -43.233 -47.888  10.733  1.00  0.00     0.025 A 
HETATM    7  C   UNL     1     -42.578 -47.791   9.519  1.00  0.00     0.077 A 
HETATM    8  S   UNL     1     -43.693 -47.443   8.270  1.00  0.00    -0.087 SA
HETATM    9  C   UNL     1     -44.963 -47.416   9.426  1.00  0.00     0.047 A 
HETATM   10  C   UNL     1     -46.357 -47.096   9.013  1.00  0.00     0.076 C 
HETATM   11  N   UNL     1     -44.605 -47.682  10.666  1.00  0.00    -0.357 N 
ATOM     12  HN  UNL     1     -45.242 -47.731  11.461  1.00  0.00     0.166 HD
ENDBRANCH   5   6
ENDBRANCH   2   5
BRANCH   1  13
HETATM   13  C   UNL     1     -44.000 -51.465  13.355  1.00  0.00     0.084 C 
HETATM   14  C   UNL     1     -45.188 -52.051  12.584  1.00  0.00     0.025 C 
HETATM   15  C   UNL     1     -46.535 -51.529  13.085  1.00  0.00     0.006 C 
HETATM   16  C   UNL     1     -46.719 -51.699  14.599  1.00  0.00    -0.019 C 
HETATM   17  C   UNL     1     -46.944 -53.167  14.978  1.00  0.00     0.010 C 
HETATM   18  C   UNL     1     -45.533 -51.092  15.362  1.00  0.00     0.006 C 
HETATM   19  C   UNL     1     -44.178 -51.604  14.871  1.00  0.00     0.025 C 
ENDBRANCH   1  13
TORSDOF 3
ENDMDL
MODEL 2
REMARK VINA RESULT:      -5.9      1.385      2.032
REMARK  3 active torsions:
REMARK  status: ('A' for Active; 'I' for Inactive)
REMARK    1  A    between atoms: C_5  and  N_8 
REMARK       I    between atoms: N_8  and  C_9 
REMARK    2  A    between atoms: C_9  and  C_11 
REMARK    3  A    between atoms: C_11  and  C_12 
ROOT
HETATM    1  N   UNL     1     -43.300 -50.371  12.485  1.00  0.00    -0.356 N 
HETATM    2  C   UNL     1     -42.965 -49.033  12.454  1.00  0.00     0.223 C 
HETATM    3  O   UNL     1     -43.207 -48.251  13.371  1.00  0.00    -0.273 OA
HETATM    4  H   UNL     1     -42.995 -50.962  11.721  1.00  0.00     0.162 HD
ENDROOT
BRANCH   2   5
HETATM    5  C   UNL     1     -42.246 -48.591  11.195  1.00  0.00     0.160 C 
BRANCH   5   6
HETATM    6  C   UNL     1     -43.107 -47.707  10.356  1.00  0.00     0.025 A 
HETATM    7  C   UNL     1     -42.728 -46.532   9.733  1.00  0.00     0.077 A 
HETATM    8  S   UNL     1     -44.064 -45.838   8.919  1.00  0.00    -0.087 SA
HETATM    9  C   UNL     1     -45.057 -47.125   9.473  1.00  0.00     0.047 A 
HETATM   10  C   UNL     1     -46.510 -47.153   9.150  1.00  0.00     0.076 C 
HETATM   11  N   UNL     1     -44.443 -48.044  10.190  1.00  0.00    -0.357 N 
ATOM     12  HN  UNL     1     -44.885 -48.882  10.569  1.00  0.00     0.166 HD
ENDBRANCH   5   6
ENDBRANCH   2   5
BRANCH   1  13
HETATM   13  C   UNL     1     -43.962 -50.991  13.627  1.00  0.00     0.084 C 
HETATM   14  C   UNL     1     -43.135 -52.169  14.155  1.00  0.00     0.025 C 
HETATM   15  C   UNL     1     -43.186 -53.389  13.235  1.00  0.00     0.006 C 
HETATM   16  C   UNL     1     -44.619 -53.824  12.895  1.00  0.00    -0.019 C 
HETATM   17  C   UNL     1     -45.308 -54.479  14.097  1.00  0.00     0.010 C 
HETATM   18  C   UNL     1     -45.431 -52.642  12.349  1.00  0.00     0.006 C 
HETATM   19  C   UNL     1     -45.389 -51.413  13.259  1.00  0.00     0.025 C 
ENDBRANCH   1  13
TORSDOF 3
ENDMDL
MODEL 3
REMARK VINA RESULT:      -5.5      1.643      2.055
REMARK  3 active torsions:
REMARK  status: ('A' for Active; 'I' for Inactive)
REMARK    1  A    between atoms: C_5  and  N_8 
REMARK       I    between atoms: N_8  and  C_9 
REMARK    2  A    between atoms: C_9  and  C_11 
REMARK    3  A    between atoms: C_11  and  C_12 
ROOT
HETATM    1  N   UNL     1     -42.427 -50.988  12.356  1.00  0.00    -0.356 N 
HETATM    2  C   UNL     1     -41.466 -50.001  12.391  1.00  0.00     0.223 C 
HETATM    3  O   UNL     1     -41.011 -49.531  13.432  1.00  0.00    -0.273 OA
HETATM    4  H   UNL     1     -42.691 -51.373  11.457  1.00  0.00     0.162 HD
ENDROOT
BRANCH   2   5
HETATM    5  C   UNL     1     -40.986 -49.539  11.030  1.00  0.00     0.160 C 
BRANCH   5   6
HETATM    6  C   UNL     1     -41.596 -48.232  10.649  1.00  0.00     0.025 A 
HETATM    7  C   UNL     1     -41.153 -46.973  11.011  1.00  0.00     0.077 A 
HETATM    8  S   UNL     1     -42.196 -45.773  10.379  1.00  0.00    -0.087 SA
HETATM    9  C   UNL     1     -43.179 -47.005   9.694  1.00  0.00     0.047 A 
HETATM   10  C   UNL     1     -44.424 -46.657   8.956  1.00  0.00     0.076 C 
HETATM   11  N   UNL     1     -42.754 -48.238   9.883  1.00  0.00    -0.357 N 
ATOM     12  HN  UNL     1     -43.209 -49.075   9.519  1.00  0.00     0.166 HD
ENDBRANCH   5   6
ENDBRANCH   2   5
BRANCH   1  13
HETATM   13  C   UNL     1     -42.986 -51.587  13.564  1.00  0.00     0.084 C 
HETATM   14  C   UNL     1     -43.147 -53.102  13.389  1.00  0.00     0.025 C 
HETATM   15  C   UNL     1     -44.300 -53.472  12.456  1.00  0.00     0.006 C 
HETATM   16  C   UNL     1     -45.629 -52.815  12.855  1.00  0.00    -0.019 C 
HETATM   17  C   UNL     1     -46.213 -53.450  14.121  1.00  0.00     0.010 C 
HETATM   18  C   UNL     1     -45.461 -51.297  13.007  1.00  0.00     0.006 C 
HETATM   19  C   UNL     1     -44.310 -50.911  13.938  1.00  0.00     0.025 C 
ENDBRANCH   1  13
TORSDOF 3
ENDMDL
MODEL 4
REMARK VINA RESULT:      -5.4      3.213      4.077
REMARK  3 active torsions:
REMARK  status: ('A' for Active; 'I' for Inactive)
REMARK    1  A    between atoms: C_5  and  N_8 
REMARK       I    between atoms: N_8  and  C_9 
REMARK    2  A    between atoms: C_9  and  C_11 
REMARK    3  A    between atoms: C_11  and  C_12 
ROOT
HETATM    1  N   UNL     1     -43.129 -53.284  13.303  1.00  0.00    -0.356 N 
HETATM    2  C   UNL     1     -41.843 -53.766  13.425  1.00  0.00     0.223 C 
HETATM    3  O   UNL     1     -41.474 -54.490  14.347  1.00  0.00    -0.273 OA
HETATM    4  H   UNL     1     -43.369 -52.757  12.471  1.00  0.00     0.162 HD
ENDROOT
BRANCH   2   5
HETATM    5  C   UNL     1     -40.904 -53.349  12.312  1.00  0.00     0.160 C 
BRANCH   5   6
HETATM    6  C   UNL     1     -40.601 -51.890  12.369  1.00  0.00     0.025 A 
HETATM    7  C   UNL     1     -39.894 -51.228  13.357  1.00  0.00     0.077 A 
HETATM    8  S   UNL     1     -39.839 -49.551  13.023  1.00  0.00    -0.087 SA
HETATM    9  C   UNL     1     -40.779 -49.813  11.609  1.00  0.00     0.047 A 
HETATM   10  C   UNL     1     -41.196 -48.667  10.755  1.00  0.00     0.076 C 
HETATM   11  N   UNL     1     -41.094 -51.069  11.364  1.00  0.00    -0.357 N 
ATOM     12  HN  UNL     1     -41.623 -51.391  10.554  1.00  0.00     0.166 HD
ENDBRANCH   5   6
ENDBRANCH   2   5
BRANCH   1  13
HETATM   13  C   UNL     1     -44.185 -53.606  14.255  1.00  0.00     0.084 C 
HETATM   14  C   UNL     1     -45.548 -53.654  13.554  1.00  0.00     0.025 C 
HETATM   15  C   UNL     1     -46.068 -52.267  13.173  1.00  0.00     0.006 C 
HETATM   16  C   UNL     1     -46.087 -51.288  14.355  1.00  0.00    -0.019 C 
HETATM   17  C   UNL     1     -47.201 -51.629  15.350  1.00  0.00     0.010 C 
HETATM   18  C   UNL     1     -44.713 -51.234  15.037  1.00  0.00     0.006 C 
HETATM   19  C   UNL     1     -44.179 -52.614  15.424  1.00  0.00     0.025 C 
ENDBRANCH   1  13
TORSDOF 3
ENDMDL
MODEL 5
REMARK VINA RESULT:      -5.3      3.249      4.494
REMARK  3 active torsions:
REMARK  status: ('A' for Active; 'I' for Inactive)
REMARK    1  A    between atoms: C_5  and  N_8 
REMARK       I    between atoms: N_8  and  C_9 
REMARK    2  A    between atoms: C_9  and  C_11 
REMARK    3  A    between atoms: C_11  and  C_12 
ROOT
HETATM    1  N   UNL     1     -42.928 -50.929  12.808  1.00  0.00    -0.356 N 
HETATM    2  C   UNL     1     -42.739 -49.569  12.686  1.00  0.00     0.223 C 
HETATM    3  O   UNL     1     -43.242 -48.742  13.444  1.00  0.00    -0.273 OA
HETATM    4  H   UNL     1     -42.414 -51.545  12.189  1.00  0.00     0.162 HD
ENDROOT
BRANCH   2   5
HETATM    5  C   UNL     1     -41.834 -49.157  11.542  1.00  0.00     0.160 C 
BRANCH   5   6
HETATM    6  C   UNL     1     -40.395 -49.249  11.923  1.00  0.00     0.025 A 
HETATM    7  C   UNL     1     -39.820 -48.815  13.103  1.00  0.00     0.077 A 
HETATM    8  S   UNL     1     -38.131 -49.086  13.075  1.00  0.00    -0.087 SA
HETATM    9  C   UNL     1     -38.274 -49.732  11.490  1.00  0.00     0.047 A 
HETATM   10  C   UNL     1     -37.065 -50.180  10.743  1.00  0.00     0.076 C 
HETATM   11  N   UNL     1     -39.499 -49.785  11.008  1.00  0.00    -0.357 N 
ATOM     12  HN  UNL     1     -39.753 -50.164  10.096  1.00  0.00     0.166 HD
ENDBRANCH   5   6
ENDBRANCH   2   5
BRANCH   1  13
HETATM   13  C   UNL     1     -43.735 -51.520  13.870  1.00  0.00     0.084 C 
HETATM   14  C   UNL     1     -43.093 -52.817  14.377  1.00  0.00     0.025 C 
HETATM   15  C   UNL     1     -43.228 -53.973  13.385  1.00  0.00     0.006 C 
HETATM   16  C   UNL     1     -44.676 -54.210  12.934  1.00  0.00    -0.019 C 
HETATM   17  C   UNL     1     -45.518 -54.835  14.051  1.00  0.00     0.010 C 
HETATM   18  C   UNL     1     -45.302 -52.910  12.410  1.00  0.00     0.006 C 
HETATM   19  C   UNL     1     -45.174 -51.744  13.391  1.00  0.00     0.025 C 
ENDBRANCH   1  13
TORSDOF 3
ENDMDL
MODEL 6
REMARK VINA RESULT:      -5.2      3.579      4.625
REMARK  3 active torsions:
REMARK  status: ('A' for Active; 'I' for Inactive)
REMARK    1  A    between atoms: C_5  and  N_8 
REMARK       I    between atoms: N_8  and  C_9 
REMARK    2  A    between atoms: C_9  and  C_11 
REMARK    3  A    between atoms: C_11  and  C_12 
ROOT
HETATM    1  N   UNL     1     -44.431 -53.446  14.149  1.00  0.00    -0.356 N 
HETATM    2  C   UNL     1     -43.759 -53.625  12.958  1.00  0.00     0.223 C 
HETATM    3  O   UNL     1     -44.290 -53.517  11.855  1.00  0.00    -0.273 OA
HETATM    4  H   UNL     1     -43.901 -53.478  15.011  1.00  0.00     0.162 HD
ENDROOT
BRANCH   2   5
HETATM    5  C   UNL     1     -42.287 -53.953  13.107  1.00  0.00     0.160 C 
BRANCH   5   6
HETATM    6  C   UNL     1     -41.441 -52.728  13.004  1.00  0.00     0.025 A 
HETATM    7  C   UNL     1     -40.486 -52.302  13.909  1.00  0.00     0.077 A 
HETATM    8  S   UNL     1     -39.803 -50.820  13.395  1.00  0.00    -0.087 SA
HETATM    9  C   UNL     1     -40.840 -50.830  12.026  1.00  0.00     0.047 A 
HETATM   10  C   UNL     1     -40.824 -49.701  11.056  1.00  0.00     0.076 C 
HETATM   11  N   UNL     1     -41.627 -51.881  11.920  1.00  0.00    -0.357 N 
ATOM     12  HN  UNL     1     -42.279 -52.049  11.154  1.00  0.00     0.166 HD
ENDBRANCH   5   6
ENDBRANCH   2   5
BRANCH   1  13
HETATM   13  C   UNL     1     -45.844 -53.089  14.209  1.00  0.00     0.084 C 
HETATM   14  C   UNL     1     -46.015 -51.566  14.218  1.00  0.00     0.025 C 
HETATM   15  C   UNL     1     -45.613 -50.932  15.551  1.00  0.00     0.006 C 
HETATM   16  C   UNL     1     -46.313 -51.576  16.756  1.00  0.00    -0.019 C 
HETATM   17  C   UNL     1     -47.795 -51.195  16.817  1.00  0.00     0.010 C 
HETATM   18  C   UNL     1     -46.118 -53.099  16.747  1.00  0.00     0.006 C 
HETATM   19  C   UNL     1     -46.515 -53.747  15.420  1.00  0.00     0.025 C 
ENDBRANCH   1  13
TORSDOF 3
ENDMDL
MODEL 7
REMARK VINA RESULT:      -5.2      2.046      2.674
REMARK  3 active torsions:
REMARK  status: ('A' for Active; 'I' for Inactive)
REMARK    1  A    between atoms: C_5  and  N_8 
REMARK       I    between atoms: N_8  and  C_9 
REMARK    2  A    between atoms: C_9  and  C_11 
REMARK    3  A    between atoms: C_11  and  C_12 
ROOT
HETATM    1  N   UNL     1     -42.938 -51.800  13.163  1.00  0.00    -0.356 N 
HETATM    2  C   UNL     1     -41.742 -51.557  12.522  1.00  0.00     0.223 C 
HETATM    3  O   UNL     1     -41.333 -52.221  11.572  1.00  0.00    -0.273 OA
HETATM    4  H   UNL     1     -43.237 -51.157  13.887  1.00  0.00     0.162 HD
ENDROOT
BRANCH   2   5
HETATM    5  C   UNL     1     -40.962 -50.378  13.068  1.00  0.00     0.160 C 
BRANCH   5   6
HETATM    6  C   UNL     1     -41.058 -49.193  12.166  1.00  0.00     0.025 A 
HETATM    7  C   UNL     1     -40.304 -48.036  12.235  1.00  0.00     0.077 A 
HETATM    8  S   UNL     1     -40.798 -46.935  11.023  1.00  0.00    -0.087 SA
HETATM    9  C   UNL     1     -41.995 -48.054  10.509  1.00  0.00     0.047 A 
HETATM   10  C   UNL     1     -42.929 -47.709   9.403  1.00  0.00     0.076 C 
HETATM   11  N   UNL     1     -42.018 -49.198  11.163  1.00  0.00    -0.357 N 
ATOM     12  HN  UNL     1     -42.649 -49.973  10.963  1.00  0.00     0.166 HD
ENDBRANCH   5   6
ENDBRANCH   2   5
BRANCH   1  13
HETATM   13  C   UNL     1     -43.847 -52.867  12.758  1.00  0.00     0.084 C 
HETATM   14  C   UNL     1     -45.303 -52.395  12.840  1.00  0.00     0.025 C 
HETATM   15  C   UNL     1     -45.806 -52.269  14.279  1.00  0.00     0.006 C 
HETATM   16  C   UNL     1     -45.589 -53.545  15.104  1.00  0.00    -0.019 C 
HETATM   17  C   UNL     1     -46.548 -54.661  14.677  1.00  0.00     0.010 C 
HETATM   18  C   UNL     1     -44.124 -53.997  15.031  1.00  0.00     0.006 C 
HETATM   19  C   UNL     1     -43.606 -54.127  13.597  1.00  0.00     0.025 C 
ENDBRANCH   1  13
TORSDOF 3
ENDMDL
MODEL 8
REMARK VINA RESULT:      -5.0      4.454      6.222
REMARK  3 active torsions:
REMARK  status: ('A' for Active; 'I' for Inactive)
REMARK    1  A    between atoms: C_5  and  N_8 
REMARK       I    between atoms: N_8  and  C_9 
REMARK    2  A    between atoms: C_9  and  C_11 
REMARK    3  A    between atoms: C_11  and  C_12 
ROOT
HETATM    1  N   UNL     1     -42.160 -53.230  13.544  1.00  0.00    -0.356 N 
HETATM    2  C   UNL     1     -40.850 -53.373  13.141  1.00  0.00     0.223 C 
HETATM    3  O   UNL     1     -40.437 -53.031  12.036  1.00  0.00    -0.273 OA
HETATM    4  H   UNL     1     -42.400 -53.467  14.500  1.00  0.00     0.162 HD
ENDROOT
BRANCH   2   5
HETATM    5  C   UNL     1     -39.931 -53.977  14.185  1.00  0.00     0.160 C 
BRANCH   5   6
HETATM    6  C   UNL     1     -39.200 -52.922  14.946  1.00  0.00     0.025 A 
HETATM    7  C   UNL     1     -39.002 -52.874  16.314  1.00  0.00     0.077 A 
HETATM    8  S   UNL     1     -38.148 -51.454  16.739  1.00  0.00    -0.087 SA
HETATM    9  C   UNL     1     -38.125 -50.987  15.086  1.00  0.00     0.047 A 
HETATM   10  C   UNL     1     -37.517 -49.692  14.673  1.00  0.00     0.076 C 
HETATM   11  N   UNL     1     -38.682 -51.839  14.249  1.00  0.00    -0.357 N 
ATOM     12  HN  UNL     1     -38.726 -51.721  13.237  1.00  0.00     0.166 HD
ENDBRANCH   5   6
ENDBRANCH   2   5
BRANCH   1  13
HETATM   13  C   UNL     1     -43.185 -52.636  12.693  1.00  0.00     0.084 C 
HETATM   14  C   UNL     1     -43.552 -51.233  13.192  1.00  0.00     0.025 C 
HETATM   15  C   UNL     1     -44.380 -51.258  14.477  1.00  0.00     0.006 C 
HETATM   16  C   UNL     1     -45.623 -52.152  14.373  1.00  0.00    -0.019 C 
HETATM   17  C   UNL     1     -46.697 -51.521  13.482  1.00  0.00     0.010 C 
HETATM   18  C   UNL     1     -45.241 -53.559  13.892  1.00  0.00     0.006 C 
HETATM   19  C   UNL     1     -44.412 -53.550  12.607  1.00  0.00     0.025 C 
ENDBRANCH   1  13
TORSDOF 3
ENDMDL
MODEL 9
REMARK VINA RESULT:      -4.9      4.407      6.339
REMARK  3 active torsions:
REMARK  status: ('A' for Active; 'I' for Inactive)
REMARK    1  A    between atoms: C_5  and  N_8 
REMARK       I    between atoms: N_8  and  C_9 
REMARK    2  A    between atoms: C_9  and  C_11 
REMARK    3  A    between atoms: C_11  and  C_12 
ROOT
HETATM    1  N   UNL     1     -43.208 -52.848  13.331  1.00  0.00    -0.356 N 
HETATM    2  C   UNL     1     -44.542 -52.838  12.984  1.00  0.00     0.223 C 
HETATM    3  O   UNL     1     -45.142 -53.825  12.564  1.00  0.00    -0.273 OA
HETATM    4  H   UNL     1     -42.810 -52.012  13.742  1.00  0.00     0.162 HD
ENDROOT
BRANCH   2   5
HETATM    5  C   UNL     1     -45.235 -51.505  13.180  1.00  0.00     0.160 C 
BRANCH   5   6
HETATM    6  C   UNL     1     -45.788 -51.372  14.559  1.00  0.00     0.025 A 
HETATM    7  C   UNL     1     -47.024 -51.805  15.002  1.00  0.00     0.077 A 
HETATM    8  S   UNL     1     -47.240 -51.394  16.649  1.00  0.00    -0.087 SA
HETATM    9  C   UNL     1     -45.694 -50.647  16.653  1.00  0.00     0.047 A 
HETATM   10  C   UNL     1     -45.186 -49.965  17.876  1.00  0.00     0.076 C 
HETATM   11  N   UNL     1     -45.027 -50.719  15.519  1.00  0.00    -0.357 N 
ATOM     12  HN  UNL     1     -44.088 -50.350  15.369  1.00  0.00     0.166 HD
ENDBRANCH   5   6
ENDBRANCH   2   5
BRANCH   1  13
HETATM   13  C   UNL     1     -42.381 -54.047  13.248  1.00  0.00     0.084 C 
HETATM   14  C   UNL     1     -42.309 -54.747  14.610  1.00  0.00     0.025 C 
HETATM   15  C   UNL     1     -41.435 -53.997  15.617  1.00  0.00     0.006 C 
HETATM   16  C   UNL     1     -40.032 -53.686  15.078  1.00  0.00    -0.019 C 
HETATM   17  C   UNL     1     -39.167 -54.948  14.997  1.00  0.00     0.010 C 
HETATM   18  C   UNL     1     -40.117 -52.967  13.724  1.00  0.00     0.006 C 
HETATM   19  C   UNL     1     -40.988 -53.705  12.707  1.00  0.00     0.025 C 
ENDBRANCH   1  13
TORSDOF 3
ENDMDL
