MODEL 1
REMARK VINA RESULT:      -6.2      0.000      0.000
REMARK  8 active torsions:
REMARK  status: ('A' for Active; 'I' for Inactive)
REMARK    1  A    between atoms: C_2  and  O_3 
REMARK    2  A    between atoms: C_2  and  C_4 
REMARK    3  A    between atoms: C_4  and  C_5 
REMARK    4  A    between atoms: C_5  and  C_7 
REMARK    5  A    between atoms: C_7  and  N_8 
REMARK       I    between atoms: N_8  and  C_9 
REMARK    6  A    between atoms: C_9  and  C_11 
REMARK    7  A    between atoms: C_11  and  C_12 
REMARK    8  A    between atoms: C_15  and  C_18 
ROOT
HETATM    1  N   UNL     1     -41.262 -51.667  11.409  1.00  0.00    -0.360 N 
HETATM    2  C   UNL     1     -40.120 -50.992  11.779  1.00  0.00     0.223 C 
HETATM    3  O   UNL     1     -39.332 -51.413  12.624  1.00  0.00    -0.273 OA
HETATM    4  H   UNL     1     -41.844 -51.282  10.674  1.00  0.00     0.162 HD
ENDROOT
BRANCH   2   5
HETATM    5  C   UNL     1     -39.898 -49.680  11.052  1.00  0.00     0.160 C 
BRANCH   5   6
HETATM    6  C   UNL     1     -41.104 -48.805  11.116  1.00  0.00     0.025 A 
HETATM    7  C   UNL     1     -41.701 -48.307  12.258  1.00  0.00     0.077 A 
HETATM    8  S   UNL     1     -43.082 -47.388  11.852  1.00  0.00    -0.086 SA
HETATM    9  C   UNL     1     -42.817 -47.727  10.177  1.00  0.00     0.058 A 
HETATM   10  N   UNL     1     -41.746 -48.461   9.933  1.00  0.00    -0.356 N 
ATOM     11  HN  UNL     1     -41.433 -48.738   9.002  1.00  0.00     0.166 HD
BRANCH   9  12
HETATM   12  C   UNL     1     -43.785 -47.225   9.105  1.00  0.00    -0.002 C 
HETATM   13  C   UNL     1     -43.691 -45.694   8.950  1.00  0.00     0.021 C 
HETATM   14  C   UNL     1     -43.440 -47.860   7.740  1.00  0.00     0.021 C 
HETATM   15  C   UNL     1     -45.230 -47.622   9.459  1.00  0.00     0.021 C 
ENDBRANCH   9  12
ENDBRANCH   5   6
ENDBRANCH   2   5
BRANCH   1  16
HETATM   16  C   UNL     1     -41.635 -52.940  11.994  1.00  0.00     0.126 C 
BRANCH  16  17
HETATM   17  C   UNL     1     -42.772 -52.805  13.026  1.00  0.00     0.002 C 
HETATM   18  C   UNL     1     -42.329 -53.430  14.352  1.00  0.00     0.011 C 
BRANCH  17  19
HETATM   19  C   UNL     1     -44.067 -53.453  12.492  1.00  0.00     0.037 C 
BRANCH  19  20
HETATM   20  C   UNL     1     -45.375 -52.743  12.865  1.00  0.00     0.114 C 
HETATM   21  C   UNL     1     -45.179 -51.302  13.317  1.00  0.00     0.039 C 
BRANCH  20  22
HETATM   22  O   UNL     1     -46.224 -52.746  11.715  1.00  0.00    -0.396 OA
HETATM   23  H   UNL     1     -45.920 -52.042  11.116  1.00  0.00     0.210 HD
ENDBRANCH  20  22
ENDBRANCH  19  20
ENDBRANCH  17  19
ENDBRANCH  16  17
ENDBRANCH   1  16
TORSDOF 8
ENDMDL
MODEL 2
REMARK VINA RESULT:      -5.9      2.349      3.026
REMARK  8 active torsions:
REMARK  status: ('A' for Active; 'I' for Inactive)
REMARK    1  A    between atoms: C_2  and  O_3 
REMARK    2  A    between atoms: C_2  and  C_4 
REMARK    3  A    between atoms: C_4  and  C_5 
REMARK    4  A    between atoms: C_5  and  C_7 
REMARK    5  A    between atoms: C_7  and  N_8 
REMARK       I    between atoms: N_8  and  C_9 
REMARK    6  A    between atoms: C_9  and  C_11 
REMARK    7  A    between atoms: C_11  and  C_12 
REMARK    8  A    between atoms: C_15  and  C_18 
ROOT
HETATM    1  N   UNL     1     -43.841 -50.102  14.699  1.00  0.00    -0.360 N 
HETATM    2  C   UNL     1     -43.054 -49.707  13.639  1.00  0.00     0.223 C 
HETATM    3  O   UNL     1     -42.829 -50.421  12.664  1.00  0.00    -0.273 OA
HETATM    4  H   UNL     1     -44.020 -49.445  15.451  1.00  0.00     0.162 HD
ENDROOT
BRANCH   2   5
HETATM    5  C   UNL     1     -42.488 -48.306  13.762  1.00  0.00     0.160 C 
BRANCH   5   6
HETATM    6  C   UNL     1     -42.374 -47.639  12.433  1.00  0.00     0.025 A 
HETATM    7  C   UNL     1     -41.341 -46.829  12.003  1.00  0.00     0.077 A 
HETATM    8  S   UNL     1     -41.658 -46.253  10.427  1.00  0.00    -0.086 SA
HETATM    9  C   UNL     1     -43.167 -47.098  10.419  1.00  0.00     0.058 A 
HETATM   10  N   UNL     1     -43.408 -47.791  11.517  1.00  0.00    -0.356 N 
ATOM     11  HN  UNL     1     -44.240 -48.361  11.671  1.00  0.00     0.166 HD
BRANCH   9  12
HETATM   12  C   UNL     1     -44.124 -46.998   9.231  1.00  0.00    -0.002 C 
HETATM   13  C   UNL     1     -45.482 -47.648   9.560  1.00  0.00     0.021 C 
HETATM   14  C   UNL     1     -44.381 -45.516   8.881  1.00  0.00     0.021 C 
HETATM   15  C   UNL     1     -43.512 -47.677   7.991  1.00  0.00     0.021 C 
ENDBRANCH   9  12
ENDBRANCH   5   6
ENDBRANCH   2   5
BRANCH   1  16
HETATM   16  C   UNL     1     -44.470 -51.407  14.753  1.00  0.00     0.126 C 
BRANCH  16  17
HETATM   17  C   UNL     1     -45.814 -51.448  13.999  1.00  0.00     0.002 C 
HETATM   18  C   UNL     1     -46.958 -51.548  15.012  1.00  0.00     0.011 C 
BRANCH  17  19
HETATM   19  C   UNL     1     -45.836 -52.618  12.993  1.00  0.00     0.037 C 
BRANCH  19  20
HETATM   20  C   UNL     1     -44.869 -53.772  13.285  1.00  0.00     0.114 C 
HETATM   21  C   UNL     1     -45.549 -55.007  13.860  1.00  0.00     0.039 C 
BRANCH  20  22
HETATM   22  O   UNL     1     -44.228 -54.135  12.061  1.00  0.00    -0.396 OA
HETATM   23  H   UNL     1     -43.266 -54.069  12.195  1.00  0.00     0.210 HD
ENDBRANCH  20  22
ENDBRANCH  19  20
ENDBRANCH  17  19
ENDBRANCH  16  17
ENDBRANCH   1  16
TORSDOF 8
ENDMDL
MODEL 3
REMARK VINA RESULT:      -5.6      2.765      6.104
REMARK  8 active torsions:
REMARK  status: ('A' for Active; 'I' for Inactive)
REMARK    1  A    between atoms: C_2  and  O_3 
REMARK    2  A    between atoms: C_2  and  C_4 
REMARK    3  A    between atoms: C_4  and  C_5 
REMARK    4  A    between atoms: C_5  and  C_7 
REMARK    5  A    between atoms: C_7  and  N_8 
REMARK       I    between atoms: N_8  and  C_9 
REMARK    6  A    between atoms: C_9  and  C_11 
REMARK    7  A    between atoms: C_11  and  C_12 
REMARK    8  A    between atoms: C_15  and  C_18 
ROOT
HETATM    1  N   UNL     1     -40.790 -49.097  11.011  1.00  0.00    -0.360 N 
HETATM    2  C   UNL     1     -41.218 -49.896  12.048  1.00  0.00     0.223 C 
HETATM    3  O   UNL     1     -41.526 -49.457  13.154  1.00  0.00    -0.273 OA
HETATM    4  H   UNL     1     -40.594 -49.521  10.111  1.00  0.00     0.162 HD
ENDROOT
BRANCH   2   5
HETATM    5  C   UNL     1     -41.293 -51.374  11.716  1.00  0.00     0.160 C 
BRANCH   5   6
HETATM    6  C   UNL     1     -42.250 -52.091  12.607  1.00  0.00     0.025 A 
HETATM    7  C   UNL     1     -42.009 -53.259  13.304  1.00  0.00     0.077 A 
HETATM    8  S   UNL     1     -43.408 -53.735  14.160  1.00  0.00    -0.086 SA
HETATM    9  C   UNL     1     -44.261 -52.369  13.532  1.00  0.00     0.058 A 
HETATM   10  N   UNL     1     -43.537 -51.588  12.750  1.00  0.00    -0.356 N 
ATOM     11  HN  UNL     1     -43.877 -50.732  12.312  1.00  0.00     0.166 HD
BRANCH   9  12
HETATM   12  C   UNL     1     -45.738 -52.140  13.855  1.00  0.00    -0.002 C 
HETATM   13  C   UNL     1     -46.410 -53.446  14.320  1.00  0.00     0.021 C 
HETATM   14  C   UNL     1     -45.877 -51.105  14.993  1.00  0.00     0.021 C 
HETATM   15  C   UNL     1     -46.477 -51.588  12.621  1.00  0.00     0.021 C 
ENDBRANCH   9  12
ENDBRANCH   5   6
ENDBRANCH   2   5
BRANCH   1  16
HETATM   16  C   UNL     1     -40.661 -47.659  11.143  1.00  0.00     0.126 C 
BRANCH  16  17
HETATM   17  C   UNL     1     -41.904 -46.904  10.633  1.00  0.00     0.002 C 
HETATM   18  C   UNL     1     -42.744 -46.448  11.830  1.00  0.00     0.011 C 
BRANCH  17  19
HETATM   19  C   UNL     1     -42.718 -47.789   9.666  1.00  0.00     0.037 C 
BRANCH  19  20
HETATM   20  C   UNL     1     -43.452 -47.051   8.540  1.00  0.00     0.114 C 
HETATM   21  C   UNL     1     -44.826 -46.534   8.944  1.00  0.00     0.039 C 
BRANCH  20  22
HETATM   22  O   UNL     1     -42.648 -45.940   8.139  1.00  0.00    -0.396 OA
HETATM   23  H   UNL     1     -42.599 -45.320   8.888  1.00  0.00     0.210 HD
ENDBRANCH  20  22
ENDBRANCH  19  20
ENDBRANCH  17  19
ENDBRANCH  16  17
ENDBRANCH   1  16
TORSDOF 8
ENDMDL
MODEL 4
REMARK VINA RESULT:      -5.6      3.782      5.172
REMARK  8 active torsions:
REMARK  status: ('A' for Active; 'I' for Inactive)
REMARK    1  A    between atoms: C_2  and  O_3 
REMARK    2  A    between atoms: C_2  and  C_4 
REMARK    3  A    between atoms: C_4  and  C_5 
REMARK    4  A    between atoms: C_5  and  C_7 
REMARK    5  A    between atoms: C_7  and  N_8 
REMARK       I    between atoms: N_8  and  C_9 
REMARK    6  A    between atoms: C_9  and  C_11 
REMARK    7  A    between atoms: C_11  and  C_12 
REMARK    8  A    between atoms: C_15  and  C_18 
ROOT
HETATM    1  N   UNL     1     -43.384 -52.813  15.113  1.00  0.00    -0.360 N 
HETATM    2  C   UNL     1     -42.941 -53.785  14.243  1.00  0.00     0.223 C 
HETATM    3  O   UNL     1     -43.686 -54.610  13.719  1.00  0.00    -0.273 OA
HETATM    4  H   UNL     1     -42.721 -52.137  15.475  1.00  0.00     0.162 HD
ENDROOT
BRANCH   2   5
HETATM    5  C   UNL     1     -41.450 -53.753  13.968  1.00  0.00     0.160 C 
BRANCH   5   6
HETATM    6  C   UNL     1     -41.047 -52.504  13.260  1.00  0.00     0.025 A 
HETATM    7  C   UNL     1     -41.756 -51.854  12.269  1.00  0.00     0.077 A 
HETATM    8  S   UNL     1     -40.890 -50.488  11.720  1.00  0.00    -0.086 SA
HETATM    9  C   UNL     1     -39.608 -50.857  12.821  1.00  0.00     0.058 A 
HETATM   10  N   UNL     1     -39.825 -51.921  13.572  1.00  0.00    -0.356 N 
ATOM     11  HN  UNL     1     -39.182 -52.268  14.285  1.00  0.00     0.166 HD
BRANCH   9  12
HETATM   12  C   UNL     1     -38.334 -50.012  12.864  1.00  0.00    -0.002 C 
HETATM   13  C   UNL     1     -37.510 -50.188  11.574  1.00  0.00     0.021 C 
HETATM   14  C   UNL     1     -38.695 -48.516  12.995  1.00  0.00     0.021 C 
HETATM   15  C   UNL     1     -37.476 -50.399  14.083  1.00  0.00     0.021 C 
ENDBRANCH   9  12
ENDBRANCH   5   6
ENDBRANCH   2   5
BRANCH   1  16
HETATM   16  C   UNL     1     -44.778 -52.688  15.490  1.00  0.00     0.126 C 
BRANCH  16  17
HETATM   17  C   UNL     1     -45.422 -51.393  14.955  1.00  0.00     0.002 C 
HETATM   18  C   UNL     1     -46.844 -51.270  15.509  1.00  0.00     0.011 C 
BRANCH  17  19
HETATM   19  C   UNL     1     -45.404 -51.376  13.412  1.00  0.00     0.037 C 
BRANCH  19  20
HETATM   20  C   UNL     1     -46.487 -52.213  12.720  1.00  0.00     0.114 C 
HETATM   21  C   UNL     1     -47.101 -51.532  11.505  1.00  0.00     0.039 C 
BRANCH  20  22
HETATM   22  O   UNL     1     -45.896 -53.445  12.301  1.00  0.00    -0.396 OA
HETATM   23  H   UNL     1     -45.042 -53.240  11.883  1.00  0.00     0.210 HD
ENDBRANCH  20  22
ENDBRANCH  19  20
ENDBRANCH  17  19
ENDBRANCH  16  17
ENDBRANCH   1  16
TORSDOF 8
ENDMDL
MODEL 5
REMARK VINA RESULT:      -5.6      1.814      2.701
REMARK  8 active torsions:
REMARK  status: ('A' for Active; 'I' for Inactive)
REMARK    1  A    between atoms: C_2  and  O_3 
REMARK    2  A    between atoms: C_2  and  C_4 
REMARK    3  A    between atoms: C_4  and  C_5 
REMARK    4  A    between atoms: C_5  and  C_7 
REMARK    5  A    between atoms: C_7  and  N_8 
REMARK       I    between atoms: N_8  and  C_9 
REMARK    6  A    between atoms: C_9  and  C_11 
REMARK    7  A    between atoms: C_11  and  C_12 
REMARK    8  A    between atoms: C_15  and  C_18 
ROOT
HETATM    1  N   UNL     1     -42.247 -51.305  12.067  1.00  0.00    -0.360 N 
HETATM    2  C   UNL     1     -41.114 -50.643  12.487  1.00  0.00     0.223 C 
HETATM    3  O   UNL     1     -40.735 -50.633  13.656  1.00  0.00    -0.273 OA
HETATM    4  H   UNL     1     -42.478 -51.306  11.080  1.00  0.00     0.162 HD
ENDROOT
BRANCH   2   5
HETATM    5  C   UNL     1     -40.356 -49.927  11.386  1.00  0.00     0.160 C 
BRANCH   5   6
HETATM    6  C   UNL     1     -41.011 -48.640  11.014  1.00  0.00     0.025 A 
HETATM    7  C   UNL     1     -40.700 -47.386  11.504  1.00  0.00     0.077 A 
HETATM    8  S   UNL     1     -41.739 -46.212  10.827  1.00  0.00    -0.086 SA
HETATM    9  C   UNL     1     -42.559 -47.448   9.937  1.00  0.00     0.058 A 
HETATM   10  N   UNL     1     -42.069 -48.662  10.114  1.00  0.00    -0.356 N 
ATOM     11  HN  UNL     1     -42.421 -49.501   9.653  1.00  0.00     0.166 HD
BRANCH   9  12
HETATM   12  C   UNL     1     -43.765 -47.122   9.055  1.00  0.00    -0.002 C 
HETATM   13  C   UNL     1     -43.636 -47.792   7.673  1.00  0.00     0.021 C 
HETATM   14  C   UNL     1     -45.060 -47.642   9.715  1.00  0.00     0.021 C 
HETATM   15  C   UNL     1     -43.903 -45.597   8.879  1.00  0.00     0.021 C 
ENDBRANCH   9  12
ENDBRANCH   5   6
ENDBRANCH   2   5
BRANCH   1  16
HETATM   16  C   UNL     1     -43.095 -52.046  12.979  1.00  0.00     0.126 C 
BRANCH  16  17
HETATM   17  C   UNL     1     -43.090 -53.560  12.692  1.00  0.00     0.002 C 
HETATM   18  C   UNL     1     -44.435 -54.159  13.115  1.00  0.00     0.011 C 
BRANCH  17  19
HETATM   19  C   UNL     1     -41.908 -54.245  13.410  1.00  0.00     0.037 C 
BRANCH  19  20
HETATM   20  C   UNL     1     -41.695 -53.850  14.876  1.00  0.00     0.114 C 
HETATM   21  C   UNL     1     -41.765 -55.025  15.841  1.00  0.00     0.039 C 
BRANCH  20  22
HETATM   22  O   UNL     1     -40.404 -53.246  14.990  1.00  0.00    -0.396 OA
HETATM   23  H   UNL     1     -40.306 -52.919  15.901  1.00  0.00     0.210 HD
ENDBRANCH  20  22
ENDBRANCH  19  20
ENDBRANCH  17  19
ENDBRANCH  16  17
ENDBRANCH   1  16
TORSDOF 8
ENDMDL
MODEL 6
REMARK VINA RESULT:      -5.5      3.639      6.397
REMARK  8 active torsions:
REMARK  status: ('A' for Active; 'I' for Inactive)
REMARK    1  A    between atoms: C_2  and  O_3 
REMARK    2  A    between atoms: C_2  and  C_4 
REMARK    3  A    between atoms: C_4  and  C_5 
REMARK    4  A    between atoms: C_5  and  C_7 
REMARK    5  A    between atoms: C_7  and  N_8 
REMARK       I    between atoms: N_8  and  C_9 
REMARK    6  A    between atoms: C_9  and  C_11 
REMARK    7  A    between atoms: C_11  and  C_12 
REMARK    8  A    between atoms: C_15  and  C_18 
ROOT
HETATM    1  N   UNL     1     -40.009 -50.425  11.396  1.00  0.00    -0.360 N 
HETATM    2  C   UNL     1     -40.871 -51.046  12.273  1.00  0.00     0.223 C 
HETATM    3  O   UNL     1     -41.210 -50.554  13.347  1.00  0.00    -0.273 OA
HETATM    4  H   UNL     1     -39.806 -50.869  10.508  1.00  0.00     0.162 HD
ENDROOT
BRANCH   2   5
HETATM    5  C   UNL     1     -41.383 -52.394  11.804  1.00  0.00     0.160 C 
BRANCH   5   6
HETATM    6  C   UNL     1     -42.483 -52.898  12.676  1.00  0.00     0.025 A 
HETATM    7  C   UNL     1     -42.497 -54.087  13.380  1.00  0.00     0.077 A 
HETATM    8  S   UNL     1     -43.980 -54.267  14.207  1.00  0.00    -0.086 SA
HETATM    9  C   UNL     1     -44.528 -52.760  13.559  1.00  0.00     0.058 A 
HETATM   10  N   UNL     1     -43.645 -52.146  12.791  1.00  0.00    -0.356 N 
ATOM     11  HN  UNL     1     -43.797 -51.241  12.345  1.00  0.00     0.166 HD
BRANCH   9  12
HETATM   12  C   UNL     1     -45.934 -52.237  13.851  1.00  0.00    -0.002 C 
HETATM   13  C   UNL     1     -46.826 -53.348  14.439  1.00  0.00     0.021 C 
HETATM   14  C   UNL     1     -45.868 -51.088  14.880  1.00  0.00     0.021 C 
HETATM   15  C   UNL     1     -46.577 -51.683  12.565  1.00  0.00     0.021 C 
ENDBRANCH   9  12
ENDBRANCH   5   6
ENDBRANCH   2   5
BRANCH   1  16
HETATM   16  C   UNL     1     -39.422 -49.129  11.674  1.00  0.00     0.126 C 
BRANCH  16  17
HETATM   17  C   UNL     1     -37.948 -49.229  12.115  1.00  0.00     0.002 C 
HETATM   18  C   UNL     1     -37.400 -50.607  11.733  1.00  0.00     0.011 C 
BRANCH  17  19
HETATM   19  C   UNL     1     -37.815 -48.960  13.629  1.00  0.00     0.037 C 
BRANCH  19  20
HETATM   20  C   UNL     1     -37.571 -50.192  14.510  1.00  0.00     0.114 C 
HETATM   21  C   UNL     1     -36.567 -49.951  15.629  1.00  0.00     0.039 C 
BRANCH  20  22
HETATM   22  O   UNL     1     -38.818 -50.575  15.093  1.00  0.00    -0.396 OA
HETATM   23  H   UNL     1     -39.522 -50.383  14.449  1.00  0.00     0.210 HD
ENDBRANCH  20  22
ENDBRANCH  19  20
ENDBRANCH  17  19
ENDBRANCH  16  17
ENDBRANCH   1  16
TORSDOF 8
ENDMDL
MODEL 7
REMARK VINA RESULT:      -5.5      3.260      5.709
REMARK  8 active torsions:
REMARK  status: ('A' for Active; 'I' for Inactive)
REMARK    1  A    between atoms: C_2  and  O_3 
REMARK    2  A    between atoms: C_2  and  C_4 
REMARK    3  A    between atoms: C_4  and  C_5 
REMARK    4  A    between atoms: C_5  and  C_7 
REMARK    5  A    between atoms: C_7  and  N_8 
REMARK       I    between atoms: N_8  and  C_9 
REMARK    6  A    between atoms: C_9  and  C_11 
REMARK    7  A    between atoms: C_11  and  C_12 
REMARK    8  A    between atoms: C_15  and  C_18 
ROOT
HETATM    1  N   UNL     1     -39.549 -52.245  13.926  1.00  0.00    -0.360 N 
HETATM    2  C   UNL     1     -40.369 -53.153  13.292  1.00  0.00     0.223 C 
HETATM    3  O   UNL     1     -40.583 -53.136  12.081  1.00  0.00    -0.273 OA
HETATM    4  H   UNL     1     -39.384 -52.344  14.921  1.00  0.00     0.162 HD
ENDROOT
BRANCH   2   5
HETATM    5  C   UNL     1     -40.988 -54.192  14.207  1.00  0.00     0.160 C 
BRANCH   5   6
HETATM    6  C   UNL     1     -42.468 -54.037  14.295  1.00  0.00     0.025 A 
HETATM    7  C   UNL     1     -43.379 -55.015  14.643  1.00  0.00     0.077 A 
HETATM    8  S   UNL     1     -44.969 -54.396  14.568  1.00  0.00    -0.086 SA
HETATM    9  C   UNL     1     -44.351 -52.865  14.052  1.00  0.00     0.058 A 
HETATM   10  N   UNL     1     -43.034 -52.811  13.967  1.00  0.00    -0.356 N 
ATOM     11  HN  UNL     1     -42.505 -51.982  13.697  1.00  0.00     0.166 HD
BRANCH   9  12
HETATM   12  C   UNL     1     -45.289 -51.708  13.706  1.00  0.00    -0.002 C 
HETATM   13  C   UNL     1     -44.494 -50.473  13.241  1.00  0.00     0.021 C 
HETATM   14  C   UNL     1     -46.236 -52.120  12.558  1.00  0.00     0.021 C 
HETATM   15  C   UNL     1     -46.156 -51.338  14.924  1.00  0.00     0.021 C 
ENDBRANCH   9  12
ENDBRANCH   5   6
ENDBRANCH   2   5
BRANCH   1  16
HETATM   16  C   UNL     1     -38.870 -51.183  13.212  1.00  0.00     0.126 C 
BRANCH  16  17
HETATM   17  C   UNL     1     -39.447 -49.791  13.534  1.00  0.00     0.002 C 
HETATM   18  C   UNL     1     -40.714 -49.952  14.379  1.00  0.00     0.011 C 
BRANCH  17  19
HETATM   19  C   UNL     1     -39.722 -49.004  12.235  1.00  0.00     0.037 C 
BRANCH  19  20
HETATM   20  C   UNL     1     -40.928 -49.471  11.410  1.00  0.00     0.114 C 
HETATM   21  C   UNL     1     -41.892 -48.350  11.050  1.00  0.00     0.039 C 
BRANCH  20  22
HETATM   22  O   UNL     1     -40.439 -50.056  10.201  1.00  0.00    -0.396 OA
HETATM   23  H   UNL     1     -40.053 -49.345   9.660  1.00  0.00     0.210 HD
ENDBRANCH  20  22
ENDBRANCH  19  20
ENDBRANCH  17  19
ENDBRANCH  16  17
ENDBRANCH   1  16
TORSDOF 8
ENDMDL
MODEL 8
REMARK VINA RESULT:      -5.4      2.515      3.542
REMARK  8 active torsions:
REMARK  status: ('A' for Active; 'I' for Inactive)
REMARK    1  A    between atoms: C_2  and  O_3 
REMARK    2  A    between atoms: C_2  and  C_4 
REMARK    3  A    between atoms: C_4  and  C_5 
REMARK    4  A    between atoms: C_5  and  C_7 
REMARK    5  A    between atoms: C_7  and  N_8 
REMARK       I    between atoms: N_8  and  C_9 
REMARK    6  A    between atoms: C_9  and  C_11 
REMARK    7  A    between atoms: C_11  and  C_12 
REMARK    8  A    between atoms: C_15  and  C_18 
ROOT
HETATM    1  N   UNL     1     -43.529 -50.435  12.619  1.00  0.00    -0.360 N 
HETATM    2  C   UNL     1     -42.225 -50.031  12.806  1.00  0.00     0.223 C 
HETATM    3  O   UNL     1     -41.697 -49.948  13.913  1.00  0.00    -0.273 OA
HETATM    4  H   UNL     1     -43.887 -50.521  11.675  1.00  0.00     0.162 HD
ENDROOT
BRANCH   2   5
HETATM    5  C   UNL     1     -41.478 -49.701  11.528  1.00  0.00     0.160 C 
BRANCH   5   6
HETATM    6  C   UNL     1     -41.713 -48.291  11.102  1.00  0.00     0.025 A 
HETATM    7  C   UNL     1     -42.775 -47.823  10.353  1.00  0.00     0.077 A 
HETATM    8  S   UNL     1     -42.606 -46.147  10.070  1.00  0.00    -0.086 SA
HETATM    9  C   UNL     1     -41.113 -46.148  10.943  1.00  0.00     0.058 A 
HETATM   10  N   UNL     1     -40.773 -47.324  11.439  1.00  0.00    -0.356 N 
ATOM     11  HN  UNL     1     -39.936 -47.499  11.994  1.00  0.00     0.166 HD
BRANCH   9  12
HETATM   12  C   UNL     1     -40.273 -44.877  11.078  1.00  0.00    -0.002 C 
HETATM   13  C   UNL     1     -41.173 -43.630  11.189  1.00  0.00     0.021 C 
HETATM   14  C   UNL     1     -39.404 -44.949  12.352  1.00  0.00     0.021 C 
HETATM   15  C   UNL     1     -39.329 -44.728   9.869  1.00  0.00     0.021 C 
ENDBRANCH   9  12
ENDBRANCH   5   6
ENDBRANCH   2   5
BRANCH   1  16
HETATM   16  C   UNL     1     -44.395 -50.794  13.725  1.00  0.00     0.126 C 
BRANCH  16  17
HETATM   17  C   UNL     1     -45.762 -51.329  13.256  1.00  0.00     0.002 C 
HETATM   18  C   UNL     1     -46.712 -51.408  14.455  1.00  0.00     0.011 C 
BRANCH  17  19
HETATM   19  C   UNL     1     -45.600 -52.697  12.562  1.00  0.00     0.037 C 
BRANCH  19  20
HETATM   20  C   UNL     1     -44.625 -53.675  13.228  1.00  0.00     0.114 C 
HETATM   21  C   UNL     1     -45.283 -54.961  13.709  1.00  0.00     0.039 C 
BRANCH  20  22
HETATM   22  O   UNL     1     -43.614 -54.012  12.275  1.00  0.00    -0.396 OA
HETATM   23  H   UNL     1     -42.840 -53.448  12.447  1.00  0.00     0.210 HD
ENDBRANCH  20  22
ENDBRANCH  19  20
ENDBRANCH  17  19
ENDBRANCH  16  17
ENDBRANCH   1  16
TORSDOF 8
ENDMDL
MODEL 9
REMARK VINA RESULT:      -5.4      3.828      5.875
REMARK  8 active torsions:
REMARK  status: ('A' for Active; 'I' for Inactive)
REMARK    1  A    between atoms: C_2  and  O_3 
REMARK    2  A    between atoms: C_2  and  C_4 
REMARK    3  A    between atoms: C_4  and  C_5 
REMARK    4  A    between atoms: C_5  and  C_7 
REMARK    5  A    between atoms: C_7  and  N_8 
REMARK       I    between atoms: N_8  and  C_9 
REMARK    6  A    between atoms: C_9  and  C_11 
REMARK    7  A    between atoms: C_11  and  C_12 
REMARK    8  A    between atoms: C_15  and  C_18 
ROOT
HETATM    1  N   UNL     1     -45.545 -53.911  14.997  1.00  0.00    -0.360 N 
HETATM    2  C   UNL     1     -44.705 -54.520  14.090  1.00  0.00     0.223 C 
HETATM    3  O   UNL     1     -44.989 -54.666  12.903  1.00  0.00    -0.273 OA
HETATM    4  H   UNL     1     -45.229 -53.785  15.952  1.00  0.00     0.162 HD
ENDROOT
BRANCH   2   5
HETATM    5  C   UNL     1     -43.387 -54.993  14.670  1.00  0.00     0.160 C 
BRANCH   5   6
HETATM    6  C   UNL     1     -42.270 -54.067  14.325  1.00  0.00     0.025 A 
HETATM    7  C   UNL     1     -40.919 -54.310  14.483  1.00  0.00     0.077 A 
HETATM    8  S   UNL     1     -40.012 -52.950  13.992  1.00  0.00    -0.086 SA
HETATM    9  C   UNL     1     -41.474 -52.105  13.619  1.00  0.00     0.058 A 
HETATM   10  N   UNL     1     -42.574 -52.807  13.824  1.00  0.00    -0.356 N 
ATOM     11  HN  UNL     1     -43.519 -52.470  13.639  1.00  0.00     0.166 HD
BRANCH   9  12
HETATM   12  C   UNL     1     -41.450 -50.658  13.126  1.00  0.00    -0.002 C 
HETATM   13  C   UNL     1     -40.748 -50.553  11.758  1.00  0.00     0.021 C 
HETATM   14  C   UNL     1     -42.891 -50.131  12.961  1.00  0.00     0.021 C 
HETATM   15  C   UNL     1     -40.730 -49.756  14.147  1.00  0.00     0.021 C 
ENDBRANCH   9  12
ENDBRANCH   5   6
ENDBRANCH   2   5
BRANCH   1  16
HETATM   16  C   UNL     1     -46.846 -53.393  14.622  1.00  0.00     0.126 C 
BRANCH  16  17
HETATM   17  C   UNL     1     -46.856 -51.858  14.489  1.00  0.00     0.002 C 
HETATM   18  C   UNL     1     -46.494 -51.473  13.051  1.00  0.00     0.011 C 
BRANCH  17  19
HETATM   19  C   UNL     1     -45.893 -51.218  15.512  1.00  0.00     0.037 C 
BRANCH  19  20
HETATM   20  C   UNL     1     -46.441 -51.050  16.934  1.00  0.00     0.114 C 
HETATM   21  C   UNL     1     -47.961 -50.994  17.000  1.00  0.00     0.039 C 
BRANCH  20  22
HETATM   22  O   UNL     1     -45.993 -52.160  17.716  1.00  0.00    -0.396 OA
HETATM   23  H   UNL     1     -46.034 -51.901  18.653  1.00  0.00     0.210 HD
ENDBRANCH  20  22
ENDBRANCH  19  20
ENDBRANCH  17  19
ENDBRANCH  16  17
ENDBRANCH   1  16
TORSDOF 8
ENDMDL
