MODEL 1
REMARK VINA RESULT:      -6.9      0.000      0.000
REMARK  5 active torsions:
REMARK  status: ('A' for Active; 'I' for Inactive)
REMARK    1  A    between atoms: N_4  and  C_5 
REMARK    2  A    between atoms: C_5  and  C_6 
REMARK    3  A    between atoms: C_6  and  O_7 
REMARK    4  A    between atoms: C_6  and  C_8 
REMARK    5  A    between atoms: C_8  and  N_9 
ROOT
HETATM    1  N   UNL     1     -41.614 -51.469  12.610  1.00  0.00    -0.339 N 
HETATM    2  C   UNL     1     -40.865 -52.553  12.241  1.00  0.00     0.184 A 
HETATM    3  N   UNL     1     -41.511 -53.679  12.437  1.00  0.00    -0.350 N 
ATOM      4  HN  UNL     1     -41.174 -54.626  12.264  1.00  0.00     0.166 HD
HETATM    5  C   UNL     1     -42.738 -53.305  12.925  1.00  0.00     0.060 A 
HETATM    6  C   UNL     1     -43.829 -54.105  13.293  1.00  0.00     0.039 A 
HETATM    7  C   UNL     1     -45.006 -53.502  13.778  1.00  0.00    -0.054 A 
HETATM    8  C   UNL     1     -46.149 -54.400  14.173  1.00  0.00     0.049 C 
HETATM    9  C   UNL     1     -45.090 -52.096  13.873  1.00  0.00    -0.054 A 
HETATM   10  C   UNL     1     -46.321 -51.387  14.375  1.00  0.00     0.049 C 
HETATM   11  C   UNL     1     -43.993 -51.288  13.504  1.00  0.00     0.039 A 
HETATM   12  C   UNL     1     -42.837 -51.922  13.039  1.00  0.00     0.062 A 
ENDROOT
BRANCH   1  13
HETATM   13  C   UNL     1     -41.156 -50.091  12.562  1.00  0.00     0.163 C 
BRANCH  13  14
HETATM   14  C   UNL     1     -41.339 -49.469  11.172  1.00  0.00     0.164 C 
BRANCH  14  15
HETATM   15  C   UNL     1     -41.234 -47.921  11.245  1.00  0.00     0.305 C 
BRANCH  15  16
HETATM   16  N   UNL     1     -42.402 -47.213  10.680  1.00  0.00     0.095 N 
HETATM   17  C   UNL     1     -42.728 -47.732   9.330  1.00  0.00     0.303 C 
HETATM   18  C   UNL     1     -43.921 -46.986   8.682  1.00  0.00     0.145 C 
HETATM   19  C   UNL     1     -45.255 -47.282   9.362  1.00  0.00     0.041 C 
HETATM   20  O   UNL     1     -43.666 -45.573   8.619  1.00  0.00    -0.383 OA
HETATM   21  C   UNL     1     -43.340 -45.023   9.900  1.00  0.00     0.198 C 
HETATM   22  C   UNL     1     -42.160 -45.754  10.558  1.00  0.00     0.298 C 
ENDBRANCH  15  16
ENDBRANCH  14  15
BRANCH  14  23
HETATM   23  O   UNL     1     -40.338 -50.006  10.296  1.00  0.00    -0.392 OA
HETATM   24  H   UNL     1     -39.768 -50.599  10.812  1.00  0.00     0.210 HD
ENDBRANCH  14  23
ENDBRANCH  13  14
ENDBRANCH   1  13
TORSDOF 5
ENDMDL
MODEL 2
REMARK VINA RESULT:      -6.5      2.076      3.228
REMARK  5 active torsions:
REMARK  status: ('A' for Active; 'I' for Inactive)
REMARK    1  A    between atoms: N_4  and  C_5 
REMARK    2  A    between atoms: C_5  and  C_6 
REMARK    3  A    between atoms: C_6  and  O_7 
REMARK    4  A    between atoms: C_6  and  C_8 
REMARK    5  A    between atoms: C_8  and  N_9 
ROOT
HETATM    1  N   UNL     1     -43.503 -52.917  13.424  1.00  0.00    -0.339 N 
HETATM    2  C   UNL     1     -44.246 -53.721  12.602  1.00  0.00     0.184 A 
HETATM    3  N   UNL     1     -45.519 -53.698  12.921  1.00  0.00    -0.350 N 
ATOM      4  HN  UNL     1     -46.279 -54.219  12.483  1.00  0.00     0.166 HD
HETATM    5  C   UNL     1     -45.606 -52.822  13.975  1.00  0.00     0.060 A 
HETATM    6  C   UNL     1     -46.734 -52.412  14.698  1.00  0.00     0.039 A 
HETATM    7  C   UNL     1     -46.592 -51.493  15.756  1.00  0.00    -0.054 A 
HETATM    8  C   UNL     1     -47.828 -51.090  16.515  1.00  0.00     0.049 C 
HETATM    9  C   UNL     1     -45.317 -50.975  16.072  1.00  0.00    -0.054 A 
HETATM   10  C   UNL     1     -45.095 -49.984  17.185  1.00  0.00     0.049 C 
HETATM   11  C   UNL     1     -44.178 -51.386  15.345  1.00  0.00     0.039 A 
HETATM   12  C   UNL     1     -44.358 -52.309  14.310  1.00  0.00     0.062 A 
ENDROOT
BRANCH   1  13
HETATM   13  C   UNL     1     -42.059 -52.772  13.356  1.00  0.00     0.163 C 
BRANCH  13  14
HETATM   14  C   UNL     1     -41.593 -52.271  11.984  1.00  0.00     0.164 C 
BRANCH  14  15
HETATM   15  C   UNL     1     -40.844 -50.916  12.121  1.00  0.00     0.305 C 
BRANCH  15  16
HETATM   16  N   UNL     1     -41.671 -49.737  11.785  1.00  0.00     0.095 N 
HETATM   17  C   UNL     1     -40.891 -48.755  10.995  1.00  0.00     0.303 C 
HETATM   18  C   UNL     1     -41.708 -47.483  10.660  1.00  0.00     0.145 C 
HETATM   19  C   UNL     1     -42.829 -47.737   9.655  1.00  0.00     0.041 C 
HETATM   20  O   UNL     1     -42.207 -46.866  11.858  1.00  0.00    -0.383 OA
HETATM   21  C   UNL     1     -42.966 -47.778  12.661  1.00  0.00     0.198 C 
HETATM   22  C   UNL     1     -42.169 -49.046  13.001  1.00  0.00     0.298 C 
ENDBRANCH  15  16
ENDBRANCH  14  15
BRANCH  14  23
HETATM   23  O   UNL     1     -40.742 -53.265  11.398  1.00  0.00    -0.392 OA
HETATM   24  H   UNL     1     -39.868 -52.867  11.246  1.00  0.00     0.210 HD
ENDBRANCH  14  23
ENDBRANCH  13  14
ENDBRANCH   1  13
TORSDOF 5
ENDMDL
MODEL 3
REMARK VINA RESULT:      -6.3      3.065      4.672
REMARK  5 active torsions:
REMARK  status: ('A' for Active; 'I' for Inactive)
REMARK    1  A    between atoms: N_4  and  C_5 
REMARK    2  A    between atoms: C_5  and  C_6 
REMARK    3  A    between atoms: C_6  and  O_7 
REMARK    4  A    between atoms: C_6  and  C_8 
REMARK    5  A    between atoms: C_8  and  N_9 
ROOT
HETATM    1  N   UNL     1     -43.377 -53.500  13.522  1.00  0.00    -0.339 N 
HETATM    2  C   UNL     1     -43.880 -53.213  12.282  1.00  0.00     0.184 A 
HETATM    3  N   UNL     1     -45.039 -52.601  12.358  1.00  0.00    -0.350 N 
ATOM      4  HN  UNL     1     -45.632 -52.295  11.586  1.00  0.00     0.166 HD
HETATM    5  C   UNL     1     -45.281 -52.461  13.702  1.00  0.00     0.060 A 
HETATM    6  C   UNL     1     -46.370 -51.866  14.352  1.00  0.00     0.039 A 
HETATM    7  C   UNL     1     -46.415 -51.836  15.760  1.00  0.00    -0.054 A 
HETATM    8  C   UNL     1     -47.611 -51.198  16.416  1.00  0.00     0.049 C 
HETATM    9  C   UNL     1     -45.354 -52.387  16.510  1.00  0.00    -0.054 A 
HETATM   10  C   UNL     1     -45.334 -52.381  18.016  1.00  0.00     0.049 C 
HETATM   11  C   UNL     1     -44.254 -52.988  15.859  1.00  0.00     0.039 A 
HETATM   12  C   UNL     1     -44.252 -53.010  14.460  1.00  0.00     0.062 A 
ENDROOT
BRANCH   1  13
HETATM   13  C   UNL     1     -42.139 -54.219  13.767  1.00  0.00     0.163 C 
BRANCH  13  14
HETATM   14  C   UNL     1     -40.960 -53.619  12.991  1.00  0.00     0.164 C 
BRANCH  14  15
HETATM   15  C   UNL     1     -40.512 -52.275  13.629  1.00  0.00     0.305 C 
BRANCH  15  16
HETATM   16  N   UNL     1     -39.972 -51.300  12.657  1.00  0.00     0.095 N 
HETATM   17  C   UNL     1     -39.003 -50.388  13.309  1.00  0.00     0.303 C 
HETATM   18  C   UNL     1     -38.445 -49.322  12.335  1.00  0.00     0.145 C 
HETATM   19  C   UNL     1     -37.518 -49.906  11.271  1.00  0.00     0.041 C 
HETATM   20  O   UNL     1     -39.513 -48.564  11.742  1.00  0.00    -0.383 OA
HETATM   21  C   UNL     1     -40.481 -49.402  11.100  1.00  0.00     0.198 C 
HETATM   22  C   UNL     1     -41.042 -50.468  12.054  1.00  0.00     0.298 C 
ENDBRANCH  15  16
ENDBRANCH  14  15
BRANCH  14  23
HETATM   23  O   UNL     1     -39.882 -54.565  12.992  1.00  0.00    -0.392 OA
HETATM   24  H   UNL     1     -39.365 -54.438  12.179  1.00  0.00     0.210 HD
ENDBRANCH  14  23
ENDBRANCH  13  14
ENDBRANCH   1  13
TORSDOF 5
ENDMDL
MODEL 4
REMARK VINA RESULT:      -6.3      1.851      2.345
REMARK  5 active torsions:
REMARK  status: ('A' for Active; 'I' for Inactive)
REMARK    1  A    between atoms: N_4  and  C_5 
REMARK    2  A    between atoms: C_5  and  C_6 
REMARK    3  A    between atoms: C_6  and  O_7 
REMARK    4  A    between atoms: C_6  and  C_8 
REMARK    5  A    between atoms: C_8  and  N_9 
ROOT
HETATM    1  N   UNL     1     -41.514 -51.876  12.996  1.00  0.00    -0.339 N 
HETATM    2  C   UNL     1     -41.837 -52.666  11.926  1.00  0.00     0.184 A 
HETATM    3  N   UNL     1     -43.124 -52.922  11.882  1.00  0.00    -0.350 N 
ATOM      4  HN  UNL     1     -43.620 -53.497  11.201  1.00  0.00     0.166 HD
HETATM    5  C   UNL     1     -43.658 -52.244  12.950  1.00  0.00     0.060 A 
HETATM    6  C   UNL     1     -44.993 -52.158  13.369  1.00  0.00     0.039 A 
HETATM    7  C   UNL     1     -45.320 -51.399  14.510  1.00  0.00    -0.054 A 
HETATM    8  C   UNL     1     -46.765 -51.344  14.932  1.00  0.00     0.049 C 
HETATM    9  C   UNL     1     -44.307 -50.714  15.215  1.00  0.00    -0.054 A 
HETATM   10  C   UNL     1     -44.588 -49.879  16.437  1.00  0.00     0.049 C 
HETATM   11  C   UNL     1     -42.961 -50.799  14.795  1.00  0.00     0.039 A 
HETATM   12  C   UNL     1     -42.673 -51.572  13.666  1.00  0.00     0.062 A 
ENDROOT
BRANCH   1  13
HETATM   13  C   UNL     1     -40.165 -51.466  13.345  1.00  0.00     0.163 C 
BRANCH  13  14
HETATM   14  C   UNL     1     -39.507 -50.640  12.232  1.00  0.00     0.164 C 
BRANCH  14  15
HETATM   15  C   UNL     1     -39.360 -49.155  12.667  1.00  0.00     0.305 C 
BRANCH  15  16
HETATM   16  N   UNL     1     -40.457 -48.282  12.197  1.00  0.00     0.095 N 
HETATM   17  C   UNL     1     -41.094 -48.844  10.983  1.00  0.00     0.303 C 
HETATM   18  C   UNL     1     -42.221 -47.937  10.432  1.00  0.00     0.145 C 
HETATM   19  C   UNL     1     -43.454 -47.897  11.331  1.00  0.00     0.041 C 
HETATM   20  O   UNL     1     -41.726 -46.615  10.161  1.00  0.00    -0.383 OA
HETATM   21  C   UNL     1     -41.095 -46.028  11.305  1.00  0.00     0.198 C 
HETATM   22  C   UNL     1     -39.976 -46.918  11.865  1.00  0.00     0.298 C 
ENDBRANCH  15  16
ENDBRANCH  14  15
BRANCH  14  23
HETATM   23  O   UNL     1     -38.226 -51.211  11.935  1.00  0.00    -0.392 OA
HETATM   24  H   UNL     1     -38.208 -52.118  12.283  1.00  0.00     0.210 HD
ENDBRANCH  14  23
ENDBRANCH  13  14
ENDBRANCH   1  13
TORSDOF 5
ENDMDL
MODEL 5
REMARK VINA RESULT:      -6.3      2.958      3.882
REMARK  5 active torsions:
REMARK  status: ('A' for Active; 'I' for Inactive)
REMARK    1  A    between atoms: N_4  and  C_5 
REMARK    2  A    between atoms: C_5  and  C_6 
REMARK    3  A    between atoms: C_6  and  O_7 
REMARK    4  A    between atoms: C_6  and  C_8 
REMARK    5  A    between atoms: C_8  and  N_9 
ROOT
HETATM    1  N   UNL     1     -40.355 -52.090  13.065  1.00  0.00    -0.339 N 
HETATM    2  C   UNL     1     -40.835 -51.356  12.015  1.00  0.00     0.184 A 
HETATM    3  N   UNL     1     -42.067 -51.694  11.709  1.00  0.00    -0.350 N 
ATOM      4  HN  UNL     1     -42.646 -51.316  10.959  1.00  0.00     0.166 HD
HETATM    5  C   UNL     1     -42.405 -52.665  12.618  1.00  0.00     0.060 A 
HETATM    6  C   UNL     1     -43.609 -53.368  12.759  1.00  0.00     0.039 A 
HETATM    7  C   UNL     1     -43.739 -54.337  13.774  1.00  0.00    -0.054 A 
HETATM    8  C   UNL     1     -45.047 -55.077  13.882  1.00  0.00     0.049 C 
HETATM    9  C   UNL     1     -42.664 -54.583  14.654  1.00  0.00    -0.054 A 
HETATM   10  C   UNL     1     -42.738 -55.599  15.765  1.00  0.00     0.049 C 
HETATM   11  C   UNL     1     -41.449 -53.877  14.514  1.00  0.00     0.039 A 
HETATM   12  C   UNL     1     -41.353 -52.932  13.488  1.00  0.00     0.062 A 
ENDROOT
BRANCH   1  13
HETATM   13  C   UNL     1     -39.008 -51.986  13.601  1.00  0.00     0.163 C 
BRANCH  13  14
HETATM   14  C   UNL     1     -38.147 -50.994  12.809  1.00  0.00     0.164 C 
BRANCH  14  15
HETATM   15  C   UNL     1     -37.819 -49.744  13.670  1.00  0.00     0.305 C 
BRANCH  15  16
HETATM   16  N   UNL     1     -38.796 -48.643  13.527  1.00  0.00     0.095 N 
HETATM   17  C   UNL     1     -39.048 -48.347  12.096  1.00  0.00     0.303 C 
HETATM   18  C   UNL     1     -40.034 -47.169  11.900  1.00  0.00     0.145 C 
HETATM   19  C   UNL     1     -41.464 -47.508  12.313  1.00  0.00     0.041 C 
HETATM   20  O   UNL     1     -39.560 -45.990  12.571  1.00  0.00    -0.383 OA
HETATM   21  C   UNL     1     -39.295 -46.225  13.959  1.00  0.00     0.198 C 
HETATM   22  C   UNL     1     -38.320 -47.393  14.170  1.00  0.00     0.298 C 
ENDBRANCH  15  16
ENDBRANCH  14  15
BRANCH  14  23
HETATM   23  O   UNL     1     -36.944 -51.659  12.399  1.00  0.00    -0.392 OA
HETATM   24  H   UNL     1     -36.265 -51.504  13.076  1.00  0.00     0.210 HD
ENDBRANCH  14  23
ENDBRANCH  13  14
ENDBRANCH   1  13
TORSDOF 5
ENDMDL
MODEL 6
REMARK VINA RESULT:      -6.2      2.610      6.864
REMARK  5 active torsions:
REMARK  status: ('A' for Active; 'I' for Inactive)
REMARK    1  A    between atoms: N_4  and  C_5 
REMARK    2  A    between atoms: C_5  and  C_6 
REMARK    3  A    between atoms: C_6  and  O_7 
REMARK    4  A    between atoms: C_6  and  C_8 
REMARK    5  A    between atoms: C_8  and  N_9 
ROOT
HETATM    1  N   UNL     1     -40.752 -50.431  12.198  1.00  0.00    -0.339 N 
HETATM    2  C   UNL     1     -39.545 -50.469  12.843  1.00  0.00     0.184 A 
HETATM    3  N   UNL     1     -38.903 -49.329  12.738  1.00  0.00    -0.350 N 
ATOM      4  HN  UNL     1     -37.980 -49.099  13.109  1.00  0.00     0.166 HD
HETATM    5  C   UNL     1     -39.742 -48.511  12.022  1.00  0.00     0.060 A 
HETATM    6  C   UNL     1     -39.563 -47.178  11.632  1.00  0.00     0.039 A 
HETATM    7  C   UNL     1     -40.566 -46.525  10.890  1.00  0.00    -0.054 A 
HETATM    8  C   UNL     1     -40.327 -45.095  10.481  1.00  0.00     0.049 C 
HETATM    9  C   UNL     1     -41.755 -47.210  10.557  1.00  0.00    -0.054 A 
HETATM   10  C   UNL     1     -42.870 -46.570   9.773  1.00  0.00     0.049 C 
HETATM   11  C   UNL     1     -41.938 -48.554  10.949  1.00  0.00     0.039 A 
HETATM   12  C   UNL     1     -40.915 -49.173  11.674  1.00  0.00     0.062 A 
ENDROOT
BRANCH   1  13
HETATM   13  C   UNL     1     -41.668 -51.553  12.090  1.00  0.00     0.163 C 
BRANCH  13  14
HETATM   14  C   UNL     1     -41.003 -52.880  12.476  1.00  0.00     0.164 C 
BRANCH  14  15
HETATM   15  C   UNL     1     -41.999 -53.787  13.251  1.00  0.00     0.305 C 
BRANCH  15  16
HETATM   16  N   UNL     1     -43.305 -53.148  13.521  1.00  0.00     0.095 N 
HETATM   17  C   UNL     1     -43.634 -53.214  14.965  1.00  0.00     0.303 C 
HETATM   18  C   UNL     1     -45.016 -52.595  15.286  1.00  0.00     0.145 C 
HETATM   19  C   UNL     1     -45.048 -51.077  15.120  1.00  0.00     0.041 C 
HETATM   20  O   UNL     1     -46.051 -53.229  14.516  1.00  0.00    -0.383 OA
HETATM   21  C   UNL     1     -45.777 -53.196  13.110  1.00  0.00     0.198 C 
HETATM   22  C   UNL     1     -44.407 -53.805  12.776  1.00  0.00     0.298 C 
ENDBRANCH  15  16
ENDBRANCH  14  15
BRANCH  14  23
HETATM   23  O   UNL     1     -40.551 -53.530  11.279  1.00  0.00    -0.392 OA
HETATM   24  H   UNL     1     -39.666 -53.894  11.447  1.00  0.00     0.210 HD
ENDBRANCH  14  23
ENDBRANCH  13  14
ENDBRANCH   1  13
TORSDOF 5
ENDMDL
MODEL 7
REMARK VINA RESULT:      -6.2      2.003      2.861
REMARK  5 active torsions:
REMARK  status: ('A' for Active; 'I' for Inactive)
REMARK    1  A    between atoms: N_4  and  C_5 
REMARK    2  A    between atoms: C_5  and  C_6 
REMARK    3  A    between atoms: C_6  and  O_7 
REMARK    4  A    between atoms: C_6  and  C_8 
REMARK    5  A    between atoms: C_8  and  N_9 
ROOT
HETATM    1  N   UNL     1     -41.846 -50.705  12.287  1.00  0.00    -0.339 N 
HETATM    2  C   UNL     1     -40.971 -51.641  11.807  1.00  0.00     0.184 A 
HETATM    3  N   UNL     1     -41.430 -52.861  11.964  1.00  0.00    -0.350 N 
ATOM      4  HN  UNL     1     -40.970 -53.735  11.711  1.00  0.00     0.166 HD
HETATM    5  C   UNL     1     -42.665 -52.705  12.543  1.00  0.00     0.060 A 
HETATM    6  C   UNL     1     -43.599 -53.679  12.919  1.00  0.00     0.039 A 
HETATM    7  C   UNL     1     -44.819 -53.289  13.507  1.00  0.00    -0.054 A 
HETATM    8  C   UNL     1     -45.789 -54.370  13.906  1.00  0.00     0.049 C 
HETATM    9  C   UNL     1     -45.103 -51.920  13.699  1.00  0.00    -0.054 A 
HETATM   10  C   UNL     1     -46.389 -51.434  14.314  1.00  0.00     0.049 C 
HETATM   11  C   UNL     1     -44.163 -50.935  13.322  1.00  0.00     0.039 A 
HETATM   12  C   UNL     1     -42.958 -51.361  12.753  1.00  0.00     0.062 A 
ENDROOT
BRANCH   1  13
HETATM   13  C   UNL     1     -41.600 -49.273  12.304  1.00  0.00     0.163 C 
BRANCH  13  14
HETATM   14  C   UNL     1     -42.264 -48.559  11.120  1.00  0.00     0.164 C 
BRANCH  14  15
HETATM   15  C   UNL     1     -42.522 -47.064  11.456  1.00  0.00     0.305 C 
BRANCH  15  16
HETATM   16  N   UNL     1     -41.289 -46.279  11.680  1.00  0.00     0.095 N 
HETATM   17  C   UNL     1     -41.451 -45.362  12.833  1.00  0.00     0.303 C 
HETATM   18  C   UNL     1     -40.196 -44.488  13.075  1.00  0.00     0.145 C 
HETATM   19  C   UNL     1     -39.000 -45.284  13.591  1.00  0.00     0.041 C 
HETATM   20  O   UNL     1     -39.859 -43.741  11.894  1.00  0.00    -0.383 OA
HETATM   21  C   UNL     1     -39.695 -44.583  10.748  1.00  0.00     0.198 C 
HETATM   22  C   UNL     1     -40.932 -45.459  10.496  1.00  0.00     0.298 C 
ENDBRANCH  15  16
ENDBRANCH  14  15
BRANCH  14  23
HETATM   23  O   UNL     1     -41.410 -48.682   9.974  1.00  0.00    -0.392 OA
HETATM   24  H   UNL     1     -41.182 -49.620   9.864  1.00  0.00     0.210 HD
ENDBRANCH  14  23
ENDBRANCH  13  14
ENDBRANCH   1  13
TORSDOF 5
ENDMDL
MODEL 8
REMARK VINA RESULT:      -6.1      3.151      7.525
REMARK  5 active torsions:
REMARK  status: ('A' for Active; 'I' for Inactive)
REMARK    1  A    between atoms: N_4  and  C_5 
REMARK    2  A    between atoms: C_5  and  C_6 
REMARK    3  A    between atoms: C_6  and  O_7 
REMARK    4  A    between atoms: C_6  and  C_8 
REMARK    5  A    between atoms: C_8  and  N_9 
ROOT
HETATM    1  N   UNL     1     -39.967 -50.180  12.703  1.00  0.00    -0.339 N 
HETATM    2  C   UNL     1     -39.460 -50.555  13.918  1.00  0.00     0.184 A 
HETATM    3  N   UNL     1     -39.000 -49.526  14.591  1.00  0.00    -0.350 N 
ATOM      4  HN  UNL     1     -38.556 -49.532  15.509  1.00  0.00     0.166 HD
HETATM    5  C   UNL     1     -39.247 -48.438  13.790  1.00  0.00     0.060 A 
HETATM    6  C   UNL     1     -38.972 -47.084  14.023  1.00  0.00     0.039 A 
HETATM    7  C   UNL     1     -39.313 -46.123  13.050  1.00  0.00    -0.054 A 
HETATM    8  C   UNL     1     -38.988 -44.681  13.336  1.00  0.00     0.049 C 
HETATM    9  C   UNL     1     -39.946 -46.526  11.854  1.00  0.00    -0.054 A 
HETATM   10  C   UNL     1     -40.344 -45.551  10.777  1.00  0.00     0.049 C 
HETATM   11  C   UNL     1     -40.224 -47.889  11.617  1.00  0.00     0.039 A 
HETATM   12  C   UNL     1     -39.859 -48.815  12.600  1.00  0.00     0.062 A 
ENDROOT
BRANCH   1  13
HETATM   13  C   UNL     1     -40.500 -51.096  11.710  1.00  0.00     0.163 C 
BRANCH  13  14
HETATM   14  C   UNL     1     -41.023 -52.392  12.342  1.00  0.00     0.164 C 
BRANCH  14  15
HETATM   15  C   UNL     1     -42.571 -52.349  12.478  1.00  0.00     0.305 C 
BRANCH  15  16
HETATM   16  N   UNL     1     -43.139 -53.492  13.224  1.00  0.00     0.095 N 
HETATM   17  C   UNL     1     -44.446 -53.133  13.822  1.00  0.00     0.303 C 
HETATM   18  C   UNL     1     -45.056 -54.290  14.651  1.00  0.00     0.145 C 
HETATM   19  C   UNL     1     -45.520 -55.464  13.791  1.00  0.00     0.041 C 
HETATM   20  O   UNL     1     -44.146 -54.719  15.677  1.00  0.00    -0.383 OA
HETATM   21  C   UNL     1     -42.862 -55.074  15.149  1.00  0.00     0.198 C 
HETATM   22  C   UNL     1     -42.245 -53.936  14.323  1.00  0.00     0.298 C 
ENDBRANCH  15  16
ENDBRANCH  14  15
BRANCH  14  23
HETATM   23  O   UNL     1     -40.616 -53.498  11.524  1.00  0.00    -0.392 OA
HETATM   24  H   UNL     1     -41.382 -54.083  11.400  1.00  0.00     0.210 HD
ENDBRANCH  14  23
ENDBRANCH  13  14
ENDBRANCH   1  13
TORSDOF 5
ENDMDL
MODEL 9
REMARK VINA RESULT:      -6.0      1.719      2.026
REMARK  5 active torsions:
REMARK  status: ('A' for Active; 'I' for Inactive)
REMARK    1  A    between atoms: N_4  and  C_5 
REMARK    2  A    between atoms: C_5  and  C_6 
REMARK    3  A    between atoms: C_6  and  O_7 
REMARK    4  A    between atoms: C_6  and  C_8 
REMARK    5  A    between atoms: C_8  and  N_9 
ROOT
HETATM    1  N   UNL     1     -40.352 -52.051  13.866  1.00  0.00    -0.339 N 
HETATM    2  C   UNL     1     -39.601 -53.145  14.200  1.00  0.00     0.184 A 
HETATM    3  N   UNL     1     -40.344 -54.216  14.351  1.00  0.00    -0.350 N 
ATOM      4  HN  UNL     1     -40.038 -55.153  14.616  1.00  0.00     0.166 HD
HETATM    5  C   UNL     1     -41.624 -53.804  14.075  1.00  0.00     0.060 A 
HETATM    6  C   UNL     1     -42.814 -54.543  14.072  1.00  0.00     0.039 A 
HETATM    7  C   UNL     1     -44.032 -53.908  13.756  1.00  0.00    -0.054 A 
HETATM    8  C   UNL     1     -45.289 -54.738  13.777  1.00  0.00     0.049 C 
HETATM    9  C   UNL     1     -44.046 -52.536  13.427  1.00  0.00    -0.054 A 
HETATM   10  C   UNL     1     -45.310 -51.797  13.073  1.00  0.00     0.049 C 
HETATM   11  C   UNL     1     -42.848 -51.788  13.430  1.00  0.00     0.039 A 
HETATM   12  C   UNL     1     -41.661 -52.450  13.760  1.00  0.00     0.062 A 
ENDROOT
BRANCH   1  13
HETATM   13  C   UNL     1     -39.825 -50.709  13.683  1.00  0.00     0.163 C 
BRANCH  13  14
HETATM   14  C   UNL     1     -39.568 -50.387  12.206  1.00  0.00     0.164 C 
BRANCH  14  15
HETATM   15  C   UNL     1     -39.242 -48.879  12.023  1.00  0.00     0.305 C 
BRANCH  15  16
HETATM   16  N   UNL     1     -40.425 -48.041  11.727  1.00  0.00     0.095 N 
HETATM   17  C   UNL     1     -41.252 -48.658  10.662  1.00  0.00     0.303 C 
HETATM   18  C   UNL     1     -42.479 -47.790  10.290  1.00  0.00     0.145 C 
HETATM   19  C   UNL     1     -43.536 -47.739  11.391  1.00  0.00     0.041 C 
HETATM   20  O   UNL     1     -42.070 -46.470   9.894  1.00  0.00    -0.383 OA
HETATM   21  C   UNL     1     -41.261 -45.832  10.889  1.00  0.00     0.198 C 
HETATM   22  C   UNL     1     -40.041 -46.682  11.271  1.00  0.00     0.298 C 
ENDBRANCH  15  16
ENDBRANCH  14  15
BRANCH  14  23
HETATM   23  O   UNL     1     -38.482 -51.201  11.741  1.00  0.00    -0.392 OA
HETATM   24  H   UNL     1     -38.656 -51.441  10.816  1.00  0.00     0.210 HD
ENDBRANCH  14  23
ENDBRANCH  13  14
ENDBRANCH   1  13
TORSDOF 5
ENDMDL
