MODEL 1
REMARK VINA RESULT:      -5.7      0.000      0.000
REMARK  4 active torsions:
REMARK  status: ('A' for Active; 'I' for Inactive)
REMARK    1  A    between atoms: O_2  and  C_3 
REMARK    2  A    between atoms: C_3  and  C_4 
REMARK    3  A    between atoms: C_4  and  N_5 
REMARK       I    between atoms: N_5  and  C_6 
REMARK       I    between atoms: C_6  and  N_8 
REMARK    4  A    between atoms: N_8  and  C_9 
ROOT
HETATM    1  N   UNL     1     -40.826 -51.217  11.339  1.00  0.00    -0.340 N 
HETATM    2  C   UNL     1     -41.487 -50.017  11.481  1.00  0.00     0.320 C 
HETATM    3  O   UNL     1     -42.344 -49.839  12.341  1.00  0.00    -0.247 OA
HETATM    4  N   UNL     1     -41.124 -49.106  10.513  1.00  0.00    -0.307 N 
HETATM    5  H   UNL     1     -39.830 -51.136  11.167  1.00  0.00     0.164 HD
HETATM    6  H   UNL     1     -40.948 -49.543   9.616  1.00  0.00     0.170 HD
ENDROOT
BRANCH   1   7
HETATM    7  C   UNL     1     -41.252 -52.317  12.188  1.00  0.00     0.162 C 
BRANCH   7   8
HETATM    8  C   UNL     1     -40.176 -52.597  13.240  1.00  0.00     0.076 C 
HETATM    9  C   UNL     1     -40.675 -52.358  14.700  1.00  0.00     0.040 C 
HETATM   10  C   UNL     1     -40.984 -53.861  14.809  1.00  0.00     0.006 C 
HETATM   11  C   UNL     1     -40.016 -54.098  13.639  1.00  0.00     0.040 C 
BRANCH   8  12
HETATM   12  O   UNL     1     -38.915 -51.959  12.888  1.00  0.00    -0.383 OA
HETATM   13  C   UNL     1     -38.280 -51.170  13.889  1.00  0.00     0.202 C 
ENDBRANCH   8  12
ENDBRANCH   7   8
ENDBRANCH   1   7
BRANCH   4  14
HETATM   14  C   UNL     1     -41.747 -47.829  10.465  1.00  0.00     0.061 A 
HETATM   15  C   UNL     1     -42.927 -47.657   9.741  1.00  0.00     0.048 A 
HETATM   16  C   UNL     1     -43.481 -46.394   9.675  1.00  0.00     0.090 A 
HETATM   17  N   UNL     1     -42.941 -45.308  10.264  1.00  0.00    -0.368 N 
HETATM   18  C   UNL     1     -41.787 -45.478  10.965  1.00  0.00     0.029 A 
ATOM     19  HN  UNL     1     -43.381 -44.391  10.187  1.00  0.00     0.165 HD
HETATM   20  C   UNL     1     -41.177 -44.218  11.514  1.00  0.00     0.070 C 
HETATM   21  C   UNL     1     -41.176 -46.727  11.117  1.00  0.00     0.083 A 
HETATM   22 CL   UNL     1     -39.704 -46.912  12.009  1.00  0.00    -0.080 Cl
ENDBRANCH   4  14
TORSDOF 4
ENDMDL
MODEL 2
REMARK VINA RESULT:      -5.7      2.927      6.946
REMARK  4 active torsions:
REMARK  status: ('A' for Active; 'I' for Inactive)
REMARK    1  A    between atoms: O_2  and  C_3 
REMARK    2  A    between atoms: C_3  and  C_4 
REMARK    3  A    between atoms: C_4  and  N_5 
REMARK       I    between atoms: N_5  and  C_6 
REMARK       I    between atoms: C_6  and  N_8 
REMARK    4  A    between atoms: N_8  and  C_9 
ROOT
HETATM    1  N   UNL     1     -41.062 -50.429  11.315  1.00  0.00    -0.340 N 
HETATM    2  C   UNL     1     -41.850 -51.086  12.233  1.00  0.00     0.320 C 
HETATM    3  O   UNL     1     -42.089 -50.623  13.343  1.00  0.00    -0.247 OA
HETATM    4  N   UNL     1     -42.253 -52.324  11.780  1.00  0.00    -0.307 N 
HETATM    5  H   UNL     1     -41.407 -50.453  10.363  1.00  0.00     0.164 HD
HETATM    6  H   UNL     1     -41.541 -52.784  11.224  1.00  0.00     0.170 HD
ENDROOT
BRANCH   1   7
HETATM    7  C   UNL     1     -40.428 -49.193  11.746  1.00  0.00     0.162 C 
BRANCH   7   8
HETATM    8  C   UNL     1     -41.187 -47.999  11.162  1.00  0.00     0.076 C 
HETATM    9  C   UNL     1     -42.048 -47.247  12.225  1.00  0.00     0.040 C 
HETATM   10  C   UNL     1     -40.891 -46.250  12.413  1.00  0.00     0.006 C 
HETATM   11  C   UNL     1     -40.356 -46.683  11.039  1.00  0.00     0.040 C 
BRANCH   8  12
HETATM   12  O   UNL     1     -41.874 -48.361   9.930  1.00  0.00    -0.383 OA
HETATM   13  C   UNL     1     -43.004 -47.579   9.557  1.00  0.00     0.202 C 
ENDBRANCH   8  12
ENDBRANCH   7   8
ENDBRANCH   1   7
BRANCH   4  14
HETATM   14  C   UNL     1     -43.027 -53.174  12.616  1.00  0.00     0.061 A 
HETATM   15  C   UNL     1     -44.416 -53.192  12.496  1.00  0.00     0.048 A 
HETATM   16  C   UNL     1     -45.141 -53.994  13.355  1.00  0.00     0.090 A 
HETATM   17  N   UNL     1     -44.583 -54.757  14.316  1.00  0.00    -0.368 N 
HETATM   18  C   UNL     1     -43.228 -54.733  14.434  1.00  0.00     0.029 A 
ATOM     19  HN  UNL     1     -45.157 -55.332  14.933  1.00  0.00     0.165 HD
HETATM   20  C   UNL     1     -42.669 -55.524  15.585  1.00  0.00     0.070 C 
HETATM   21  C   UNL     1     -42.412 -53.981  13.583  1.00  0.00     0.083 A 
HETATM   22 CL   UNL     1     -40.690 -53.964  13.762  1.00  0.00    -0.080 Cl
ENDBRANCH   4  14
TORSDOF 4
ENDMDL
MODEL 3
REMARK VINA RESULT:      -5.7      3.590      4.714
REMARK  4 active torsions:
REMARK  status: ('A' for Active; 'I' for Inactive)
REMARK    1  A    between atoms: O_2  and  C_3 
REMARK    2  A    between atoms: C_3  and  C_4 
REMARK    3  A    between atoms: C_4  and  N_5 
REMARK       I    between atoms: N_5  and  C_6 
REMARK       I    between atoms: C_6  and  N_8 
REMARK    4  A    between atoms: N_8  and  C_9 
ROOT
HETATM    1  N   UNL     1     -43.440 -52.233  13.069  1.00  0.00    -0.340 N 
HETATM    2  C   UNL     1     -42.503 -51.225  13.098  1.00  0.00     0.320 C 
HETATM    3  O   UNL     1     -42.208 -50.634  14.132  1.00  0.00    -0.247 OA
HETATM    4  N   UNL     1     -42.018 -50.930  11.843  1.00  0.00    -0.307 N 
HETATM    5  H   UNL     1     -43.187 -53.033  12.500  1.00  0.00     0.164 HD
HETATM    6  H   UNL     1     -42.728 -51.011  11.124  1.00  0.00     0.170 HD
ENDROOT
BRANCH   1   7
HETATM    7  C   UNL     1     -44.156 -52.513  14.303  1.00  0.00     0.162 C 
BRANCH   7   8
HETATM    8  C   UNL     1     -45.618 -52.837  13.984  1.00  0.00     0.076 C 
HETATM    9  C   UNL     1     -46.538 -52.804  15.244  1.00  0.00     0.040 C 
HETATM   10  C   UNL     1     -46.920 -51.356  14.891  1.00  0.00     0.006 C 
HETATM   11  C   UNL     1     -46.460 -51.634  13.452  1.00  0.00     0.040 C 
BRANCH   8  12
HETATM   12  O   UNL     1     -45.725 -54.027  13.150  1.00  0.00    -0.383 OA
HETATM   13  C   UNL     1     -45.542 -55.288  13.785  1.00  0.00     0.202 C 
ENDBRANCH   8  12
ENDBRANCH   7   8
ENDBRANCH   1   7
BRANCH   4  14
HETATM   14  C   UNL     1     -41.083 -49.873  11.668  1.00  0.00     0.061 A 
HETATM   15  C   UNL     1     -39.719 -50.120  11.816  1.00  0.00     0.048 A 
HETATM   16  C   UNL     1     -38.840 -49.063  11.686  1.00  0.00     0.090 A 
HETATM   17  N   UNL     1     -39.226 -47.796  11.433  1.00  0.00    -0.368 N 
HETATM   18  C   UNL     1     -40.558 -47.557  11.294  1.00  0.00     0.029 A 
ATOM     19  HN  UNL     1     -38.544 -47.043  11.349  1.00  0.00     0.165 HD
HETATM   20  C   UNL     1     -40.938 -46.113  11.115  1.00  0.00     0.070 C 
HETATM   21  C   UNL     1     -41.517 -48.573  11.372  1.00  0.00     0.083 A 
HETATM   22 CL   UNL     1     -43.207 -48.239  11.199  1.00  0.00    -0.080 Cl
ENDBRANCH   4  14
TORSDOF 4
ENDMDL
MODEL 4
REMARK VINA RESULT:      -5.7      3.089      3.773
REMARK  4 active torsions:
REMARK  status: ('A' for Active; 'I' for Inactive)
REMARK    1  A    between atoms: O_2  and  C_3 
REMARK    2  A    between atoms: C_3  and  C_4 
REMARK    3  A    between atoms: C_4  and  N_5 
REMARK       I    between atoms: N_5  and  C_6 
REMARK       I    between atoms: C_6  and  N_8 
REMARK    4  A    between atoms: N_8  and  C_9 
ROOT
HETATM    1  N   UNL     1     -43.067 -51.200  12.891  1.00  0.00    -0.340 N 
HETATM    2  C   UNL     1     -42.937 -49.845  12.684  1.00  0.00     0.320 C 
HETATM    3  O   UNL     1     -43.278 -49.017  13.523  1.00  0.00    -0.247 OA
HETATM    4  N   UNL     1     -42.464 -49.555  11.423  1.00  0.00    -0.307 N 
HETATM    5  H   UNL     1     -42.276 -51.755  12.584  1.00  0.00     0.164 HD
HETATM    6  H   UNL     1     -42.815 -50.196  10.720  1.00  0.00     0.170 HD
ENDROOT
BRANCH   1   7
HETATM    7  C   UNL     1     -43.724 -51.626  14.116  1.00  0.00     0.162 C 
BRANCH   7   8
HETATM    8  C   UNL     1     -44.987 -52.419  13.768  1.00  0.00     0.076 C 
HETATM    9  C   UNL     1     -45.966 -52.566  14.975  1.00  0.00     0.040 C 
HETATM   10  C   UNL     1     -46.747 -51.349  14.452  1.00  0.00     0.006 C 
HETATM   11  C   UNL     1     -46.115 -51.594  13.073  1.00  0.00     0.040 C 
BRANCH   8  12
HETATM   12  O   UNL     1     -44.659 -53.652  13.063  1.00  0.00    -0.383 OA
HETATM   13  C   UNL     1     -45.158 -54.869  13.608  1.00  0.00     0.202 C 
ENDBRANCH   8  12
ENDBRANCH   7   8
ENDBRANCH   1   7
BRANCH   4  14
HETATM   14  C   UNL     1     -42.321 -48.203  11.006  1.00  0.00     0.061 A 
HETATM   15  C   UNL     1     -43.402 -47.532  10.437  1.00  0.00     0.048 A 
HETATM   16  C   UNL     1     -43.217 -46.235  10.000  1.00  0.00     0.090 A 
HETATM   17  N   UNL     1     -42.042 -45.579  10.082  1.00  0.00    -0.368 N 
HETATM   18  C   UNL     1     -40.987 -46.239  10.633  1.00  0.00     0.029 A 
ATOM     19  HN  UNL     1     -41.947 -44.622   9.743  1.00  0.00     0.165 HD
HETATM   20  C   UNL     1     -39.679 -45.496  10.606  1.00  0.00     0.070 C 
HETATM   21  C   UNL     1     -41.093 -47.539  11.137  1.00  0.00     0.083 A 
HETATM   22 CL   UNL     1     -39.731 -48.357  11.825  1.00  0.00    -0.080 Cl
ENDBRANCH   4  14
TORSDOF 4
ENDMDL
MODEL 5
REMARK VINA RESULT:      -5.7      2.351      7.044
REMARK  4 active torsions:
REMARK  status: ('A' for Active; 'I' for Inactive)
REMARK    1  A    between atoms: O_2  and  C_3 
REMARK    2  A    between atoms: C_3  and  C_4 
REMARK    3  A    between atoms: C_4  and  N_5 
REMARK       I    between atoms: N_5  and  C_6 
REMARK       I    between atoms: C_6  and  N_8 
REMARK    4  A    between atoms: N_8  and  C_9 
ROOT
HETATM    1  N   UNL     1     -42.300 -48.670  10.464  1.00  0.00    -0.340 N 
HETATM    2  C   UNL     1     -41.761 -49.323  11.550  1.00  0.00     0.320 C 
HETATM    3  O   UNL     1     -42.029 -49.005  12.704  1.00  0.00    -0.247 OA
HETATM    4  N   UNL     1     -40.855 -50.291  11.178  1.00  0.00    -0.307 N 
HETATM    5  H   UNL     1     -42.596 -49.277   9.707  1.00  0.00     0.164 HD
HETATM    6  H   UNL     1     -40.315 -50.024  10.363  1.00  0.00     0.170 HD
ENDROOT
BRANCH   1   7
HETATM    7  C   UNL     1     -43.133 -47.509  10.729  1.00  0.00     0.162 C 
BRANCH   7   8
HETATM    8  C   UNL     1     -43.408 -46.767   9.419  1.00  0.00     0.076 C 
HETATM    9  C   UNL     1     -43.405 -47.709   8.174  1.00  0.00     0.040 C 
HETATM   10  C   UNL     1     -44.936 -47.810   8.283  1.00  0.00     0.006 C 
HETATM   11  C   UNL     1     -44.916 -46.513   9.107  1.00  0.00     0.040 C 
BRANCH   8  12
HETATM   12  O   UNL     1     -42.589 -45.567   9.309  1.00  0.00    -0.383 OA
HETATM   13  C   UNL     1     -41.726 -45.263  10.401  1.00  0.00     0.202 C 
ENDBRANCH   8  12
ENDBRANCH   7   8
ENDBRANCH   1   7
BRANCH   4  14
HETATM   14  C   UNL     1     -40.151 -51.030  12.168  1.00  0.00     0.061 A 
HETATM   15  C   UNL     1     -38.875 -50.628  12.560  1.00  0.00     0.048 A 
HETATM   16  C   UNL     1     -38.200 -51.395  13.490  1.00  0.00     0.090 A 
HETATM   17  N   UNL     1     -38.700 -52.521  14.036  1.00  0.00    -0.368 N 
HETATM   18  C   UNL     1     -39.944 -52.914  13.647  1.00  0.00     0.029 A 
ATOM     19  HN  UNL     1     -38.166 -53.061  14.717  1.00  0.00     0.165 HD
HETATM   20  C   UNL     1     -40.409 -54.228  14.210  1.00  0.00     0.070 C 
HETATM   21  C   UNL     1     -40.715 -52.179  12.741  1.00  0.00     0.083 A 
HETATM   22 CL   UNL     1     -42.292 -52.707  12.257  1.00  0.00    -0.080 Cl
ENDBRANCH   4  14
TORSDOF 4
ENDMDL
MODEL 6
REMARK VINA RESULT:      -5.5      1.922      2.591
REMARK  4 active torsions:
REMARK  status: ('A' for Active; 'I' for Inactive)
REMARK    1  A    between atoms: O_2  and  C_3 
REMARK    2  A    between atoms: C_3  and  C_4 
REMARK    3  A    between atoms: C_4  and  N_5 
REMARK       I    between atoms: N_5  and  C_6 
REMARK       I    between atoms: C_6  and  N_8 
REMARK    4  A    between atoms: N_8  and  C_9 
ROOT
HETATM    1  N   UNL     1     -42.180 -51.450  12.382  1.00  0.00    -0.340 N 
HETATM    2  C   UNL     1     -42.282 -50.085  12.232  1.00  0.00     0.320 C 
HETATM    3  O   UNL     1     -42.882 -49.380  13.037  1.00  0.00    -0.247 OA
HETATM    4  N   UNL     1     -41.708 -49.647  11.058  1.00  0.00    -0.307 N 
HETATM    5  H   UNL     1     -41.265 -51.834  12.174  1.00  0.00     0.164 HD
HETATM    6  H   UNL     1     -41.834 -50.303  10.296  1.00  0.00     0.170 HD
ENDROOT
BRANCH   1   7
HETATM    7  C   UNL     1     -42.903 -52.054  13.489  1.00  0.00     0.162 C 
BRANCH   7   8
HETATM    8  C   UNL     1     -42.783 -53.578  13.406  1.00  0.00     0.076 C 
HETATM    9  C   UNL     1     -41.378 -54.053  12.918  1.00  0.00     0.040 C 
HETATM   10  C   UNL     1     -40.962 -54.234  14.388  1.00  0.00     0.006 C 
HETATM   11  C   UNL     1     -42.453 -54.290  14.755  1.00  0.00     0.040 C 
BRANCH   8  12
HETATM   12  O   UNL     1     -43.925 -54.160  12.713  1.00  0.00    -0.383 OA
HETATM   13  C   UNL     1     -45.197 -54.055  13.347  1.00  0.00     0.202 C 
ENDBRANCH   8  12
ENDBRANCH   7   8
ENDBRANCH   1   7
BRANCH   4  14
HETATM   14  C   UNL     1     -41.768 -48.271  10.703  1.00  0.00     0.061 A 
HETATM   15  C   UNL     1     -42.837 -47.794   9.947  1.00  0.00     0.048 A 
HETATM   16  C   UNL     1     -42.841 -46.462   9.579  1.00  0.00     0.090 A 
HETATM   17  N   UNL     1     -41.861 -45.594   9.901  1.00  0.00    -0.368 N 
HETATM   18  C   UNL     1     -40.817 -46.065  10.635  1.00  0.00     0.029 A 
ATOM     19  HN  UNL     1     -41.901 -44.619   9.605  1.00  0.00     0.165 HD
HETATM   20  C   UNL     1     -39.706 -45.080  10.878  1.00  0.00     0.070 C 
HETATM   21  C   UNL     1     -40.748 -47.388  11.084  1.00  0.00     0.083 A 
HETATM   22 CL   UNL     1     -39.401 -47.961  12.009  1.00  0.00    -0.080 Cl
ENDBRANCH   4  14
TORSDOF 4
ENDMDL
MODEL 7
REMARK VINA RESULT:      -5.2      3.911      6.297
REMARK  4 active torsions:
REMARK  status: ('A' for Active; 'I' for Inactive)
REMARK    1  A    between atoms: O_2  and  C_3 
REMARK    2  A    between atoms: C_3  and  C_4 
REMARK    3  A    between atoms: C_4  and  N_5 
REMARK       I    between atoms: N_5  and  C_6 
REMARK       I    between atoms: C_6  and  N_8 
REMARK    4  A    between atoms: N_8  and  C_9 
ROOT
HETATM    1  N   UNL     1     -40.795 -52.131  11.961  1.00  0.00    -0.340 N 
HETATM    2  C   UNL     1     -42.007 -52.034  12.606  1.00  0.00     0.320 C 
HETATM    3  O   UNL     1     -42.164 -51.339  13.605  1.00  0.00    -0.247 OA
HETATM    4  N   UNL     1     -42.962 -52.852  12.044  1.00  0.00    -0.307 N 
HETATM    5  H   UNL     1     -40.848 -52.108  10.949  1.00  0.00     0.164 HD
HETATM    6  H   UNL     1     -42.576 -53.728  11.713  1.00  0.00     0.170 HD
ENDROOT
BRANCH   1   7
HETATM    7  C   UNL     1     -39.660 -51.454  12.568  1.00  0.00     0.162 C 
BRANCH   7   8
HETATM    8  C   UNL     1     -39.466 -50.088  11.905  1.00  0.00     0.076 C 
HETATM    9  C   UNL     1     -39.326 -48.925  12.937  1.00  0.00     0.040 C 
HETATM   10  C   UNL     1     -37.797 -49.048  12.824  1.00  0.00     0.006 C 
HETATM   11  C   UNL     1     -38.001 -49.763  11.478  1.00  0.00     0.040 C 
BRANCH   8  12
HETATM   12  O   UNL     1     -40.436 -49.877  10.839  1.00  0.00    -0.383 OA
HETATM   13  C   UNL     1     -41.255 -48.714  10.920  1.00  0.00     0.202 C 
ENDBRANCH   8  12
ENDBRANCH   7   8
ENDBRANCH   1   7
BRANCH   4  14
HETATM   14  C   UNL     1     -44.263 -52.929  12.614  1.00  0.00     0.061 A 
HETATM   15  C   UNL     1     -45.296 -52.150  12.096  1.00  0.00     0.048 A 
HETATM   16  C   UNL     1     -46.536 -52.213  12.702  1.00  0.00     0.090 A 
HETATM   17  N   UNL     1     -46.805 -52.981  13.778  1.00  0.00    -0.368 N 
HETATM   18  C   UNL     1     -45.792 -53.736  14.283  1.00  0.00     0.029 A 
ATOM     19  HN  UNL     1     -47.734 -52.994  14.198  1.00  0.00     0.165 HD
HETATM   20  C   UNL     1     -46.121 -54.492  15.541  1.00  0.00     0.070 C 
HETATM   21  C   UNL     1     -44.516 -53.764  13.711  1.00  0.00     0.083 A 
HETATM   22 CL   UNL     1     -43.245 -54.729  14.382  1.00  0.00    -0.080 Cl
ENDBRANCH   4  14
TORSDOF 4
ENDMDL
MODEL 8
REMARK VINA RESULT:      -5.2      3.947      6.147
REMARK  4 active torsions:
REMARK  status: ('A' for Active; 'I' for Inactive)
REMARK    1  A    between atoms: O_2  and  C_3 
REMARK    2  A    between atoms: C_3  and  C_4 
REMARK    3  A    between atoms: C_4  and  N_5 
REMARK       I    between atoms: N_5  and  C_6 
REMARK       I    between atoms: C_6  and  N_8 
REMARK    4  A    between atoms: N_8  and  C_9 
ROOT
HETATM    1  N   UNL     1     -40.098 -52.104  14.461  1.00  0.00    -0.340 N 
HETATM    2  C   UNL     1     -41.231 -52.593  13.851  1.00  0.00     0.320 C 
HETATM    3  O   UNL     1     -41.271 -52.854  12.653  1.00  0.00    -0.247 OA
HETATM    4  N   UNL     1     -42.297 -52.670  14.721  1.00  0.00    -0.307 N 
HETATM    5  H   UNL     1     -39.892 -52.510  15.366  1.00  0.00     0.164 HD
HETATM    6  H   UNL     1     -42.307 -51.910  15.391  1.00  0.00     0.170 HD
ENDROOT
BRANCH   1   7
HETATM    7  C   UNL     1     -38.958 -51.806  13.608  1.00  0.00     0.162 C 
BRANCH   7   8
HETATM    8  C   UNL     1     -38.946 -50.312  13.275  1.00  0.00     0.076 C 
HETATM    9  C   UNL     1     -37.516 -49.768  12.968  1.00  0.00     0.040 C 
HETATM   10  C   UNL     1     -37.795 -49.964  11.468  1.00  0.00     0.006 C 
HETATM   11  C   UNL     1     -39.297 -49.961  11.795  1.00  0.00     0.040 C 
BRANCH   8  12
HETATM   12  O   UNL     1     -39.721 -49.549  14.245  1.00  0.00    -0.383 OA
HETATM   13  C   UNL     1     -40.734 -48.685  13.739  1.00  0.00     0.202 C 
ENDBRANCH   8  12
ENDBRANCH   7   8
ENDBRANCH   1   7
BRANCH   4  14
HETATM   14  C   UNL     1     -43.570 -53.098  14.256  1.00  0.00     0.061 A 
HETATM   15  C   UNL     1     -43.916 -54.448  14.316  1.00  0.00     0.048 A 
HETATM   16  C   UNL     1     -45.142 -54.837  13.813  1.00  0.00     0.090 A 
HETATM   17  N   UNL     1     -46.025 -53.986  13.253  1.00  0.00    -0.368 N 
HETATM   18  C   UNL     1     -45.682 -52.671  13.190  1.00  0.00     0.029 A 
ATOM     19  HN  UNL     1     -46.918 -54.317  12.889  1.00  0.00     0.165 HD
HETATM   20  C   UNL     1     -46.659 -51.786  12.466  1.00  0.00     0.070 C 
HETATM   21  C   UNL     1     -44.480 -52.181  13.710  1.00  0.00     0.083 A 
HETATM   22 CL   UNL     1     -44.067 -50.503  13.609  1.00  0.00    -0.080 Cl
ENDBRANCH   4  14
TORSDOF 4
ENDMDL
MODEL 9
REMARK VINA RESULT:      -5.1      2.049      6.501
REMARK  4 active torsions:
REMARK  status: ('A' for Active; 'I' for Inactive)
REMARK    1  A    between atoms: O_2  and  C_3 
REMARK    2  A    between atoms: C_3  and  C_4 
REMARK    3  A    between atoms: C_4  and  N_5 
REMARK       I    between atoms: N_5  and  C_6 
REMARK       I    between atoms: C_6  and  N_8 
REMARK    4  A    between atoms: N_8  and  C_9 
ROOT
HETATM    1  N   UNL     1     -41.114 -48.777  10.500  1.00  0.00    -0.340 N 
HETATM    2  C   UNL     1     -41.480 -49.686  11.467  1.00  0.00     0.320 C 
HETATM    3  O   UNL     1     -42.188 -49.378  12.422  1.00  0.00    -0.247 OA
HETATM    4  N   UNL     1     -40.901 -50.920  11.267  1.00  0.00    -0.307 N 
HETATM    5  H   UNL     1     -41.153 -49.127   9.550  1.00  0.00     0.164 HD
HETATM    6  H   UNL     1     -39.962 -50.851  10.893  1.00  0.00     0.170 HD
ENDROOT
BRANCH   1   7
HETATM    7  C   UNL     1     -41.514 -47.394  10.700  1.00  0.00     0.162 C 
BRANCH   7   8
HETATM    8  C   UNL     1     -40.350 -46.608  11.309  1.00  0.00     0.076 C 
HETATM    9  C   UNL     1     -39.809 -45.490  10.364  1.00  0.00     0.040 C 
HETATM   10  C   UNL     1     -40.703 -44.477  11.099  1.00  0.00     0.006 C 
HETATM   11  C   UNL     1     -40.765 -45.458  12.280  1.00  0.00     0.040 C 
BRANCH   8  12
HETATM   12  O   UNL     1     -39.348 -47.502  11.873  1.00  0.00    -0.383 OA
HETATM   13  C   UNL     1     -39.146 -47.453  13.282  1.00  0.00     0.202 C 
ENDBRANCH   8  12
ENDBRANCH   7   8
ENDBRANCH   1   7
BRANCH   4  14
HETATM   14  C   UNL     1     -41.118 -51.971  12.200  1.00  0.00     0.061 A 
HETATM   15  C   UNL     1     -42.305 -52.702  12.161  1.00  0.00     0.048 A 
HETATM   16  C   UNL     1     -42.504 -53.686  13.110  1.00  0.00     0.090 A 
HETATM   17  N   UNL     1     -41.618 -53.975  14.085  1.00  0.00    -0.368 N 
HETATM   18  C   UNL     1     -40.464 -53.256  14.123  1.00  0.00     0.029 A 
ATOM     19  HN  UNL     1     -41.807 -54.707  14.769  1.00  0.00     0.165 HD
HETATM   20  C   UNL     1     -39.560 -53.551  15.289  1.00  0.00     0.070 C 
HETATM   21  C   UNL     1     -40.161 -52.268  13.180  1.00  0.00     0.083 A 
HETATM   22 CL   UNL     1     -38.687 -51.363  13.258  1.00  0.00    -0.080 Cl
ENDBRANCH   4  14
TORSDOF 4
ENDMDL
