MODEL 1
REMARK VINA RESULT:      -6.2      0.000      0.000
REMARK  4 active torsions:
REMARK  status: ('A' for Active; 'I' for Inactive)
REMARK    1  A    between atoms: C_2  and  C_3 
REMARK    2  A    between atoms: C_2  and  N_11 
REMARK    3  A    between atoms: C_3  and  C_4 
REMARK    4  A    between atoms: N_11  and  C_12 
ROOT
HETATM    1  C   UNL     1     -43.184 -49.922  14.881  1.00  0.00     0.043 C 
HETATM    2  C   UNL     1     -43.412 -49.815  13.365  1.00  0.00     0.222 C 
ENDROOT
BRANCH   2   3
HETATM    3  C   UNL     1     -42.138 -49.166  12.766  1.00  0.00     0.093 C 
BRANCH   3   4
HETATM    4  C   UNL     1     -42.291 -48.563  11.408  1.00  0.00     0.029 A 
HETATM    5  C   UNL     1     -43.344 -47.737  10.953  1.00  0.00     0.052 A 
HETATM    6  C   UNL     1     -43.091 -47.532   9.616  1.00  0.00     0.024 A 
HETATM    7  C   UNL     1     -43.828 -46.789   8.577  1.00  0.00     0.070 C 
HETATM    8  N   UNL     1     -41.929 -48.204   9.358  1.00  0.00    -0.305 N 
HETATM    9  N   UNL     1     -41.434 -48.858  10.421  1.00  0.00    -0.305 N 
HETATM   10  H   UNL     1     -41.429 -48.275   8.478  1.00  0.00     0.186 HD
ATOM     11  HN  UNL     1     -40.601 -49.444  10.466  1.00  0.00     0.186 HD
ENDBRANCH   3   4
ENDBRANCH   2   3
BRANCH   2  12
HETATM   12  N   UNL     1     -43.713 -51.118  12.752  1.00  0.00     0.093 N 
HETATM   13  H   UNL     1     -42.863 -51.516  12.352  1.00  0.00     0.316 HD
BRANCH  12  14
HETATM   14  C   UNL     1     -44.382 -52.129  13.575  1.00  0.00     0.228 C 
HETATM   15  C   UNL     1     -43.835 -53.530  13.211  1.00  0.00     0.036 C 
HETATM   16  C   UNL     1     -44.999 -54.509  13.339  1.00  0.00     0.003 C 
HETATM   17  C   UNL     1     -46.082 -53.739  14.078  1.00  0.00     0.011 C 
HETATM   18  C   UNL     1     -45.934 -52.287  13.575  1.00  0.00    -0.017 C 
HETATM   19  C   UNL     1     -46.642 -51.340  14.555  1.00  0.00     0.017 C 
HETATM   20  C   UNL     1     -46.593 -52.150  12.191  1.00  0.00     0.017 C 
ENDBRANCH  12  14
ENDBRANCH   2  12
TORSDOF 4
ENDMDL
MODEL 2
REMARK VINA RESULT:      -5.8      3.101      4.012
REMARK  4 active torsions:
REMARK  status: ('A' for Active; 'I' for Inactive)
REMARK    1  A    between atoms: C_2  and  C_3 
REMARK    2  A    between atoms: C_2  and  N_11 
REMARK    3  A    between atoms: C_3  and  C_4 
REMARK    4  A    between atoms: N_11  and  C_12 
ROOT
HETATM    1  C   UNL     1     -43.019 -54.981  14.787  1.00  0.00     0.043 C 
HETATM    2  C   UNL     1     -42.190 -53.712  14.542  1.00  0.00     0.222 C 
ENDROOT
BRANCH   2   3
HETATM    3  C   UNL     1     -41.373 -53.955  13.246  1.00  0.00     0.093 C 
BRANCH   3   4
HETATM    4  C   UNL     1     -40.865 -52.732  12.556  1.00  0.00     0.029 A 
HETATM    5  C   UNL     1     -39.915 -51.806  13.045  1.00  0.00     0.052 A 
HETATM    6  C   UNL     1     -39.865 -50.806  12.101  1.00  0.00     0.024 A 
HETATM    7  C   UNL     1     -39.096 -49.549  12.038  1.00  0.00     0.070 C 
HETATM    8  N   UNL     1     -40.740 -51.186  11.122  1.00  0.00    -0.305 N 
HETATM    9  N   UNL     1     -41.379 -52.338  11.383  1.00  0.00    -0.305 N 
HETATM   10  H   UNL     1     -40.965 -50.699  10.260  1.00  0.00     0.186 HD
ATOM     11  HN  UNL     1     -42.089 -52.803  10.819  1.00  0.00     0.186 HD
ENDBRANCH   3   4
ENDBRANCH   2   3
BRANCH   2  12
HETATM   12  N   UNL     1     -43.027 -52.505  14.452  1.00  0.00     0.093 N 
HETATM   13  H   UNL     1     -42.735 -51.941  13.654  1.00  0.00     0.316 HD
BRANCH  12  14
HETATM   14  C   UNL     1     -44.482 -52.678  14.418  1.00  0.00     0.228 C 
HETATM   15  C   UNL     1     -45.035 -52.101  13.093  1.00  0.00     0.036 C 
HETATM   16  C   UNL     1     -46.402 -51.497  13.408  1.00  0.00     0.003 C 
HETATM   17  C   UNL     1     -46.754 -52.019  14.792  1.00  0.00     0.011 C 
HETATM   18  C   UNL     1     -45.401 -52.089  15.533  1.00  0.00    -0.017 C 
HETATM   19  C   UNL     1     -45.542 -53.009  16.753  1.00  0.00     0.017 C 
HETATM   20  C   UNL     1     -45.003 -50.683  16.016  1.00  0.00     0.017 C 
ENDBRANCH  12  14
ENDBRANCH   2  12
TORSDOF 4
ENDMDL
MODEL 3
REMARK VINA RESULT:      -5.8      2.302      3.138
REMARK  4 active torsions:
REMARK  status: ('A' for Active; 'I' for Inactive)
REMARK    1  A    between atoms: C_2  and  C_3 
REMARK    2  A    between atoms: C_2  and  N_11 
REMARK    3  A    between atoms: C_3  and  C_4 
REMARK    4  A    between atoms: N_11  and  C_12 
ROOT
HETATM    1  C   UNL     1     -42.201 -54.059  13.514  1.00  0.00     0.043 C 
HETATM    2  C   UNL     1     -42.220 -52.586  13.077  1.00  0.00     0.222 C 
ENDROOT
BRANCH   2   3
HETATM    3  C   UNL     1     -40.950 -52.360  12.216  1.00  0.00     0.093 C 
BRANCH   3   4
HETATM    4  C   UNL     1     -40.590 -50.935  11.947  1.00  0.00     0.029 A 
HETATM    5  C   UNL     1     -40.300 -49.932  12.900  1.00  0.00     0.052 A 
HETATM    6  C   UNL     1     -40.140 -48.776  12.171  1.00  0.00     0.024 A 
HETATM    7  C   UNL     1     -39.854 -47.387  12.578  1.00  0.00     0.070 C 
HETATM    8  N   UNL     1     -40.315 -49.142  10.866  1.00  0.00    -0.305 N 
HETATM    9  N   UNL     1     -40.613 -50.440  10.702  1.00  0.00    -0.305 N 
HETATM   10  H   UNL     1     -40.265 -48.555  10.040  1.00  0.00     0.186 HD
ATOM     11  HN  UNL     1     -40.812 -50.934   9.833  1.00  0.00     0.186 HD
ENDBRANCH   3   4
ENDBRANCH   2   3
BRANCH   2  12
HETATM   12  N   UNL     1     -43.452 -52.233  12.355  1.00  0.00     0.093 N 
HETATM   13  H   UNL     1     -43.860 -53.070  11.939  1.00  0.00     0.316 HD
BRANCH  12  14
HETATM   14  C   UNL     1     -44.489 -51.496  13.081  1.00  0.00     0.228 C 
HETATM   15  C   UNL     1     -43.983 -51.171  14.507  1.00  0.00     0.036 C 
HETATM   16  C   UNL     1     -45.192 -51.247  15.436  1.00  0.00     0.003 C 
HETATM   17  C   UNL     1     -46.399 -51.280  14.511  1.00  0.00     0.011 C 
HETATM   18  C   UNL     1     -45.920 -52.084  13.283  1.00  0.00    -0.017 C 
HETATM   19  C   UNL     1     -46.863 -51.809  12.103  1.00  0.00     0.017 C 
HETATM   20  C   UNL     1     -45.956 -53.589  13.604  1.00  0.00     0.017 C 
ENDBRANCH  12  14
ENDBRANCH   2  12
TORSDOF 4
ENDMDL
MODEL 4
REMARK VINA RESULT:      -5.8      3.794      5.437
REMARK  4 active torsions:
REMARK  status: ('A' for Active; 'I' for Inactive)
REMARK    1  A    between atoms: C_2  and  C_3 
REMARK    2  A    between atoms: C_2  and  N_11 
REMARK    3  A    between atoms: C_3  and  C_4 
REMARK    4  A    between atoms: N_11  and  C_12 
ROOT
HETATM    1  C   UNL     1     -41.424 -46.478  12.631  1.00  0.00     0.043 C 
HETATM    2  C   UNL     1     -41.585 -47.218  11.295  1.00  0.00     0.222 C 
ENDROOT
BRANCH   2   3
HETATM    3  C   UNL     1     -42.115 -46.180  10.271  1.00  0.00     0.093 C 
BRANCH   3   4
HETATM    4  C   UNL     1     -43.520 -46.383   9.804  1.00  0.00     0.029 A 
HETATM    5  C   UNL     1     -44.287 -47.568   9.894  1.00  0.00     0.052 A 
HETATM    6  C   UNL     1     -45.462 -47.288   9.234  1.00  0.00     0.024 A 
HETATM    7  C   UNL     1     -46.654 -48.111   8.953  1.00  0.00     0.070 C 
HETATM    8  N   UNL     1     -45.346 -45.990   8.820  1.00  0.00    -0.305 N 
HETATM    9  N   UNL     1     -44.169 -45.425   9.130  1.00  0.00    -0.305 N 
HETATM   10  H   UNL     1     -46.022 -45.436   8.304  1.00  0.00     0.186 HD
ATOM     11  HN  UNL     1     -43.845 -44.485   8.905  1.00  0.00     0.186 HD
ENDBRANCH   3   4
ENDBRANCH   2   3
BRANCH   2  12
HETATM   12  N   UNL     1     -40.332 -47.847  10.849  1.00  0.00     0.093 N 
HETATM   13  H   UNL     1     -39.536 -47.299  11.175  1.00  0.00     0.316 HD
BRANCH  12  14
HETATM   14  C   UNL     1     -40.117 -49.259  11.176  1.00  0.00     0.228 C 
HETATM   15  C   UNL     1     -41.395 -49.833  11.832  1.00  0.00     0.036 C 
HETATM   16  C   UNL     1     -40.941 -50.849  12.877  1.00  0.00     0.003 C 
HETATM   17  C   UNL     1     -39.468 -51.086  12.583  1.00  0.00     0.011 C 
HETATM   18  C   UNL     1     -38.947 -49.714  12.101  1.00  0.00    -0.017 C 
HETATM   19  C   UNL     1     -37.622 -49.915  11.352  1.00  0.00     0.017 C 
HETATM   20  C   UNL     1     -38.696 -48.802  13.315  1.00  0.00     0.017 C 
ENDBRANCH  12  14
ENDBRANCH   2  12
TORSDOF 4
ENDMDL
MODEL 5
REMARK VINA RESULT:      -5.7      2.426      3.896
REMARK  4 active torsions:
REMARK  status: ('A' for Active; 'I' for Inactive)
REMARK    1  A    between atoms: C_2  and  C_3 
REMARK    2  A    between atoms: C_2  and  N_11 
REMARK    3  A    between atoms: C_3  and  C_4 
REMARK    4  A    between atoms: N_11  and  C_12 
ROOT
HETATM    1  C   UNL     1     -43.260 -49.960  14.655  1.00  0.00     0.043 C 
HETATM    2  C   UNL     1     -43.298 -50.007  13.120  1.00  0.00     0.222 C 
ENDROOT
BRANCH   2   3
HETATM    3  C   UNL     1     -41.831 -50.167  12.642  1.00  0.00     0.093 C 
BRANCH   3   4
HETATM    4  C   UNL     1     -41.303 -51.564  12.614  1.00  0.00     0.029 A 
HETATM    5  C   UNL     1     -40.721 -52.280  13.685  1.00  0.00     0.052 A 
HETATM    6  C   UNL     1     -40.298 -53.470  13.137  1.00  0.00     0.024 A 
HETATM    7  C   UNL     1     -39.594 -54.627  13.720  1.00  0.00     0.070 C 
HETATM    8  N   UNL     1     -40.658 -53.411  11.819  1.00  0.00    -0.305 N 
HETATM    9  N   UNL     1     -41.247 -52.257  11.469  1.00  0.00    -0.305 N 
HETATM   10  H   UNL     1     -40.514 -54.113  11.100  1.00  0.00     0.186 HD
ATOM     11  HN  UNL     1     -41.574 -51.975  10.545  1.00  0.00     0.186 HD
ENDBRANCH   3   4
ENDBRANCH   2   3
BRANCH   2  12
HETATM   12  N   UNL     1     -44.167 -51.081  12.615  1.00  0.00     0.093 N 
HETATM   13  H   UNL     1     -43.698 -51.578  11.858  1.00  0.00     0.316 HD
BRANCH  12  14
HETATM   14  C   UNL     1     -44.694 -52.051  13.579  1.00  0.00     0.228 C 
HETATM   15  C   UNL     1     -44.223 -53.471  13.186  1.00  0.00     0.036 C 
HETATM   16  C   UNL     1     -45.355 -54.430  13.546  1.00  0.00     0.003 C 
HETATM   17  C   UNL     1     -46.296 -53.620  14.422  1.00  0.00     0.011 C 
HETATM   18  C   UNL     1     -46.226 -52.190  13.843  1.00  0.00    -0.017 C 
HETATM   19  C   UNL     1     -46.756 -51.198  14.887  1.00  0.00     0.017 C 
HETATM   20  C   UNL     1     -47.106 -52.100  12.583  1.00  0.00     0.017 C 
ENDBRANCH  12  14
ENDBRANCH   2  12
TORSDOF 4
ENDMDL
MODEL 6
REMARK VINA RESULT:      -5.7      2.498      3.016
REMARK  4 active torsions:
REMARK  status: ('A' for Active; 'I' for Inactive)
REMARK    1  A    between atoms: C_2  and  C_3 
REMARK    2  A    between atoms: C_2  and  N_11 
REMARK    3  A    between atoms: C_3  and  C_4 
REMARK    4  A    between atoms: N_11  and  C_12 
ROOT
HETATM    1  C   UNL     1     -43.079 -50.209  14.944  1.00  0.00     0.043 C 
HETATM    2  C   UNL     1     -42.710 -50.568  13.497  1.00  0.00     0.222 C 
ENDROOT
BRANCH   2   3
HETATM    3  C   UNL     1     -41.327 -51.270  13.550  1.00  0.00     0.093 C 
BRANCH   3   4
HETATM    4  C   UNL     1     -40.346 -50.856  12.503  1.00  0.00     0.029 A 
HETATM    5  C   UNL     1     -38.943 -50.743  12.643  1.00  0.00     0.052 A 
HETATM    6  C   UNL     1     -38.501 -50.227  11.446  1.00  0.00     0.024 A 
HETATM    7  C   UNL     1     -37.155 -49.853  10.972  1.00  0.00     0.070 C 
HETATM    8  N   UNL     1     -39.621 -50.086  10.674  1.00  0.00    -0.305 N 
HETATM    9  N   UNL     1     -40.756 -50.437  11.298  1.00  0.00    -0.305 N 
HETATM   10  H   UNL     1     -39.685 -49.739   9.723  1.00  0.00     0.186 HD
ATOM     11  HN  UNL     1     -41.710 -50.394  10.939  1.00  0.00     0.186 HD
ENDBRANCH   3   4
ENDBRANCH   2   3
BRANCH   2  12
HETATM   12  N   UNL     1     -43.733 -51.404  12.850  1.00  0.00     0.093 N 
HETATM   13  H   UNL     1     -43.317 -51.918  12.072  1.00  0.00     0.316 HD
BRANCH  12  14
HETATM   14  C   UNL     1     -44.499 -52.328  13.689  1.00  0.00     0.228 C 
HETATM   15  C   UNL     1     -44.063 -53.781  13.382  1.00  0.00     0.036 C 
HETATM   16  C   UNL     1     -45.307 -54.656  13.515  1.00  0.00     0.003 C 
HETATM   17  C   UNL     1     -46.337 -53.776  14.204  1.00  0.00     0.011 C 
HETATM   18  C   UNL     1     -46.059 -52.358  13.659  1.00  0.00    -0.017 C 
HETATM   19  C   UNL     1     -46.705 -51.324  14.592  1.00  0.00     0.017 C 
HETATM   20  C   UNL     1     -46.676 -52.214  12.257  1.00  0.00     0.017 C 
ENDBRANCH  12  14
ENDBRANCH   2  12
TORSDOF 4
ENDMDL
MODEL 7
REMARK VINA RESULT:      -5.6      1.478      2.015
REMARK  4 active torsions:
REMARK  status: ('A' for Active; 'I' for Inactive)
REMARK    1  A    between atoms: C_2  and  C_3 
REMARK    2  A    between atoms: C_2  and  N_11 
REMARK    3  A    between atoms: C_3  and  C_4 
REMARK    4  A    between atoms: N_11  and  C_12 
ROOT
HETATM    1  C   UNL     1     -43.435 -49.811  14.799  1.00  0.00     0.043 C 
HETATM    2  C   UNL     1     -43.453 -49.858  13.264  1.00  0.00     0.222 C 
ENDROOT
BRANCH   2   3
HETATM    3  C   UNL     1     -42.238 -49.027  12.777  1.00  0.00     0.093 C 
BRANCH   3   4
HETATM    4  C   UNL     1     -42.330 -48.489  11.387  1.00  0.00     0.029 A 
HETATM    5  C   UNL     1     -43.351 -47.669  10.854  1.00  0.00     0.052 A 
HETATM    6  C   UNL     1     -43.047 -47.534   9.519  1.00  0.00     0.024 A 
HETATM    7  C   UNL     1     -43.732 -46.830   8.418  1.00  0.00     0.070 C 
HETATM    8  N   UNL     1     -41.889 -48.237   9.337  1.00  0.00    -0.305 N 
HETATM    9  N   UNL     1     -41.445 -48.846  10.447  1.00  0.00    -0.305 N 
HETATM   10  H   UNL     1     -41.359 -48.360   8.480  1.00  0.00     0.186 HD
ATOM     11  HN  UNL     1     -40.625 -49.443  10.551  1.00  0.00     0.186 HD
ENDBRANCH   3   4
ENDBRANCH   2   3
BRANCH   2  12
HETATM   12  N   UNL     1     -43.429 -51.234  12.746  1.00  0.00     0.093 N 
HETATM   13  H   UNL     1     -43.082 -51.236  11.786  1.00  0.00     0.316 HD
BRANCH  12  14
HETATM   14  C   UNL     1     -42.713 -52.250  13.522  1.00  0.00     0.228 C 
HETATM   15  C   UNL     1     -41.447 -52.688  12.749  1.00  0.00     0.036 C 
HETATM   16  C   UNL     1     -41.245 -54.175  13.031  1.00  0.00     0.003 C 
HETATM   17  C   UNL     1     -42.172 -54.484  14.195  1.00  0.00     0.011 C 
HETATM   18  C   UNL     1     -43.402 -53.580  13.959  1.00  0.00    -0.017 C 
HETATM   19  C   UNL     1     -44.192 -53.454  15.269  1.00  0.00     0.017 C 
HETATM   20  C   UNL     1     -44.311 -54.213  12.891  1.00  0.00     0.017 C 
ENDBRANCH  12  14
ENDBRANCH   2  12
TORSDOF 4
ENDMDL
MODEL 8
REMARK VINA RESULT:      -5.5      1.363      2.353
REMARK  4 active torsions:
REMARK  status: ('A' for Active; 'I' for Inactive)
REMARK    1  A    between atoms: C_2  and  C_3 
REMARK    2  A    between atoms: C_2  and  N_11 
REMARK    3  A    between atoms: C_3  and  C_4 
REMARK    4  A    between atoms: N_11  and  C_12 
ROOT
HETATM    1  C   UNL     1     -42.029 -51.383  15.470  1.00  0.00     0.043 C 
HETATM    2  C   UNL     1     -42.421 -51.408  13.984  1.00  0.00     0.222 C 
ENDROOT
BRANCH   2   3
HETATM    3  C   UNL     1     -41.131 -51.111  13.177  1.00  0.00     0.093 C 
BRANCH   3   4
HETATM    4  C   UNL     1     -41.267 -50.111  12.076  1.00  0.00     0.029 A 
HETATM    5  C   UNL     1     -42.183 -49.036  12.006  1.00  0.00     0.052 A 
HETATM    6  C   UNL     1     -41.992 -48.478  10.762  1.00  0.00     0.024 A 
HETATM    7  C   UNL     1     -42.653 -47.353  10.075  1.00  0.00     0.070 C 
HETATM    8  N   UNL     1     -40.992 -49.211  10.185  1.00  0.00    -0.305 N 
HETATM    9  N   UNL     1     -40.551 -50.222  10.949  1.00  0.00    -0.305 N 
HETATM   10  H   UNL     1     -40.577 -49.089   9.267  1.00  0.00     0.186 HD
ATOM     11  HN  UNL     1     -39.836 -50.914  10.724  1.00  0.00     0.186 HD
ENDBRANCH   3   4
ENDBRANCH   2   3
BRANCH   2  12
HETATM   12  N   UNL     1     -43.042 -52.683  13.591  1.00  0.00     0.093 N 
HETATM   13  H   UNL     1     -42.750 -53.421  14.232  1.00  0.00     0.316 HD
BRANCH  12  14
HETATM   14  C   UNL     1     -44.498 -52.721  13.437  1.00  0.00     0.228 C 
HETATM   15  C   UNL     1     -45.066 -51.289  13.579  1.00  0.00     0.036 C 
HETATM   16  C   UNL     1     -46.422 -51.415  14.268  1.00  0.00     0.003 C 
HETATM   17  C   UNL     1     -46.758 -52.897  14.211  1.00  0.00     0.011 C 
HETATM   18  C   UNL     1     -45.394 -53.606  14.358  1.00  0.00    -0.017 C 
HETATM   19  C   UNL     1     -45.526 -55.055  13.868  1.00  0.00     0.017 C 
HETATM   20  C   UNL     1     -44.976 -53.621  15.839  1.00  0.00     0.017 C 
ENDBRANCH  12  14
ENDBRANCH   2  12
TORSDOF 4
ENDMDL
MODEL 9
REMARK VINA RESULT:      -5.0      3.617      7.069
REMARK  4 active torsions:
REMARK  status: ('A' for Active; 'I' for Inactive)
REMARK    1  A    between atoms: C_2  and  C_3 
REMARK    2  A    between atoms: C_2  and  N_11 
REMARK    3  A    between atoms: C_3  and  C_4 
REMARK    4  A    between atoms: N_11  and  C_12 
ROOT
HETATM    1  C   UNL     1     -40.948 -49.146  13.575  1.00  0.00     0.043 C 
HETATM    2  C   UNL     1     -40.365 -49.617  12.235  1.00  0.00     0.222 C 
ENDROOT
BRANCH   2   3
HETATM    3  C   UNL     1     -41.245 -50.801  11.757  1.00  0.00     0.093 C 
BRANCH   3   4
HETATM    4  C   UNL     1     -40.875 -52.146  12.292  1.00  0.00     0.029 A 
HETATM    5  C   UNL     1     -40.238 -52.431  13.521  1.00  0.00     0.052 A 
HETATM    6  C   UNL     1     -40.017 -53.790  13.507  1.00  0.00     0.024 A 
HETATM    7  C   UNL     1     -39.368 -54.692  14.478  1.00  0.00     0.070 C 
HETATM    8  N   UNL     1     -40.535 -54.231  12.322  1.00  0.00    -0.305 N 
HETATM    9  N   UNL     1     -41.040 -53.252  11.554  1.00  0.00    -0.305 N 
HETATM   10  H   UNL     1     -40.560 -55.180  11.965  1.00  0.00     0.186 HD
ATOM     11  HN  UNL     1     -41.453 -53.333  10.625  1.00  0.00     0.186 HD
ENDBRANCH   3   4
ENDBRANCH   2   3
BRANCH   2  12
HETATM   12  N   UNL     1     -40.302 -48.535  11.240  1.00  0.00     0.093 N 
HETATM   13  H   UNL     1     -40.281 -48.930  10.300  1.00  0.00     0.316 HD
BRANCH  12  14
HETATM   14  C   UNL     1     -41.320 -47.483  11.303  1.00  0.00     0.228 C 
HETATM   15  C   UNL     1     -42.274 -47.621  10.093  1.00  0.00     0.036 C 
HETATM   16  C   UNL     1     -42.678 -46.207   9.682  1.00  0.00     0.003 C 
HETATM   17  C   UNL     1     -42.235 -45.320  10.834  1.00  0.00     0.011 C 
HETATM   18  C   UNL     1     -40.932 -45.972  11.343  1.00  0.00    -0.017 C 
HETATM   19  C   UNL     1     -40.632 -45.459  12.759  1.00  0.00     0.017 C 
HETATM   20  C   UNL     1     -39.764 -45.584  10.418  1.00  0.00     0.017 C 
ENDBRANCH  12  14
ENDBRANCH   2  12
TORSDOF 4
ENDMDL
