MODEL 1
REMARK VINA RESULT:      -6.0      0.000      0.000
REMARK  4 active torsions:
REMARK  status: ('A' for Active; 'I' for Inactive)
REMARK       I    between atoms: C_2  and  N_4 
REMARK    1  A    between atoms: N_4  and  C_5 
REMARK    2  A    between atoms: N_9  and  C_10 
REMARK    3  A    between atoms: C_10  and  C_11 
REMARK       I    between atoms: C_11  and  N_13 
REMARK    4  A    between atoms: N_13  and  C_14 
ROOT
HETATM    1  C   UNL     1     -40.538 -43.911  11.086  1.00  0.00     0.069 A 
HETATM    2  C   UNL     1     -39.633 -44.677  10.319  1.00  0.00     0.138 A 
HETATM    3  N   UNL     1     -40.130 -45.872   9.984  1.00  0.00    -0.307 N 
ATOM      4  HN  UNL     1     -39.685 -46.609   9.437  1.00  0.00     0.186 HD
HETATM    5  N   UNL     1     -41.356 -45.871  10.541  1.00  0.00    -0.293 N 
HETATM    6  C   UNL     1     -41.672 -44.689  11.156  1.00  0.00     0.141 A 
ENDROOT
BRANCH   5   7
HETATM    7  C   UNL     1     -42.169 -47.064  10.448  1.00  0.00     0.250 C 
BRANCH   7   8
HETATM    8  C   UNL     1     -43.258 -46.908   9.417  1.00  0.00     0.237 C 
HETATM    9  O   UNL     1     -43.155 -46.110   8.487  1.00  0.00    -0.272 OA
HETATM   10  N   UNL     1     -44.356 -47.733   9.596  1.00  0.00    -0.355 N 
HETATM   11  H   UNL     1     -44.437 -48.269  10.455  1.00  0.00     0.162 HD
BRANCH  10  12
HETATM   12  C   UNL     1     -45.457 -47.724   8.684  1.00  0.00     0.084 A 
HETATM   13  C   UNL     1     -46.736 -47.017   9.039  1.00  0.00     0.027 A 
HETATM   14  C   UNL     1     -46.709 -48.514   8.952  1.00  0.00     0.027 A 
ENDBRANCH  10  12
ENDBRANCH   7   8
ENDBRANCH   5   7
BRANCH   1  15
HETATM   15  N   UNL     1     -40.399 -42.667  11.672  1.00  0.00    -0.325 N 
HETATM   16  C   UNL     1     -39.752 -42.469  12.880  1.00  0.00     0.218 C 
HETATM   17  C   UNL     1     -39.710 -41.024  13.291  1.00  0.00     0.117 C 
HETATM   18  O   UNL     1     -39.259 -43.345  13.583  1.00  0.00    -0.274 OA
HETATM   19  H   UNL     1     -40.875 -41.892  11.227  1.00  0.00     0.169 HD
ENDBRANCH   1  15
TORSDOF 4
ENDMDL
MODEL 2
REMARK VINA RESULT:      -5.7      4.648      7.333
REMARK  4 active torsions:
REMARK  status: ('A' for Active; 'I' for Inactive)
REMARK       I    between atoms: C_2  and  N_4 
REMARK    1  A    between atoms: N_4  and  C_5 
REMARK    2  A    between atoms: N_9  and  C_10 
REMARK    3  A    between atoms: C_10  and  C_11 
REMARK       I    between atoms: C_11  and  N_13 
REMARK    4  A    between atoms: N_13  and  C_14 
ROOT
HETATM    1  C   UNL     1     -43.154 -51.786  13.049  1.00  0.00     0.069 A 
HETATM    2  C   UNL     1     -42.065 -51.661  12.158  1.00  0.00     0.138 A 
HETATM    3  N   UNL     1     -41.849 -50.395  11.789  1.00  0.00    -0.307 N 
ATOM      4  HN  UNL     1     -41.130 -50.034  11.161  1.00  0.00     0.186 HD
HETATM    5  N   UNL     1     -42.805 -49.708  12.443  1.00  0.00    -0.293 N 
HETATM    6  C   UNL     1     -43.570 -50.492  13.265  1.00  0.00     0.141 A 
ENDROOT
BRANCH   5   7
HETATM    7  C   UNL     1     -42.927 -48.285  12.214  1.00  0.00     0.250 C 
BRANCH   7   8
HETATM    8  C   UNL     1     -43.278 -47.988  10.777  1.00  0.00     0.237 C 
HETATM    9  O   UNL     1     -42.422 -47.979   9.894  1.00  0.00    -0.272 OA
HETATM   10  N   UNL     1     -44.621 -47.744  10.541  1.00  0.00    -0.355 N 
HETATM   11  H   UNL     1     -45.250 -47.635  11.330  1.00  0.00     0.162 HD
BRANCH  10  12
HETATM   12  C   UNL     1     -45.114 -47.478   9.226  1.00  0.00     0.084 A 
HETATM   13  C   UNL     1     -46.477 -46.877   9.029  1.00  0.00     0.027 A 
HETATM   14  C   UNL     1     -46.220 -48.295   8.618  1.00  0.00     0.027 A 
ENDBRANCH  10  12
ENDBRANCH   7   8
ENDBRANCH   5   7
BRANCH   1  15
HETATM   15  N   UNL     1     -43.735 -52.905  13.615  1.00  0.00    -0.325 N 
HETATM   16  C   UNL     1     -44.850 -53.529  13.082  1.00  0.00     0.218 C 
HETATM   17  C   UNL     1     -45.273 -54.740  13.865  1.00  0.00     0.117 C 
HETATM   18  O   UNL     1     -45.469 -53.166  12.086  1.00  0.00    -0.274 OA
HETATM   19  H   UNL     1     -43.368 -53.213  14.506  1.00  0.00     0.169 HD
ENDBRANCH   1  15
TORSDOF 4
ENDMDL
MODEL 3
REMARK VINA RESULT:      -5.3      1.276      6.563
REMARK  4 active torsions:
REMARK  status: ('A' for Active; 'I' for Inactive)
REMARK       I    between atoms: C_2  and  N_4 
REMARK    1  A    between atoms: N_4  and  C_5 
REMARK    2  A    between atoms: N_9  and  C_10 
REMARK    3  A    between atoms: C_10  and  C_11 
REMARK       I    between atoms: C_11  and  N_13 
REMARK    4  A    between atoms: N_13  and  C_14 
ROOT
HETATM    1  C   UNL     1     -43.078 -46.936  10.318  1.00  0.00     0.069 A 
HETATM    2  C   UNL     1     -42.031 -47.863  10.514  1.00  0.00     0.138 A 
HETATM    3  N   UNL     1     -40.831 -47.277  10.560  1.00  0.00    -0.307 N 
ATOM      4  HN  UNL     1     -39.919 -47.715  10.692  1.00  0.00     0.186 HD
HETATM    5  N   UNL     1     -41.111 -45.971  10.389  1.00  0.00    -0.293 N 
HETATM    6  C   UNL     1     -42.453 -45.710  10.307  1.00  0.00     0.141 A 
ENDROOT
BRANCH   5   7
HETATM    7  C   UNL     1     -40.020 -45.025  10.303  1.00  0.00     0.250 C 
BRANCH   7   8
HETATM    8  C   UNL     1     -40.040 -44.055  11.457  1.00  0.00     0.237 C 
HETATM    9  O   UNL     1     -39.762 -44.409  12.601  1.00  0.00    -0.272 OA
HETATM   10  N   UNL     1     -40.379 -42.754  11.122  1.00  0.00    -0.355 N 
HETATM   11  H   UNL     1     -40.726 -42.558  10.188  1.00  0.00     0.162 HD
BRANCH  10  12
HETATM   12  C   UNL     1     -40.412 -41.713  12.101  1.00  0.00     0.084 A 
HETATM   13  C   UNL     1     -41.698 -41.357  12.793  1.00  0.00     0.027 A 
HETATM   14  C   UNL     1     -41.080 -40.393  11.826  1.00  0.00     0.027 A 
ENDBRANCH  10  12
ENDBRANCH   7   8
ENDBRANCH   5   7
BRANCH   1  15
HETATM   15  N   UNL     1     -44.437 -47.128  10.158  1.00  0.00    -0.325 N 
HETATM   16  C   UNL     1     -45.001 -47.608   8.987  1.00  0.00     0.218 C 
HETATM   17  C   UNL     1     -46.494 -47.753   9.074  1.00  0.00     0.117 C 
HETATM   18  O   UNL     1     -44.392 -47.889   7.960  1.00  0.00    -0.274 OA
HETATM   19  H   UNL     1     -45.039 -46.814  10.909  1.00  0.00     0.169 HD
ENDBRANCH   1  15
TORSDOF 4
ENDMDL
MODEL 4
REMARK VINA RESULT:      -5.2      5.852      7.446
REMARK  4 active torsions:
REMARK  status: ('A' for Active; 'I' for Inactive)
REMARK       I    between atoms: C_2  and  N_4 
REMARK    1  A    between atoms: N_4  and  C_5 
REMARK    2  A    between atoms: N_9  and  C_10 
REMARK    3  A    between atoms: C_10  and  C_11 
REMARK       I    between atoms: C_11  and  N_13 
REMARK    4  A    between atoms: N_13  and  C_14 
ROOT
HETATM    1  C   UNL     1     -40.189 -52.131  13.379  1.00  0.00     0.069 A 
HETATM    2  C   UNL     1     -40.953 -52.506  12.251  1.00  0.00     0.138 A 
HETATM    3  N   UNL     1     -41.060 -51.520  11.356  1.00  0.00    -0.307 N 
ATOM      4  HN  UNL     1     -41.551 -51.529  10.462  1.00  0.00     0.186 HD
HETATM    5  N   UNL     1     -40.365 -50.510  11.914  1.00  0.00    -0.293 N 
HETATM    6  C   UNL     1     -39.767 -50.852  13.097  1.00  0.00     0.141 A 
ENDROOT
BRANCH   5   7
HETATM    7  C   UNL     1     -40.332 -49.228  11.245  1.00  0.00     0.250 C 
BRANCH   7   8
HETATM    8  C   UNL     1     -41.724 -48.716  10.969  1.00  0.00     0.237 C 
HETATM    9  O   UNL     1     -42.594 -48.716  11.838  1.00  0.00    -0.272 OA
HETATM   10  N   UNL     1     -41.929 -48.243   9.684  1.00  0.00    -0.355 N 
HETATM   11  H   UNL     1     -41.213 -48.395   8.980  1.00  0.00     0.162 HD
BRANCH  10  12
HETATM   12  C   UNL     1     -43.187 -47.698   9.277  1.00  0.00     0.084 A 
HETATM   13  C   UNL     1     -43.585 -47.693   7.828  1.00  0.00     0.027 A 
HETATM   14  C   UNL     1     -43.277 -46.401   8.522  1.00  0.00     0.027 A 
ENDBRANCH  10  12
ENDBRANCH   7   8
ENDBRANCH   5   7
BRANCH   1  15
HETATM   15  N   UNL     1     -39.890 -52.822  14.538  1.00  0.00    -0.325 N 
HETATM   16  C   UNL     1     -39.236 -54.043  14.543  1.00  0.00     0.218 C 
HETATM   17  C   UNL     1     -39.003 -54.576  15.929  1.00  0.00     0.117 C 
HETATM   18  O   UNL     1     -38.873 -54.667  13.551  1.00  0.00    -0.274 OA
HETATM   19  H   UNL     1     -40.252 -52.447  15.405  1.00  0.00     0.169 HD
ENDBRANCH   1  15
TORSDOF 4
ENDMDL
MODEL 5
REMARK VINA RESULT:      -5.2      5.164      7.811
REMARK  4 active torsions:
REMARK  status: ('A' for Active; 'I' for Inactive)
REMARK       I    between atoms: C_2  and  N_4 
REMARK    1  A    between atoms: N_4  and  C_5 
REMARK    2  A    between atoms: N_9  and  C_10 
REMARK    3  A    between atoms: C_10  and  C_11 
REMARK       I    between atoms: C_11  and  N_13 
REMARK    4  A    between atoms: N_13  and  C_14 
ROOT
HETATM    1  C   UNL     1     -42.381 -52.676  12.780  1.00  0.00     0.069 A 
HETATM    2  C   UNL     1     -41.402 -52.862  11.779  1.00  0.00     0.138 A 
HETATM    3  N   UNL     1     -40.844 -51.712  11.389  1.00  0.00    -0.307 N 
ATOM      4  HN  UNL     1     -40.117 -51.569  10.689  1.00  0.00     0.186 HD
HETATM    5  N   UNL     1     -41.470 -50.787  12.142  1.00  0.00    -0.293 N 
HETATM    6  C   UNL     1     -42.353 -51.325  13.040  1.00  0.00     0.141 A 
ENDROOT
BRANCH   5   7
HETATM    7  C   UNL     1     -41.169 -49.388  11.927  1.00  0.00     0.250 C 
BRANCH   7   8
HETATM    8  C   UNL     1     -42.401 -48.617  11.523  1.00  0.00     0.237 C 
HETATM    9  O   UNL     1     -43.245 -48.273  12.349  1.00  0.00    -0.272 OA
HETATM   10  N   UNL     1     -42.492 -48.324  10.173  1.00  0.00    -0.355 N 
HETATM   11  H   UNL     1     -41.833 -48.751   9.529  1.00  0.00     0.162 HD
BRANCH  10  12
HETATM   12  C   UNL     1     -43.586 -47.573   9.640  1.00  0.00     0.084 A 
HETATM   13  C   UNL     1     -43.912 -47.634   8.174  1.00  0.00     0.027 A 
HETATM   14  C   UNL     1     -43.364 -46.370   8.765  1.00  0.00     0.027 A 
ENDBRANCH  10  12
ENDBRANCH   7   8
ENDBRANCH   5   7
BRANCH   1  15
HETATM   15  N   UNL     1     -43.219 -53.581  13.404  1.00  0.00    -0.325 N 
HETATM   16  C   UNL     1     -44.508 -53.840  12.971  1.00  0.00     0.218 C 
HETATM   17  C   UNL     1     -45.205 -54.882  13.799  1.00  0.00     0.117 C 
HETATM   18  O   UNL     1     -45.071 -53.297  12.025  1.00  0.00    -0.274 OA
HETATM   19  H   UNL     1     -42.889 -53.996  14.266  1.00  0.00     0.169 HD
ENDBRANCH   1  15
TORSDOF 4
ENDMDL
MODEL 6
REMARK VINA RESULT:      -5.2      4.010      4.943
REMARK  4 active torsions:
REMARK  status: ('A' for Active; 'I' for Inactive)
REMARK       I    between atoms: C_2  and  N_4 
REMARK    1  A    between atoms: N_4  and  C_5 
REMARK    2  A    between atoms: N_9  and  C_10 
REMARK    3  A    between atoms: C_10  and  C_11 
REMARK       I    between atoms: C_11  and  N_13 
REMARK    4  A    between atoms: N_13  and  C_14 
ROOT
HETATM    1  C   UNL     1     -40.793 -47.568  11.122  1.00  0.00     0.069 A 
HETATM    2  C   UNL     1     -41.748 -48.419  10.524  1.00  0.00     0.138 A 
HETATM    3  N   UNL     1     -42.356 -49.210  11.413  1.00  0.00    -0.307 N 
ATOM      4  HN  UNL     1     -43.081 -49.909  11.245  1.00  0.00     0.186 HD
HETATM    5  N   UNL     1     -41.785 -48.866  12.583  1.00  0.00    -0.293 N 
HETATM    6  C   UNL     1     -40.889 -47.837  12.468  1.00  0.00     0.141 A 
ENDROOT
BRANCH   5   7
HETATM    7  C   UNL     1     -42.150 -49.590  13.781  1.00  0.00     0.250 C 
BRANCH   7   8
HETATM    8  C   UNL     1     -43.042 -50.764  13.464  1.00  0.00     0.237 C 
HETATM    9  O   UNL     1     -42.617 -51.755  12.872  1.00  0.00    -0.272 OA
HETATM   10  N   UNL     1     -44.351 -50.639  13.899  1.00  0.00    -0.355 N 
HETATM   11  H   UNL     1     -44.669 -49.745  14.260  1.00  0.00     0.162 HD
BRANCH  10  12
HETATM   12  C   UNL     1     -45.310 -51.681  13.700  1.00  0.00     0.084 A 
HETATM   13  C   UNL     1     -46.410 -51.523  12.688  1.00  0.00     0.027 A 
HETATM   14  C   UNL     1     -46.737 -51.535  14.151  1.00  0.00     0.027 A 
ENDBRANCH  10  12
ENDBRANCH   7   8
ENDBRANCH   5   7
BRANCH   1  15
HETATM   15  N   UNL     1     -39.921 -46.654  10.561  1.00  0.00    -0.325 N 
HETATM   16  C   UNL     1     -40.298 -45.372  10.199  1.00  0.00     0.218 C 
HETATM   17  C   UNL     1     -39.162 -44.564   9.638  1.00  0.00     0.117 C 
HETATM   18  O   UNL     1     -41.427 -44.902  10.297  1.00  0.00    -0.274 OA
HETATM   19  H   UNL     1     -38.992 -46.985  10.331  1.00  0.00     0.169 HD
ENDBRANCH   1  15
TORSDOF 4
ENDMDL
MODEL 7
REMARK VINA RESULT:      -5.2      6.969      7.950
REMARK  4 active torsions:
REMARK  status: ('A' for Active; 'I' for Inactive)
REMARK       I    between atoms: C_2  and  N_4 
REMARK    1  A    between atoms: N_4  and  C_5 
REMARK    2  A    between atoms: N_9  and  C_10 
REMARK    3  A    between atoms: C_10  and  C_11 
REMARK       I    between atoms: C_11  and  N_13 
REMARK    4  A    between atoms: N_13  and  C_14 
ROOT
HETATM    1  C   UNL     1     -40.612 -51.501  13.159  1.00  0.00     0.069 A 
HETATM    2  C   UNL     1     -41.121 -51.877  11.896  1.00  0.00     0.138 A 
HETATM    3  N   UNL     1     -42.012 -52.869  11.979  1.00  0.00    -0.307 N 
ATOM      4  HN  UNL     1     -42.526 -53.321  11.222  1.00  0.00     0.186 HD
HETATM    5  N   UNL     1     -42.072 -53.130  13.299  1.00  0.00    -0.293 N 
HETATM    6  C   UNL     1     -41.299 -52.289  14.054  1.00  0.00     0.141 A 
ENDROOT
BRANCH   5   7
HETATM    7  C   UNL     1     -42.896 -54.226  13.761  1.00  0.00     0.250 C 
BRANCH   7   8
HETATM    8  C   UNL     1     -44.359 -53.954  13.517  1.00  0.00     0.237 C 
HETATM    9  O   UNL     1     -44.971 -54.495  12.597  1.00  0.00    -0.272 OA
HETATM   10  N   UNL     1     -44.947 -53.071  14.407  1.00  0.00    -0.355 N 
HETATM   11  H   UNL     1     -44.358 -52.559  15.057  1.00  0.00     0.162 HD
BRANCH  10  12
HETATM   12  C   UNL     1     -46.334 -52.736  14.325  1.00  0.00     0.084 A 
HETATM   13  C   UNL     1     -46.788 -51.555  13.513  1.00  0.00     0.027 A 
HETATM   14  C   UNL     1     -46.892 -51.517  15.008  1.00  0.00     0.027 A 
ENDBRANCH  10  12
ENDBRANCH   7   8
ENDBRANCH   5   7
BRANCH   1  15
HETATM   15  N   UNL     1     -39.647 -50.574  13.505  1.00  0.00    -0.325 N 
HETATM   16  C   UNL     1     -38.290 -50.799  13.343  1.00  0.00     0.218 C 
HETATM   17  C   UNL     1     -37.448 -49.629  13.767  1.00  0.00     0.117 C 
HETATM   18  O   UNL     1     -37.779 -51.829  12.913  1.00  0.00    -0.274 OA
HETATM   19  H   UNL     1     -39.960 -49.736  13.978  1.00  0.00     0.169 HD
ENDBRANCH   1  15
TORSDOF 4
ENDMDL
MODEL 8
REMARK VINA RESULT:      -5.1      3.060      6.749
REMARK  4 active torsions:
REMARK  status: ('A' for Active; 'I' for Inactive)
REMARK       I    between atoms: C_2  and  N_4 
REMARK    1  A    between atoms: N_4  and  C_5 
REMARK    2  A    between atoms: N_9  and  C_10 
REMARK    3  A    between atoms: C_10  and  C_11 
REMARK       I    between atoms: C_11  and  N_13 
REMARK    4  A    between atoms: N_13  and  C_14 
ROOT
HETATM    1  C   UNL     1     -43.649 -47.369   9.933  1.00  0.00     0.069 A 
HETATM    2  C   UNL     1     -42.916 -46.432   9.171  1.00  0.00     0.138 A 
HETATM    3  N   UNL     1     -41.778 -46.066   9.770  1.00  0.00    -0.307 N 
ATOM      4  HN  UNL     1     -41.072 -45.410   9.435  1.00  0.00     0.186 HD
HETATM    5  N   UNL     1     -41.786 -46.768  10.919  1.00  0.00    -0.293 N 
HETATM    6  C   UNL     1     -42.856 -47.615  11.030  1.00  0.00     0.141 A 
ENDROOT
BRANCH   5   7
HETATM    7  C   UNL     1     -40.722 -46.556  11.877  1.00  0.00     0.250 C 
BRANCH   7   8
HETATM    8  C   UNL     1     -40.122 -47.864  12.329  1.00  0.00     0.237 C 
HETATM    9  O   UNL     1     -40.366 -48.336  13.438  1.00  0.00    -0.272 OA
HETATM   10  N   UNL     1     -39.300 -48.483  11.401  1.00  0.00    -0.355 N 
HETATM   11  H   UNL     1     -39.035 -47.978  10.561  1.00  0.00     0.162 HD
BRANCH  10  12
HETATM   12  C   UNL     1     -38.682 -49.743  11.670  1.00  0.00     0.084 A 
HETATM   13  C   UNL     1     -37.485 -49.828  12.575  1.00  0.00     0.027 A 
HETATM   14  C   UNL     1     -37.333 -50.095  11.108  1.00  0.00     0.027 A 
ENDBRANCH  10  12
ENDBRANCH   7   8
ENDBRANCH   5   7
BRANCH   1  15
HETATM   15  N   UNL     1     -44.883 -47.949   9.707  1.00  0.00    -0.325 N 
HETATM   16  C   UNL     1     -45.952 -47.263   9.157  1.00  0.00     0.218 C 
HETATM   17  C   UNL     1     -47.174 -48.121   8.987  1.00  0.00     0.117 C 
HETATM   18  O   UNL     1     -45.956 -46.079   8.836  1.00  0.00    -0.274 OA
HETATM   19  H   UNL     1     -45.018 -48.893  10.047  1.00  0.00     0.169 HD
ENDBRANCH   1  15
TORSDOF 4
ENDMDL
MODEL 9
REMARK VINA RESULT:      -5.1      3.576      7.125
REMARK  4 active torsions:
REMARK  status: ('A' for Active; 'I' for Inactive)
REMARK       I    between atoms: C_2  and  N_4 
REMARK    1  A    between atoms: N_4  and  C_5 
REMARK    2  A    between atoms: N_9  and  C_10 
REMARK    3  A    between atoms: C_10  and  C_11 
REMARK       I    between atoms: C_11  and  N_13 
REMARK    4  A    between atoms: N_13  and  C_14 
ROOT
HETATM    1  C   UNL     1     -43.122 -47.164  10.373  1.00  0.00     0.069 A 
HETATM    2  C   UNL     1     -42.045 -46.309  10.052  1.00  0.00     0.138 A 
HETATM    3  N   UNL     1     -40.865 -46.811  10.426  1.00  0.00    -0.307 N 
ATOM      4  HN  UNL     1     -39.938 -46.399  10.311  1.00  0.00     0.186 HD
HETATM    5  N   UNL     1     -41.188 -47.990  10.991  1.00  0.00    -0.293 N 
HETATM    6  C   UNL     1     -42.525 -48.276  10.922  1.00  0.00     0.141 A 
ENDROOT
BRANCH   5   7
HETATM    7  C   UNL     1     -40.143 -48.789  11.593  1.00  0.00     0.250 C 
BRANCH   7   8
HETATM    8  C   UNL     1     -39.658 -48.177  12.884  1.00  0.00     0.237 C 
HETATM    9  O   UNL     1     -40.071 -47.086  13.275  1.00  0.00    -0.272 OA
HETATM   10  N   UNL     1     -38.738 -48.939  13.583  1.00  0.00    -0.355 N 
HETATM   11  H   UNL     1     -38.340 -49.763  13.142  1.00  0.00     0.162 HD
BRANCH  10  12
HETATM   12  C   UNL     1     -38.207 -48.508  14.839  1.00  0.00     0.084 A 
HETATM   13  C   UNL     1     -36.942 -47.699  14.896  1.00  0.00     0.027 A 
HETATM   14  C   UNL     1     -36.952 -49.106  15.412  1.00  0.00     0.027 A 
ENDBRANCH  10  12
ENDBRANCH   7   8
ENDBRANCH   5   7
BRANCH   1  15
HETATM   15  N   UNL     1     -44.485 -47.000  10.214  1.00  0.00    -0.325 N 
HETATM   16  C   UNL     1     -45.174 -47.435   9.094  1.00  0.00     0.218 C 
HETATM   17  C   UNL     1     -46.650 -47.163   9.172  1.00  0.00     0.117 C 
HETATM   18  O   UNL     1     -44.678 -47.980   8.113  1.00  0.00    -0.274 OA
HETATM   19  H   UNL     1     -44.969 -46.456  10.917  1.00  0.00     0.169 HD
ENDBRANCH   1  15
TORSDOF 4
ENDMDL
