MODEL 1
REMARK VINA RESULT:      -6.4      0.000      0.000
REMARK  6 active torsions:
REMARK  status: ('A' for Active; 'I' for Inactive)
REMARK    1  A    between atoms: N_5  and  C_6 
REMARK    2  A    between atoms: C_6  and  C_7 
REMARK    3  A    between atoms: C_7  and  O_8 
REMARK    4  A    between atoms: C_7  and  C_9 
REMARK    5  A    between atoms: C_18  and  C_19 
REMARK    6  A    between atoms: C_19  and  N_20 
ROOT
HETATM    1  C   UNL     1     -40.676 -52.231  11.855  1.00  0.00     0.070 C 
HETATM    2  C   UNL     1     -41.516 -53.085  12.779  1.00  0.00     0.029 A 
HETATM    3  N   UNL     1     -42.783 -53.173  12.525  1.00  0.00    -0.300 N 
ATOM      4  HN  UNL     1     -43.192 -52.681  11.731  1.00  0.00     0.187 HD
HETATM    5  N   UNL     1     -43.564 -53.946  13.352  1.00  0.00    -0.253 N 
HETATM    6  C   UNL     1     -43.075 -54.680  14.422  1.00  0.00     0.282 A 
HETATM    7  O   UNL     1     -43.773 -55.416  15.114  1.00  0.00    -0.265 OA
HETATM    8  C   UNL     1     -41.636 -54.519  14.687  1.00  0.00     0.103 A 
HETATM    9  C   UNL     1     -40.839 -53.757  13.919  1.00  0.00    -0.013 A 
HETATM   10  C   UNL     1     -39.367 -53.539  14.124  1.00  0.00     0.052 C 
ENDROOT
BRANCH   5  11
HETATM   11  C   UNL     1     -44.983 -54.045  13.010  1.00  0.00     0.189 C 
BRANCH  11  12
HETATM   12  C   UNL     1     -45.664 -52.662  12.889  1.00  0.00     0.174 C 
BRANCH  12  13
HETATM   13  O   UNL     1     -46.873 -52.737  12.116  1.00  0.00    -0.389 OA
HETATM   14  H   UNL     1     -46.637 -53.055  11.222  1.00  0.00     0.210 HD
ENDBRANCH  12  13
BRANCH  12  15
HETATM   15  C   UNL     1     -45.967 -52.048  14.242  1.00  0.00     0.011 A 
HETATM   16  C   UNL     1     -47.128 -52.360  14.970  1.00  0.00     0.013 A 
HETATM   17  C   UNL     1     -47.375 -51.771  16.214  1.00  0.00     0.001 A 
HETATM   18  C   UNL     1     -46.469 -50.859  16.751  1.00  0.00     0.003 A 
HETATM   19  C   UNL     1     -45.317 -50.532  16.041  1.00  0.00     0.043 A 
HETATM   20  C   UNL     1     -45.080 -51.119  14.800  1.00  0.00     0.125 A 
HETATM   21  F   UNL     1     -43.968 -50.775  14.136  1.00  0.00    -0.205 F 
ENDBRANCH  12  15
ENDBRANCH  11  12
ENDBRANCH   5  11
BRANCH   8  22
HETATM   22  C   UNL     1     -41.026 -55.228  15.885  1.00  0.00    -0.031 C 
BRANCH  22  23
HETATM   23  N   UNL     1     -40.520 -55.816  16.879  1.00  0.00    -0.365 N 
ATOM     24  HN2 UNL     1     -40.942 -55.342  16.081  1.00  0.00     0.165 HD
ATOM     25  HN1 UNL     1     -40.111 -56.292  17.683  1.00  0.00     0.165 HD
ENDBRANCH  22  23
ENDBRANCH   8  22
TORSDOF 6
ENDMDL
MODEL 2
REMARK VINA RESULT:      -6.3      3.101      4.392
REMARK  6 active torsions:
REMARK  status: ('A' for Active; 'I' for Inactive)
REMARK    1  A    between atoms: N_5  and  C_6 
REMARK    2  A    between atoms: C_6  and  C_7 
REMARK    3  A    between atoms: C_7  and  O_8 
REMARK    4  A    between atoms: C_7  and  C_9 
REMARK    5  A    between atoms: C_18  and  C_19 
REMARK    6  A    between atoms: C_19  and  N_20 
ROOT
HETATM    1  C   UNL     1     -43.341 -48.022  11.846  1.00  0.00     0.070 C 
HETATM    2  C   UNL     1     -42.366 -49.169  11.997  1.00  0.00     0.029 A 
HETATM    3  N   UNL     1     -42.825 -50.288  12.459  1.00  0.00    -0.300 N 
ATOM      4  HN  UNL     1     -43.808 -50.384  12.712  1.00  0.00     0.187 HD
HETATM    5  N   UNL     1     -41.955 -51.343  12.601  1.00  0.00    -0.253 N 
HETATM    6  C   UNL     1     -40.617 -51.304  12.237  1.00  0.00     0.282 A 
HETATM    7  O   UNL     1     -39.866 -52.272  12.309  1.00  0.00    -0.265 OA
HETATM    8  C   UNL     1     -40.139 -50.000  11.748  1.00  0.00     0.103 A 
HETATM    9  C   UNL     1     -40.949 -48.936  11.614  1.00  0.00    -0.013 A 
HETATM   10  C   UNL     1     -40.539 -47.574  11.127  1.00  0.00     0.052 C 
ENDROOT
BRANCH   5  11
HETATM   11  C   UNL     1     -42.521 -52.598  13.095  1.00  0.00     0.189 C 
BRANCH  11  12
HETATM   12  C   UNL     1     -43.993 -52.796  12.667  1.00  0.00     0.174 C 
BRANCH  12  13
HETATM   13  O   UNL     1     -44.214 -54.113  12.137  1.00  0.00    -0.389 OA
HETATM   14  H   UNL     1     -45.120 -54.140  11.770  1.00  0.00     0.210 HD
ENDBRANCH  12  13
BRANCH  12  15
HETATM   15  C   UNL     1     -44.964 -52.540  13.802  1.00  0.00     0.011 A 
HETATM   16  C   UNL     1     -44.845 -53.167  15.054  1.00  0.00     0.013 A 
HETATM   17  C   UNL     1     -45.762 -52.907  16.078  1.00  0.00     0.001 A 
HETATM   18  C   UNL     1     -46.815 -52.019  15.868  1.00  0.00     0.003 A 
HETATM   19  C   UNL     1     -46.953 -51.394  14.633  1.00  0.00     0.043 A 
HETATM   20  C   UNL     1     -46.039 -51.661  13.617  1.00  0.00     0.125 A 
HETATM   21  F   UNL     1     -46.207 -51.052  12.434  1.00  0.00    -0.205 F 
ENDBRANCH  12  15
ENDBRANCH  11  12
ENDBRANCH   5  11
BRANCH   8  22
HETATM   22  C   UNL     1     -38.669 -49.841  11.395  1.00  0.00    -0.031 C 
BRANCH  22  23
HETATM   23  N   UNL     1     -37.450 -49.710  11.103  1.00  0.00    -0.365 N 
ATOM     24  HN2 UNL     1     -38.433 -49.827  11.348  1.00  0.00     0.165 HD
ATOM     25  HN1 UNL     1     -36.463 -49.605  10.866  1.00  0.00     0.165 HD
ENDBRANCH  22  23
ENDBRANCH   8  22
TORSDOF 6
ENDMDL
MODEL 3
REMARK VINA RESULT:      -6.3      2.578      5.723
REMARK  6 active torsions:
REMARK  status: ('A' for Active; 'I' for Inactive)
REMARK    1  A    between atoms: N_5  and  C_6 
REMARK    2  A    between atoms: C_6  and  C_7 
REMARK    3  A    between atoms: C_7  and  O_8 
REMARK    4  A    between atoms: C_7  and  C_9 
REMARK    5  A    between atoms: C_18  and  C_19 
REMARK    6  A    between atoms: C_19  and  N_20 
ROOT
HETATM    1  C   UNL     1     -46.541 -52.201  12.321  1.00  0.00     0.070 C 
HETATM    2  C   UNL     1     -45.333 -51.828  13.153  1.00  0.00     0.029 A 
HETATM    3  N   UNL     1     -44.165 -51.990  12.618  1.00  0.00    -0.300 N 
ATOM      4  HN  UNL     1     -44.070 -52.358  11.671  1.00  0.00     0.187 HD
HETATM    5  N   UNL     1     -43.054 -51.654  13.356  1.00  0.00    -0.253 N 
HETATM    6  C   UNL     1     -43.102 -51.107  14.630  1.00  0.00     0.282 A 
HETATM    7  O   UNL     1     -42.106 -50.753  15.254  1.00  0.00    -0.265 OA
HETATM    8  C   UNL     1     -44.452 -50.974  15.204  1.00  0.00     0.103 A 
HETATM    9  C   UNL     1     -45.563 -51.310  14.527  1.00  0.00    -0.013 A 
HETATM   10  C   UNL     1     -46.971 -51.208  15.041  1.00  0.00     0.052 C 
ENDROOT
BRANCH   5  11
HETATM   11  C   UNL     1     -41.757 -51.822  12.702  1.00  0.00     0.189 C 
BRANCH  11  12
HETATM   12  C   UNL     1     -41.392 -53.306  12.474  1.00  0.00     0.174 C 
BRANCH  12  13
HETATM   13  O   UNL     1     -40.454 -53.458  11.396  1.00  0.00    -0.389 OA
HETATM   14  H   UNL     1     -40.450 -54.400  11.133  1.00  0.00     0.210 HD
ENDBRANCH  12  13
BRANCH  12  15
HETATM   15  C   UNL     1     -40.836 -53.963  13.722  1.00  0.00     0.011 A 
HETATM   16  C   UNL     1     -39.461 -53.994  14.011  1.00  0.00     0.013 A 
HETATM   17  C   UNL     1     -38.985 -54.611  15.171  1.00  0.00     0.001 A 
HETATM   18  C   UNL     1     -39.872 -55.210  16.062  1.00  0.00     0.003 A 
HETATM   19  C   UNL     1     -41.237 -55.196  15.790  1.00  0.00     0.043 A 
HETATM   20  C   UNL     1     -41.703 -54.583  14.629  1.00  0.00     0.125 A 
HETATM   21  F   UNL     1     -43.023 -54.597  14.390  1.00  0.00    -0.205 F 
ENDBRANCH  12  15
ENDBRANCH  11  12
ENDBRANCH   5  11
BRANCH   8  22
HETATM   22  C   UNL     1     -44.597 -50.453  16.624  1.00  0.00    -0.031 C 
BRANCH  22  23
HETATM   23  N   UNL     1     -44.718 -50.020  17.802  1.00  0.00    -0.365 N 
ATOM     24  HN2 UNL     1     -44.628 -50.359  16.844  1.00  0.00     0.165 HD
ATOM     25  HN1 UNL     1     -44.817 -49.670  18.755  1.00  0.00     0.165 HD
ENDBRANCH  22  23
ENDBRANCH   8  22
TORSDOF 6
ENDMDL
MODEL 4
REMARK VINA RESULT:      -6.2      4.451      6.298
REMARK  6 active torsions:
REMARK  status: ('A' for Active; 'I' for Inactive)
REMARK    1  A    between atoms: N_5  and  C_6 
REMARK    2  A    between atoms: C_6  and  C_7 
REMARK    3  A    between atoms: C_7  and  O_8 
REMARK    4  A    between atoms: C_7  and  C_9 
REMARK    5  A    between atoms: C_18  and  C_19 
REMARK    6  A    between atoms: C_19  and  N_20 
ROOT
HETATM    1  C   UNL     1     -42.645 -47.975   9.614  1.00  0.00     0.070 C 
HETATM    2  C   UNL     1     -41.767 -48.230  10.819  1.00  0.00     0.029 A 
HETATM    3  N   UNL     1     -41.724 -49.439  11.282  1.00  0.00    -0.300 N 
ATOM      4  HN  UNL     1     -42.266 -50.185  10.847  1.00  0.00     0.187 HD
HETATM    5  N   UNL     1     -40.930 -49.693  12.376  1.00  0.00    -0.253 N 
HETATM    6  C   UNL     1     -40.130 -48.743  12.994  1.00  0.00     0.282 A 
HETATM    7  O   UNL     1     -39.377 -48.996  13.931  1.00  0.00    -0.265 OA
HETATM    8  C   UNL     1     -40.241 -47.380  12.450  1.00  0.00     0.103 A 
HETATM    9  C   UNL     1     -41.020 -47.082  11.396  1.00  0.00    -0.013 A 
HETATM   10  C   UNL     1     -41.190 -45.720  10.785  1.00  0.00     0.052 C 
ENDROOT
BRANCH   5  11
HETATM   11  C   UNL     1     -40.884 -51.077  12.846  1.00  0.00     0.189 C 
BRANCH  11  12
HETATM   12  C   UNL     1     -41.922 -51.980  12.141  1.00  0.00     0.174 C 
BRANCH  12  13
HETATM   13  O   UNL     1     -41.376 -52.583  10.957  1.00  0.00    -0.389 OA
HETATM   14  H   UNL     1     -41.894 -52.262  10.192  1.00  0.00     0.210 HD
ENDBRANCH  12  13
BRANCH  12  15
HETATM   15  C   UNL     1     -42.462 -53.061  13.056  1.00  0.00     0.011 A 
HETATM   16  C   UNL     1     -41.685 -53.655  14.065  1.00  0.00     0.013 A 
HETATM   17  C   UNL     1     -42.217 -54.652  14.888  1.00  0.00     0.001 A 
HETATM   18  C   UNL     1     -43.532 -55.076  14.716  1.00  0.00     0.003 A 
HETATM   19  C   UNL     1     -44.316 -54.505  13.717  1.00  0.00     0.043 A 
HETATM   20  C   UNL     1     -43.777 -53.515  12.898  1.00  0.00     0.125 A 
HETATM   21  F   UNL     1     -44.554 -52.993  11.938  1.00  0.00    -0.205 F 
ENDBRANCH  12  15
ENDBRANCH  11  12
ENDBRANCH   5  11
BRANCH   8  22
HETATM   22  C   UNL     1     -39.456 -46.258  13.111  1.00  0.00    -0.031 C 
BRANCH  22  23
HETATM   23  N   UNL     1     -38.806 -45.328  13.660  1.00  0.00    -0.365 N 
ATOM     24  HN2 UNL     1     -39.320 -46.087  13.213  1.00  0.00     0.165 HD
ATOM     25  HN1 UNL     1     -38.280 -44.575  14.103  1.00  0.00     0.165 HD
ENDBRANCH  22  23
ENDBRANCH   8  22
TORSDOF 6
ENDMDL
MODEL 5
REMARK VINA RESULT:      -6.2      1.464      1.831
REMARK  6 active torsions:
REMARK  status: ('A' for Active; 'I' for Inactive)
REMARK    1  A    between atoms: N_5  and  C_6 
REMARK    2  A    between atoms: C_6  and  C_7 
REMARK    3  A    between atoms: C_7  and  O_8 
REMARK    4  A    between atoms: C_7  and  C_9 
REMARK    5  A    between atoms: C_18  and  C_19 
REMARK    6  A    between atoms: C_19  and  N_20 
ROOT
HETATM    1  C   UNL     1     -40.910 -49.659  11.656  1.00  0.00     0.070 C 
HETATM    2  C   UNL     1     -41.307 -50.977  12.285  1.00  0.00     0.029 A 
HETATM    3  N   UNL     1     -42.570 -51.260  12.335  1.00  0.00    -0.300 N 
ATOM      4  HN  UNL     1     -43.265 -50.612  11.964  1.00  0.00     0.187 HD
HETATM    5  N   UNL     1     -42.951 -52.454  12.901  1.00  0.00    -0.253 N 
HETATM    6  C   UNL     1     -42.065 -53.404  13.385  1.00  0.00     0.282 A 
HETATM    7  O   UNL     1     -42.415 -54.494  13.830  1.00  0.00    -0.265 OA
HETATM    8  C   UNL     1     -40.644 -53.020  13.335  1.00  0.00     0.103 A 
HETATM    9  C   UNL     1     -40.228 -51.854  12.811  1.00  0.00    -0.013 A 
HETATM   10  C   UNL     1     -38.803 -51.387  12.725  1.00  0.00     0.052 C 
ENDROOT
BRANCH   5  11
HETATM   11  C   UNL     1     -44.384 -52.748  12.907  1.00  0.00     0.189 C 
BRANCH  11  12
HETATM   12  C   UNL     1     -45.252 -51.479  13.059  1.00  0.00     0.174 C 
BRANCH  12  13
HETATM   13  O   UNL     1     -46.384 -51.506  12.174  1.00  0.00    -0.389 OA
HETATM   14  H   UNL     1     -47.077 -50.933  12.558  1.00  0.00     0.210 HD
ENDBRANCH  12  13
BRANCH  12  15
HETATM   15  C   UNL     1     -45.730 -51.273  14.483  1.00  0.00     0.011 A 
HETATM   16  C   UNL     1     -47.002 -51.683  14.919  1.00  0.00     0.013 A 
HETATM   17  C   UNL     1     -47.409 -51.475  16.240  1.00  0.00     0.001 A 
HETATM   18  C   UNL     1     -46.556 -50.851  17.148  1.00  0.00     0.003 A 
HETATM   19  C   UNL     1     -45.295 -50.432  16.733  1.00  0.00     0.043 A 
HETATM   20  C   UNL     1     -44.898 -50.639  15.414  1.00  0.00     0.125 A 
HETATM   21  F   UNL     1     -43.683 -50.213  15.042  1.00  0.00    -0.205 F 
ENDBRANCH  12  15
ENDBRANCH  11  12
ENDBRANCH   5  11
BRANCH   8  22
HETATM   22  C   UNL     1     -39.605 -53.968  13.911  1.00  0.00    -0.031 C 
BRANCH  22  23
HETATM   23  N   UNL     1     -38.744 -54.754  14.389  1.00  0.00    -0.365 N 
ATOM     24  HN2 UNL     1     -39.432 -54.108  14.003  1.00  0.00     0.165 HD
ATOM     25  HN1 UNL     1     -38.047 -55.391  14.776  1.00  0.00     0.165 HD
ENDBRANCH  22  23
ENDBRANCH   8  22
TORSDOF 6
ENDMDL
MODEL 6
REMARK VINA RESULT:      -6.1      3.898      6.200
REMARK  6 active torsions:
REMARK  status: ('A' for Active; 'I' for Inactive)
REMARK    1  A    between atoms: N_5  and  C_6 
REMARK    2  A    between atoms: C_6  and  C_7 
REMARK    3  A    between atoms: C_7  and  O_8 
REMARK    4  A    between atoms: C_7  and  C_9 
REMARK    5  A    between atoms: C_18  and  C_19 
REMARK    6  A    between atoms: C_19  and  N_20 
ROOT
HETATM    1  C   UNL     1     -43.080 -48.508  15.361  1.00  0.00     0.070 C 
HETATM    2  C   UNL     1     -42.172 -48.843  14.198  1.00  0.00     0.029 A 
HETATM    3  N   UNL     1     -41.689 -50.044  14.142  1.00  0.00    -0.300 N 
ATOM      4  HN  UNL     1     -41.916 -50.732  14.860  1.00  0.00     0.187 HD
HETATM    5  N   UNL     1     -40.864 -50.369  13.091  1.00  0.00    -0.253 N 
HETATM    6  C   UNL     1     -40.546 -49.505  12.055  1.00  0.00     0.282 A 
HETATM    7  O   UNL     1     -39.859 -49.827  11.090  1.00  0.00    -0.265 OA
HETATM    8  C   UNL     1     -41.093 -48.144  12.183  1.00  0.00     0.103 A 
HETATM    9  C   UNL     1     -41.886 -47.776  13.204  1.00  0.00    -0.013 A 
HETATM   10  C   UNL     1     -42.479 -46.411  13.409  1.00  0.00     0.052 C 
ENDROOT
BRANCH   5  11
HETATM   11  C   UNL     1     -40.368 -51.744  13.049  1.00  0.00     0.189 C 
BRANCH  11  12
HETATM   12  C   UNL     1     -41.309 -52.693  12.271  1.00  0.00     0.174 C 
BRANCH  12  13
HETATM   13  O   UNL     1     -40.577 -53.535  11.366  1.00  0.00    -0.389 OA
HETATM   14  H   UNL     1     -40.141 -52.959  10.707  1.00  0.00     0.210 HD
ENDBRANCH  12  13
BRANCH  12  15
HETATM   15  C   UNL     1     -42.152 -53.553  13.192  1.00  0.00     0.011 A 
HETATM   16  C   UNL     1     -41.618 -54.199  14.321  1.00  0.00     0.013 A 
HETATM   17  C   UNL     1     -42.426 -54.987  15.146  1.00  0.00     0.001 A 
HETATM   18  C   UNL     1     -43.779 -55.146  14.857  1.00  0.00     0.003 A 
HETATM   19  C   UNL     1     -44.325 -54.520  13.740  1.00  0.00     0.043 A 
HETATM   20  C   UNL     1     -43.512 -53.741  12.920  1.00  0.00     0.125 A 
HETATM   21  F   UNL     1     -44.065 -53.162  11.845  1.00  0.00    -0.205 F 
ENDBRANCH  12  15
ENDBRANCH  11  12
ENDBRANCH   5  11
BRANCH   8  22
HETATM   22  C   UNL     1     -40.736 -47.106  11.131  1.00  0.00    -0.031 C 
BRANCH  22  23
HETATM   23  N   UNL     1     -40.440 -46.246  10.259  1.00  0.00    -0.365 N 
ATOM     24  HN2 UNL     1     -40.678 -46.952  10.955  1.00  0.00     0.165 HD
ATOM     25  HN1 UNL     1     -40.201 -45.550   9.552  1.00  0.00     0.165 HD
ENDBRANCH  22  23
ENDBRANCH   8  22
TORSDOF 6
ENDMDL
MODEL 7
REMARK VINA RESULT:      -6.0      4.392      6.277
REMARK  6 active torsions:
REMARK  status: ('A' for Active; 'I' for Inactive)
REMARK    1  A    between atoms: N_5  and  C_6 
REMARK    2  A    between atoms: C_6  and  C_7 
REMARK    3  A    between atoms: C_7  and  O_8 
REMARK    4  A    between atoms: C_7  and  C_9 
REMARK    5  A    between atoms: C_18  and  C_19 
REMARK    6  A    between atoms: C_19  and  N_20 
ROOT
HETATM    1  C   UNL     1     -40.850 -54.159  12.883  1.00  0.00     0.070 C 
HETATM    2  C   UNL     1     -41.552 -52.821  12.972  1.00  0.00     0.029 A 
HETATM    3  N   UNL     1     -40.823 -51.755  12.881  1.00  0.00    -0.300 N 
ATOM      4  HN  UNL     1     -39.813 -51.822  12.755  1.00  0.00     0.187 HD
HETATM    5  N   UNL     1     -41.442 -50.530  12.957  1.00  0.00    -0.253 N 
HETATM    6  C   UNL     1     -42.813 -50.357  13.081  1.00  0.00     0.282 A 
HETATM    7  O   UNL     1     -43.360 -49.258  13.083  1.00  0.00    -0.265 OA
HETATM    8  C   UNL     1     -43.592 -51.599  13.213  1.00  0.00     0.103 A 
HETATM    9  C   UNL     1     -43.026 -52.817  13.166  1.00  0.00    -0.013 A 
HETATM   10  C   UNL     1     -43.747 -54.128  13.297  1.00  0.00     0.052 C 
ENDROOT
BRANCH   5  11
HETATM   11  C   UNL     1     -40.586 -49.353  12.815  1.00  0.00     0.189 C 
BRANCH  11  12
HETATM   12  C   UNL     1     -40.290 -49.005  11.338  1.00  0.00     0.174 C 
BRANCH  12  13
HETATM   13  O   UNL     1     -40.482 -50.143  10.481  1.00  0.00    -0.389 OA
HETATM   14  H   UNL     1     -41.248 -50.647  10.821  1.00  0.00     0.210 HD
ENDBRANCH  12  13
BRANCH  12  15
HETATM   15  C   UNL     1     -41.132 -47.848  10.837  1.00  0.00     0.011 A 
HETATM   16  C   UNL     1     -42.320 -48.037  10.111  1.00  0.00     0.013 A 
HETATM   17  C   UNL     1     -43.069 -46.945   9.663  1.00  0.00     0.001 A 
HETATM   18  C   UNL     1     -42.644 -45.646   9.929  1.00  0.00     0.003 A 
HETATM   19  C   UNL     1     -41.466 -45.438  10.641  1.00  0.00     0.043 A 
HETATM   20  C   UNL     1     -40.723 -46.531  11.080  1.00  0.00     0.125 A 
HETATM   21  F   UNL     1     -39.586 -46.298  11.752  1.00  0.00    -0.205 F 
ENDBRANCH  12  15
ENDBRANCH  11  12
ENDBRANCH   5  11
BRANCH   8  22
HETATM   22  C   UNL     1     -45.094 -51.505  13.427  1.00  0.00    -0.031 C 
BRANCH  22  23
HETATM   23  N   UNL     1     -46.339 -51.428  13.605  1.00  0.00    -0.365 N 
ATOM     24  HN2 UNL     1     -45.334 -51.490  13.447  1.00  0.00     0.165 HD
ATOM     25  HN1 UNL     1     -47.347 -51.366  13.748  1.00  0.00     0.165 HD
ENDBRANCH  22  23
ENDBRANCH   8  22
TORSDOF 6
ENDMDL
MODEL 8
REMARK VINA RESULT:      -5.9      2.735      5.977
REMARK  6 active torsions:
REMARK  status: ('A' for Active; 'I' for Inactive)
REMARK    1  A    between atoms: N_5  and  C_6 
REMARK    2  A    between atoms: C_6  and  C_7 
REMARK    3  A    between atoms: C_7  and  O_8 
REMARK    4  A    between atoms: C_7  and  C_9 
REMARK    5  A    between atoms: C_18  and  C_19 
REMARK    6  A    between atoms: C_19  and  N_20 
ROOT
HETATM    1  C   UNL     1     -44.049 -50.016  16.137  1.00  0.00     0.070 C 
HETATM    2  C   UNL     1     -44.120 -51.119  15.104  1.00  0.00     0.029 A 
HETATM    3  N   UNL     1     -43.275 -51.075  14.123  1.00  0.00    -0.300 N 
ATOM      4  HN  UNL     1     -42.592 -50.321  14.056  1.00  0.00     0.187 HD
HETATM    5  N   UNL     1     -43.322 -52.070  13.174  1.00  0.00    -0.253 N 
HETATM    6  C   UNL     1     -44.190 -53.150  13.221  1.00  0.00     0.282 A 
HETATM    7  O   UNL     1     -44.180 -54.065  12.403  1.00  0.00    -0.265 OA
HETATM    8  C   UNL     1     -45.151 -53.134  14.337  1.00  0.00     0.103 A 
HETATM    9  C   UNL     1     -45.156 -52.171  15.275  1.00  0.00    -0.013 A 
HETATM   10  C   UNL     1     -46.101 -52.082  16.439  1.00  0.00     0.052 C 
ENDROOT
BRANCH   5  11
HETATM   11  C   UNL     1     -42.329 -52.001  12.103  1.00  0.00     0.189 C 
BRANCH  11  12
HETATM   12  C   UNL     1     -40.941 -52.520  12.543  1.00  0.00     0.174 C 
BRANCH  12  13
HETATM   13  O   UNL     1     -40.485 -53.586  11.694  1.00  0.00    -0.389 OA
HETATM   14  H   UNL     1     -40.032 -54.244  12.259  1.00  0.00     0.210 HD
ENDBRANCH  12  13
BRANCH  12  15
HETATM   15  C   UNL     1     -39.898 -51.420  12.578  1.00  0.00     0.011 A 
HETATM   16  C   UNL     1     -39.991 -50.265  11.782  1.00  0.00     0.013 A 
HETATM   17  C   UNL     1     -39.008 -49.273  11.839  1.00  0.00     0.001 A 
HETATM   18  C   UNL     1     -37.913 -49.418  12.689  1.00  0.00     0.003 A 
HETATM   19  C   UNL     1     -37.800 -50.558  13.479  1.00  0.00     0.043 A 
HETATM   20  C   UNL     1     -38.781 -51.544  13.413  1.00  0.00     0.125 A 
HETATM   21  F   UNL     1     -38.637 -52.636  14.178  1.00  0.00    -0.205 F 
ENDBRANCH  12  15
ENDBRANCH  11  12
ENDBRANCH   5  11
BRANCH   8  22
HETATM   22  C   UNL     1     -46.190 -54.240  14.428  1.00  0.00    -0.031 C 
BRANCH  22  23
HETATM   23  N   UNL     1     -47.052 -55.157  14.504  1.00  0.00    -0.365 N 
ATOM     24  HN2 UNL     1     -46.344 -54.425  14.442  1.00  0.00     0.165 HD
ATOM     25  HN1 UNL     1     -47.749 -55.899  14.566  1.00  0.00     0.165 HD
ENDBRANCH  22  23
ENDBRANCH   8  22
TORSDOF 6
ENDMDL
MODEL 9
REMARK VINA RESULT:      -5.9      2.476      6.452
REMARK  6 active torsions:
REMARK  status: ('A' for Active; 'I' for Inactive)
REMARK    1  A    between atoms: N_5  and  C_6 
REMARK    2  A    between atoms: C_6  and  C_7 
REMARK    3  A    between atoms: C_7  and  O_8 
REMARK    4  A    between atoms: C_7  and  C_9 
REMARK    5  A    between atoms: C_18  and  C_19 
REMARK    6  A    between atoms: C_19  and  N_20 
ROOT
HETATM    1  C   UNL     1     -45.673 -52.266  17.398  1.00  0.00     0.070 C 
HETATM    2  C   UNL     1     -45.286 -52.776  16.027  1.00  0.00     0.029 A 
HETATM    3  N   UNL     1     -44.296 -53.607  15.955  1.00  0.00    -0.300 N 
ATOM      4  HN  UNL     1     -43.798 -53.901  16.795  1.00  0.00     0.187 HD
HETATM    5  N   UNL     1     -43.930 -54.085  14.718  1.00  0.00    -0.253 N 
HETATM    6  C   UNL     1     -44.585 -53.769  13.537  1.00  0.00     0.282 A 
HETATM    7  O   UNL     1     -44.290 -54.251  12.447  1.00  0.00    -0.265 OA
HETATM    8  C   UNL     1     -45.682 -52.796  13.670  1.00  0.00     0.103 A 
HETATM    9  C   UNL     1     -46.059 -52.287  14.855  1.00  0.00    -0.013 A 
HETATM   10  C   UNL     1     -47.162 -51.291  15.074  1.00  0.00     0.052 C 
ENDROOT
BRANCH   5  11
HETATM   11  C   UNL     1     -42.829 -55.046  14.686  1.00  0.00     0.189 C 
BRANCH  11  12
HETATM   12  C   UNL     1     -41.442 -54.364  14.713  1.00  0.00     0.174 C 
BRANCH  12  13
HETATM   13  O   UNL     1     -41.536 -52.998  15.149  1.00  0.00    -0.389 OA
HETATM   14  H   UNL     1     -42.476 -52.810  15.342  1.00  0.00     0.210 HD
ENDBRANCH  12  13
BRANCH  12  15
HETATM   15  C   UNL     1     -40.450 -55.106  15.587  1.00  0.00     0.011 A 
HETATM   16  C   UNL     1     -40.851 -55.921  16.659  1.00  0.00     0.013 A 
HETATM   17  C   UNL     1     -39.907 -56.589  17.446  1.00  0.00     0.001 A 
HETATM   18  C   UNL     1     -38.547 -56.452  17.177  1.00  0.00     0.003 A 
HETATM   19  C   UNL     1     -38.131 -55.645  16.123  1.00  0.00     0.043 A 
HETATM   20  C   UNL     1     -39.077 -54.979  15.347  1.00  0.00     0.125 A 
HETATM   21  F   UNL     1     -38.643 -54.198  14.347  1.00  0.00    -0.205 F 
ENDBRANCH  12  15
ENDBRANCH  11  12
ENDBRANCH   5  11
BRANCH   8  22
HETATM   22  C   UNL     1     -46.410 -52.334  12.418  1.00  0.00    -0.031 C 
BRANCH  22  23
HETATM   23  N   UNL     1     -47.014 -51.950  11.380  1.00  0.00    -0.365 N 
ATOM     24  HN2 UNL     1     -46.517 -52.249  12.219  1.00  0.00     0.165 HD
ATOM     25  HN1 UNL     1     -47.502 -51.640  10.539  1.00  0.00     0.165 HD
ENDBRANCH  22  23
ENDBRANCH   8  22
TORSDOF 6
ENDMDL
