MODEL 1
REMARK VINA RESULT:      -6.1      0.000      0.000
REMARK  6 active torsions:
REMARK  status: ('A' for Active; 'I' for Inactive)
REMARK    1  A    between atoms: C_2  and  C_3 
REMARK    2  A    between atoms: C_2  and  N_11 
REMARK    3  A    between atoms: C_3  and  N_4 
REMARK    4  A    between atoms: N_11  and  C_12 
REMARK    5  A    between atoms: C_12  and  C_13 
REMARK    6  A    between atoms: C_13  and  C_14 
REMARK       I    between atoms: C_14  and  N_16 
ROOT
HETATM    1  N   UNL     1     -42.723 -49.446  11.718  1.00  0.00     0.089 N 
HETATM    2  H   UNL     1     -42.635 -50.366  11.282  1.00  0.00     0.316 HD
ENDROOT
BRANCH   1   3
HETATM    3  C   UNL     1     -41.451 -48.717  11.518  1.00  0.00     0.236 C 
HETATM    4  C   UNL     1     -40.403 -49.758  11.102  1.00  0.00     0.044 C 
BRANCH   3   5
HETATM    5  C   UNL     1     -41.573 -47.600  10.463  1.00  0.00     0.183 C 
BRANCH   5   6
HETATM    6  N   UNL     1     -42.820 -47.628   9.730  1.00  0.00    -0.301 N 
HETATM    7  C   UNL     1     -44.041 -47.235  10.190  1.00  0.00     0.118 A 
HETATM    8  C   UNL     1     -44.914 -47.373   9.133  1.00  0.00    -0.028 A 
HETATM    9  C   UNL     1     -46.358 -47.071   9.097  1.00  0.00     0.051 C 
HETATM   10  C   UNL     1     -44.105 -47.861   8.080  1.00  0.00     0.115 A 
HETATM   11  N   UNL     1     -42.832 -48.017   8.442  1.00  0.00    -0.310 N 
ATOM     12  HN  UNL     1     -42.052 -48.352   7.876  1.00  0.00     0.186 HD
ENDBRANCH   5   6
ENDBRANCH   3   5
ENDBRANCH   1   3
BRANCH   1  13
HETATM   13  C   UNL     1     -43.048 -49.630  13.140  1.00  0.00     0.279 C 
BRANCH  13  14
HETATM   14  C   UNL     1     -44.200 -50.615  13.256  1.00  0.00     0.133 C 
BRANCH  14  15
HETATM   15  C   UNL     1     -43.725 -52.051  13.146  1.00  0.00     0.221 C 
HETATM   16  O   UNL     1     -42.812 -52.379  12.389  1.00  0.00    -0.273 OA
HETATM   17  N   UNL     1     -44.448 -52.972  13.884  1.00  0.00    -0.348 N 
HETATM   18  C   UNL     1     -44.206 -54.401  13.693  1.00  0.00     0.152 C 
HETATM   19  C   UNL     1     -45.221 -52.655  15.088  1.00  0.00     0.152 C 
HETATM   20  C   UNL     1     -45.526 -55.173  13.794  1.00  0.00     0.187 C 
HETATM   21  O   UNL     1     -46.205 -54.892  15.030  1.00  0.00    -0.388 OA
HETATM   22  C   UNL     1     -46.499 -53.493  15.144  1.00  0.00     0.187 C 
ENDBRANCH  14  15
ENDBRANCH  13  14
ENDBRANCH   1  13
TORSDOF 6
ENDMDL
MODEL 2
REMARK VINA RESULT:      -5.9      2.480      3.328
REMARK  6 active torsions:
REMARK  status: ('A' for Active; 'I' for Inactive)
REMARK    1  A    between atoms: C_2  and  C_3 
REMARK    2  A    between atoms: C_2  and  N_11 
REMARK    3  A    between atoms: C_3  and  N_4 
REMARK    4  A    between atoms: N_11  and  C_12 
REMARK    5  A    between atoms: C_12  and  C_13 
REMARK    6  A    between atoms: C_13  and  C_14 
REMARK       I    between atoms: C_14  and  N_16 
ROOT
HETATM    1  N   UNL     1     -40.129 -47.504  11.035  1.00  0.00     0.089 N 
HETATM    2  H   UNL     1     -39.573 -46.658  11.180  1.00  0.00     0.316 HD
ENDROOT
BRANCH   1   3
HETATM    3  C   UNL     1     -41.554 -47.161  11.239  1.00  0.00     0.236 C 
HETATM    4  C   UNL     1     -41.637 -46.374  12.555  1.00  0.00     0.044 C 
BRANCH   3   5
HETATM    5  C   UNL     1     -42.137 -46.347  10.068  1.00  0.00     0.183 C 
BRANCH   5   6
HETATM    6  N   UNL     1     -43.208 -47.023   9.368  1.00  0.00    -0.301 N 
HETATM    7  C   UNL     1     -44.468 -47.249   9.837  1.00  0.00     0.118 A 
HETATM    8  C   UNL     1     -45.157 -47.857   8.810  1.00  0.00    -0.028 A 
HETATM    9  C   UNL     1     -46.565 -48.301   8.794  1.00  0.00     0.051 C 
HETATM   10  C   UNL     1     -44.209 -47.950   7.766  1.00  0.00     0.115 A 
HETATM   11  N   UNL     1     -43.023 -47.444   8.103  1.00  0.00    -0.310 N 
ATOM     12  HN  UNL     1     -42.176 -47.388   7.537  1.00  0.00     0.186 HD
ENDBRANCH   5   6
ENDBRANCH   3   5
ENDBRANCH   1   3
BRANCH   1  13
HETATM   13  C   UNL     1     -39.661 -48.539  11.968  1.00  0.00     0.279 C 
BRANCH  13  14
HETATM   14  C   UNL     1     -39.967 -49.906  11.379  1.00  0.00     0.133 C 
BRANCH  14  15
HETATM   15  C   UNL     1     -39.542 -51.026  12.307  1.00  0.00     0.221 C 
HETATM   16  O   UNL     1     -38.361 -51.230  12.585  1.00  0.00    -0.273 OA
HETATM   17  N   UNL     1     -40.563 -51.853  12.745  1.00  0.00    -0.348 N 
HETATM   18  C   UNL     1     -40.239 -53.078  13.475  1.00  0.00     0.152 C 
HETATM   19  C   UNL     1     -41.973 -51.464  12.831  1.00  0.00     0.152 C 
HETATM   20  C   UNL     1     -41.209 -54.196  13.076  1.00  0.00     0.187 C 
HETATM   21  O   UNL     1     -42.577 -53.794  13.259  1.00  0.00    -0.388 OA
HETATM   22  C   UNL     1     -42.880 -52.639  12.464  1.00  0.00     0.187 C 
ENDBRANCH  14  15
ENDBRANCH  13  14
ENDBRANCH   1  13
TORSDOF 6
ENDMDL
MODEL 3
REMARK VINA RESULT:      -5.9      2.671      3.996
REMARK  6 active torsions:
REMARK  status: ('A' for Active; 'I' for Inactive)
REMARK    1  A    between atoms: C_2  and  C_3 
REMARK    2  A    between atoms: C_2  and  N_11 
REMARK    3  A    between atoms: C_3  and  N_4 
REMARK    4  A    between atoms: N_11  and  C_12 
REMARK    5  A    between atoms: C_12  and  C_13 
REMARK    6  A    between atoms: C_13  and  C_14 
REMARK       I    between atoms: C_14  and  N_16 
ROOT
HETATM    1  N   UNL     1     -41.717 -54.281  13.538  1.00  0.00     0.089 N 
HETATM    2  H   UNL     1     -41.011 -55.019  13.491  1.00  0.00     0.316 HD
ENDROOT
BRANCH   1   3
HETATM    3  C   UNL     1     -41.029 -52.976  13.423  1.00  0.00     0.236 C 
HETATM    4  C   UNL     1     -39.624 -53.161  14.016  1.00  0.00     0.044 C 
BRANCH   3   5
HETATM    5  C   UNL     1     -40.954 -52.476  11.967  1.00  0.00     0.183 C 
BRANCH   5   6
HETATM    6  N   UNL     1     -41.279 -51.074  11.818  1.00  0.00    -0.301 N 
HETATM    7  C   UNL     1     -42.179 -50.366  12.558  1.00  0.00     0.118 A 
HETATM    8  C   UNL     1     -42.105 -49.065  12.111  1.00  0.00    -0.028 A 
HETATM    9  C   UNL     1     -42.864 -47.892  12.589  1.00  0.00     0.051 C 
HETATM   10  C   UNL     1     -41.123 -49.105  11.094  1.00  0.00     0.115 A 
HETATM   11  N   UNL     1     -40.621 -50.325  10.914  1.00  0.00    -0.310 N 
ATOM     12  HN  UNL     1     -39.906 -50.622  10.250  1.00  0.00     0.186 HD
ENDBRANCH   5   6
ENDBRANCH   3   5
ENDBRANCH   1   3
BRANCH   1  13
HETATM   13  C   UNL     1     -42.455 -54.417  14.802  1.00  0.00     0.279 C 
BRANCH  13  14
HETATM   14  C   UNL     1     -43.758 -55.152  14.531  1.00  0.00     0.133 C 
BRANCH  14  15
HETATM   15  C   UNL     1     -44.678 -54.352  13.630  1.00  0.00     0.221 C 
HETATM   16  O   UNL     1     -44.532 -54.325  12.409  1.00  0.00    -0.273 OA
HETATM   17  N   UNL     1     -45.632 -53.590  14.282  1.00  0.00    -0.348 N 
HETATM   18  C   UNL     1     -46.433 -52.630  13.524  1.00  0.00     0.152 C 
HETATM   19  C   UNL     1     -46.153 -53.872  15.622  1.00  0.00     0.152 C 
HETATM   20  C   UNL     1     -46.676 -51.372  14.366  1.00  0.00     0.187 C 
HETATM   21  O   UNL     1     -47.265 -51.696  15.636  1.00  0.00    -0.388 OA
HETATM   22  C   UNL     1     -46.413 -52.573  16.384  1.00  0.00     0.187 C 
ENDBRANCH  14  15
ENDBRANCH  13  14
ENDBRANCH   1  13
TORSDOF 6
ENDMDL
MODEL 4
REMARK VINA RESULT:      -5.8      3.749      4.718
REMARK  6 active torsions:
REMARK  status: ('A' for Active; 'I' for Inactive)
REMARK    1  A    between atoms: C_2  and  C_3 
REMARK    2  A    between atoms: C_2  and  N_11 
REMARK    3  A    between atoms: C_3  and  N_4 
REMARK    4  A    between atoms: N_11  and  C_12 
REMARK    5  A    between atoms: C_12  and  C_13 
REMARK    6  A    between atoms: C_13  and  C_14 
REMARK       I    between atoms: C_14  and  N_16 
ROOT
HETATM    1  N   UNL     1     -41.272 -45.890  11.843  1.00  0.00     0.089 N 
HETATM    2  H   UNL     1     -41.605 -46.511  12.584  1.00  0.00     0.316 HD
ENDROOT
BRANCH   1   3
HETATM    3  C   UNL     1     -42.431 -45.509  11.006  1.00  0.00     0.236 C 
HETATM    4  C   UNL     1     -42.601 -43.989  11.149  1.00  0.00     0.044 C 
BRANCH   3   5
HETATM    5  C   UNL     1     -42.248 -45.910   9.529  1.00  0.00     0.183 C 
BRANCH   5   6
HETATM    6  N   UNL     1     -43.291 -46.780   9.031  1.00  0.00    -0.301 N 
HETATM    7  C   UNL     1     -44.528 -46.959   9.574  1.00  0.00     0.118 A 
HETATM    8  C   UNL     1     -45.199 -47.818   8.731  1.00  0.00    -0.028 A 
HETATM    9  C   UNL     1     -46.580 -48.325   8.856  1.00  0.00     0.051 C 
HETATM   10  C   UNL     1     -44.264 -48.096   7.708  1.00  0.00     0.115 A 
HETATM   11  N   UNL     1     -43.103 -47.467   7.888  1.00  0.00    -0.310 N 
ATOM     12  HN  UNL     1     -42.270 -47.497   7.300  1.00  0.00     0.186 HD
ENDBRANCH   5   6
ENDBRANCH   3   5
ENDBRANCH   1   3
BRANCH   1  13
HETATM   13  C   UNL     1     -40.231 -46.590  11.076  1.00  0.00     0.279 C 
BRANCH  13  14
HETATM   14  C   UNL     1     -39.730 -47.769  11.894  1.00  0.00     0.133 C 
BRANCH  14  15
HETATM   15  C   UNL     1     -40.553 -49.018  11.643  1.00  0.00     0.221 C 
HETATM   16  O   UNL     1     -41.691 -48.965  11.179  1.00  0.00    -0.273 OA
HETATM   17  N   UNL     1     -39.971 -50.204  12.055  1.00  0.00    -0.348 N 
HETATM   18  C   UNL     1     -40.757 -51.437  12.047  1.00  0.00     0.152 C 
HETATM   19  C   UNL     1     -38.529 -50.420  12.202  1.00  0.00     0.152 C 
HETATM   20  C   UNL     1     -40.387 -52.301  13.258  1.00  0.00     0.187 C 
HETATM   21  O   UNL     1     -38.973 -52.553  13.308  1.00  0.00    -0.388 OA
HETATM   22  C   UNL     1     -38.239 -51.325  13.399  1.00  0.00     0.187 C 
ENDBRANCH  14  15
ENDBRANCH  13  14
ENDBRANCH   1  13
TORSDOF 6
ENDMDL
MODEL 5
REMARK VINA RESULT:      -5.6      4.094      6.675
REMARK  6 active torsions:
REMARK  status: ('A' for Active; 'I' for Inactive)
REMARK    1  A    between atoms: C_2  and  C_3 
REMARK    2  A    between atoms: C_2  and  N_11 
REMARK    3  A    between atoms: C_3  and  N_4 
REMARK    4  A    between atoms: N_11  and  C_12 
REMARK    5  A    between atoms: C_12  and  C_13 
REMARK    6  A    between atoms: C_13  and  C_14 
REMARK       I    between atoms: C_14  and  N_16 
ROOT
HETATM    1  N   UNL     1     -40.760 -51.787  11.327  1.00  0.00     0.089 N 
HETATM    2  H   UNL     1     -40.971 -51.941  10.339  1.00  0.00     0.316 HD
ENDROOT
BRANCH   1   3
HETATM    3  C   UNL     1     -41.827 -52.423  12.131  1.00  0.00     0.236 C 
HETATM    4  C   UNL     1     -41.200 -53.648  12.812  1.00  0.00     0.044 C 
BRANCH   3   5
HETATM    5  C   UNL     1     -42.434 -51.460  13.170  1.00  0.00     0.183 C 
BRANCH   5   6
HETATM    6  N   UNL     1     -43.848 -51.666  13.395  1.00  0.00    -0.301 N 
HETATM    7  C   UNL     1     -44.561 -51.278  14.491  1.00  0.00     0.118 A 
HETATM    8  C   UNL     1     -45.872 -51.620  14.239  1.00  0.00    -0.028 A 
HETATM    9  C   UNL     1     -47.051 -51.409  15.100  1.00  0.00     0.051 C 
HETATM   10  C   UNL     1     -45.832 -52.212  12.955  1.00  0.00     0.115 A 
HETATM   11  N   UNL     1     -44.603 -52.241  12.441  1.00  0.00    -0.310 N 
ATOM     12  HN  UNL     1     -44.305 -52.611  11.538  1.00  0.00     0.186 HD
ENDBRANCH   5   6
ENDBRANCH   3   5
ENDBRANCH   1   3
BRANCH   1  13
HETATM   13  C   UNL     1     -40.661 -50.341  11.567  1.00  0.00     0.279 C 
BRANCH  13  14
HETATM   14  C   UNL     1     -39.193 -49.948  11.599  1.00  0.00     0.133 C 
BRANCH  14  15
HETATM   15  C   UNL     1     -38.462 -50.598  12.757  1.00  0.00     0.221 C 
HETATM   16  O   UNL     1     -38.227 -51.805  12.785  1.00  0.00    -0.273 OA
HETATM   17  N   UNL     1     -38.159 -49.757  13.815  1.00  0.00    -0.348 N 
HETATM   18  C   UNL     1     -37.641 -50.319  15.061  1.00  0.00     0.152 C 
HETATM   19  C   UNL     1     -38.004 -48.304  13.707  1.00  0.00     0.152 C 
HETATM   20  C   UNL     1     -38.212 -49.551  16.258  1.00  0.00     0.187 C 
HETATM   21  O   UNL     1     -37.958 -48.140  16.145  1.00  0.00    -0.388 OA
HETATM   22  C   UNL     1     -38.552 -47.609  14.953  1.00  0.00     0.187 C 
ENDBRANCH  14  15
ENDBRANCH  13  14
ENDBRANCH   1  13
TORSDOF 6
ENDMDL
MODEL 6
REMARK VINA RESULT:      -5.5      3.849      4.973
REMARK  6 active torsions:
REMARK  status: ('A' for Active; 'I' for Inactive)
REMARK    1  A    between atoms: C_2  and  C_3 
REMARK    2  A    between atoms: C_2  and  N_11 
REMARK    3  A    between atoms: C_3  and  N_4 
REMARK    4  A    between atoms: N_11  and  C_12 
REMARK    5  A    between atoms: C_12  and  C_13 
REMARK    6  A    between atoms: C_13  and  C_14 
REMARK       I    between atoms: C_14  and  N_16 
ROOT
HETATM    1  N   UNL     1     -41.897 -54.038  12.774  1.00  0.00     0.089 N 
HETATM    2  H   UNL     1     -41.271 -54.804  12.517  1.00  0.00     0.316 HD
ENDROOT
BRANCH   1   3
HETATM    3  C   UNL     1     -41.245 -52.763  12.401  1.00  0.00     0.236 C 
HETATM    4  C   UNL     1     -42.310 -51.665  12.529  1.00  0.00     0.044 C 
BRANCH   3   5
HETATM    5  C   UNL     1     -40.017 -52.451  13.279  1.00  0.00     0.183 C 
BRANCH   5   6
HETATM    6  N   UNL     1     -39.458 -51.137  13.047  1.00  0.00    -0.301 N 
HETATM    7  C   UNL     1     -39.314 -50.141  13.967  1.00  0.00     0.118 A 
HETATM    8  C   UNL     1     -38.676 -49.106  13.319  1.00  0.00    -0.028 A 
HETATM    9  C   UNL     1     -38.273 -47.797  13.867  1.00  0.00     0.051 C 
HETATM   10  C   UNL     1     -38.484 -49.591  12.004  1.00  0.00     0.115 A 
HETATM   11  N   UNL     1     -38.959 -50.824  11.836  1.00  0.00    -0.310 N 
ATOM     12  HN  UNL     1     -38.947 -51.396  10.992  1.00  0.00     0.186 HD
ENDBRANCH   5   6
ENDBRANCH   3   5
ENDBRANCH   1   3
BRANCH   1  13
HETATM   13  C   UNL     1     -42.178 -54.125  14.214  1.00  0.00     0.279 C 
BRANCH  13  14
HETATM   14  C   UNL     1     -43.473 -54.894  14.416  1.00  0.00     0.133 C 
BRANCH  14  15
HETATM   15  C   UNL     1     -44.622 -54.270  13.647  1.00  0.00     0.221 C 
HETATM   16  O   UNL     1     -44.709 -54.355  12.423  1.00  0.00    -0.273 OA
HETATM   17  N   UNL     1     -45.512 -53.530  14.408  1.00  0.00    -0.348 N 
HETATM   18  C   UNL     1     -46.534 -52.723  13.743  1.00  0.00     0.152 C 
HETATM   19  C   UNL     1     -45.742 -53.719  15.842  1.00  0.00     0.152 C 
HETATM   20  C   UNL     1     -46.744 -51.412  14.508  1.00  0.00     0.187 C 
HETATM   21  O   UNL     1     -47.050 -51.655  15.892  1.00  0.00    -0.388 OA
HETATM   22  C   UNL     1     -45.988 -52.376  16.530  1.00  0.00     0.187 C 
ENDBRANCH  14  15
ENDBRANCH  13  14
ENDBRANCH   1  13
TORSDOF 6
ENDMDL
MODEL 7
REMARK VINA RESULT:      -5.5      2.055      2.980
REMARK  6 active torsions:
REMARK  status: ('A' for Active; 'I' for Inactive)
REMARK    1  A    between atoms: C_2  and  C_3 
REMARK    2  A    between atoms: C_2  and  N_11 
REMARK    3  A    between atoms: C_3  and  N_4 
REMARK    4  A    between atoms: N_11  and  C_12 
REMARK    5  A    between atoms: C_12  and  C_13 
REMARK    6  A    between atoms: C_13  and  C_14 
REMARK       I    between atoms: C_14  and  N_16 
ROOT
HETATM    1  N   UNL     1     -42.388 -49.872  11.849  1.00  0.00     0.089 N 
HETATM    2  H   UNL     1     -42.767 -50.225  10.968  1.00  0.00     0.316 HD
ENDROOT
BRANCH   1   3
HETATM    3  C   UNL     1     -41.318 -48.899  11.535  1.00  0.00     0.236 C 
HETATM    4  C   UNL     1     -40.068 -49.714  11.174  1.00  0.00     0.044 C 
BRANCH   3   5
HETATM    5  C   UNL     1     -41.708 -47.946  10.388  1.00  0.00     0.183 C 
BRANCH   5   6
HETATM    6  N   UNL     1     -41.198 -46.602  10.553  1.00  0.00    -0.301 N 
HETATM    7  C   UNL     1     -41.913 -45.501  10.920  1.00  0.00     0.118 A 
HETATM    8  C   UNL     1     -41.007 -44.467  11.015  1.00  0.00    -0.028 A 
HETATM    9  C   UNL     1     -41.261 -43.063  11.391  1.00  0.00     0.051 C 
HETATM   10  C   UNL     1     -39.768 -45.063  10.679  1.00  0.00     0.115 A 
HETATM   11  N   UNL     1     -39.883 -46.360  10.398  1.00  0.00    -0.310 N 
ATOM     12  HN  UNL     1     -39.148 -47.015  10.129  1.00  0.00     0.186 HD
ENDBRANCH   5   6
ENDBRANCH   3   5
ENDBRANCH   1   3
BRANCH   1  13
HETATM   13  C   UNL     1     -41.897 -51.011  12.638  1.00  0.00     0.279 C 
BRANCH  13  14
HETATM   14  C   UNL     1     -42.978 -52.079  12.682  1.00  0.00     0.133 C 
BRANCH  14  15
HETATM   15  C   UNL     1     -44.062 -51.740  13.686  1.00  0.00     0.221 C 
HETATM   16  O   UNL     1     -44.100 -50.654  14.263  1.00  0.00    -0.273 OA
HETATM   17  N   UNL     1     -44.948 -52.766  13.971  1.00  0.00    -0.348 N 
HETATM   18  C   UNL     1     -45.902 -52.613  15.068  1.00  0.00     0.152 C 
HETATM   19  C   UNL     1     -45.248 -53.883  13.072  1.00  0.00     0.152 C 
HETATM   20  C   UNL     1     -46.083 -53.952  15.793  1.00  0.00     0.187 C 
HETATM   21  O   UNL     1     -46.460 -54.996  14.879  1.00  0.00    -0.388 OA
HETATM   22  C   UNL     1     -45.461 -55.172  13.866  1.00  0.00     0.187 C 
ENDBRANCH  14  15
ENDBRANCH  13  14
ENDBRANCH   1  13
TORSDOF 6
ENDMDL
MODEL 8
REMARK VINA RESULT:      -5.5      3.715      6.679
REMARK  6 active torsions:
REMARK  status: ('A' for Active; 'I' for Inactive)
REMARK    1  A    between atoms: C_2  and  C_3 
REMARK    2  A    between atoms: C_2  and  N_11 
REMARK    3  A    between atoms: C_3  and  N_4 
REMARK    4  A    between atoms: N_11  and  C_12 
REMARK    5  A    between atoms: C_12  and  C_13 
REMARK    6  A    between atoms: C_13  and  C_14 
REMARK       I    between atoms: C_14  and  N_16 
ROOT
HETATM    1  N   UNL     1     -44.268 -50.506  12.993  1.00  0.00     0.089 N 
HETATM    2  H   UNL     1     -44.982 -49.799  12.803  1.00  0.00     0.316 HD
ENDROOT
BRANCH   1   3
HETATM    3  C   UNL     1     -44.952 -51.784  13.288  1.00  0.00     0.236 C 
HETATM    4  C   UNL     1     -46.443 -51.569  12.991  1.00  0.00     0.044 C 
BRANCH   3   5
HETATM    5  C   UNL     1     -44.386 -52.958  12.466  1.00  0.00     0.183 C 
BRANCH   5   6
HETATM    6  N   UNL     1     -42.949 -53.096  12.564  1.00  0.00    -0.301 N 
HETATM    7  C   UNL     1     -42.265 -53.819  13.495  1.00  0.00     0.118 A 
HETATM    8  C   UNL     1     -40.932 -53.716  13.158  1.00  0.00    -0.028 A 
HETATM    9  C   UNL     1     -39.771 -54.324  13.837  1.00  0.00     0.051 C 
HETATM   10  C   UNL     1     -40.931 -52.902  12.002  1.00  0.00     0.115 A 
HETATM   11  N   UNL     1     -42.156 -52.523  11.640  1.00  0.00    -0.310 N 
ATOM     12  HN  UNL     1     -42.428 -51.938  10.850  1.00  0.00     0.186 HD
ENDBRANCH   5   6
ENDBRANCH   3   5
ENDBRANCH   1   3
BRANCH   1  13
HETATM   13  C   UNL     1     -43.435 -50.043  14.112  1.00  0.00     0.279 C 
BRANCH  13  14
HETATM   14  C   UNL     1     -42.659 -48.814  13.670  1.00  0.00     0.133 C 
BRANCH  14  15
HETATM   15  C   UNL     1     -41.591 -49.160  12.650  1.00  0.00     0.221 C 
HETATM   16  O   UNL     1     -41.871 -49.464  11.491  1.00  0.00    -0.273 OA
HETATM   17  N   UNL     1     -40.295 -49.196  13.137  1.00  0.00    -0.348 N 
HETATM   18  C   UNL     1     -39.220 -49.714  12.293  1.00  0.00     0.152 C 
HETATM   19  C   UNL     1     -39.826 -48.464  14.316  1.00  0.00     0.152 C 
HETATM   20  C   UNL     1     -38.220 -50.502  13.146  1.00  0.00     0.187 C 
HETATM   21  O   UNL     1     -37.726 -49.711  14.240  1.00  0.00    -0.388 OA
HETATM   22  C   UNL     1     -38.801 -49.291  15.091  1.00  0.00     0.187 C 
ENDBRANCH  14  15
ENDBRANCH  13  14
ENDBRANCH   1  13
TORSDOF 6
ENDMDL
MODEL 9
REMARK VINA RESULT:      -5.4      4.308      6.692
REMARK  6 active torsions:
REMARK  status: ('A' for Active; 'I' for Inactive)
REMARK    1  A    between atoms: C_2  and  C_3 
REMARK    2  A    between atoms: C_2  and  N_11 
REMARK    3  A    between atoms: C_3  and  N_4 
REMARK    4  A    between atoms: N_11  and  C_12 
REMARK    5  A    between atoms: C_12  and  C_13 
REMARK    6  A    between atoms: C_13  and  C_14 
REMARK       I    between atoms: C_14  and  N_16 
ROOT
HETATM    1  N   UNL     1     -41.491 -53.433  13.984  1.00  0.00     0.089 N 
HETATM    2  H   UNL     1     -42.059 -54.238  14.254  1.00  0.00     0.316 HD
ENDROOT
BRANCH   1   3
HETATM    3  C   UNL     1     -42.280 -52.605  13.044  1.00  0.00     0.236 C 
HETATM    4  C   UNL     1     -41.357 -52.274  11.862  1.00  0.00     0.044 C 
BRANCH   3   5
HETATM    5  C   UNL     1     -43.560 -53.317  12.566  1.00  0.00     0.183 C 
BRANCH   5   6
HETATM    6  N   UNL     1     -44.779 -52.696  13.037  1.00  0.00    -0.301 N 
HETATM    7  C   UNL     1     -45.139 -52.496  14.337  1.00  0.00     0.118 A 
HETATM    8  C   UNL     1     -46.336 -51.814  14.304  1.00  0.00    -0.028 A 
HETATM    9  C   UNL     1     -47.148 -51.342  15.443  1.00  0.00     0.051 C 
HETATM   10  C   UNL     1     -46.605 -51.657  12.924  1.00  0.00     0.115 A 
HETATM   11  N   UNL     1     -45.661 -52.193  12.153  1.00  0.00    -0.310 N 
ATOM     12  HN  UNL     1     -45.616 -52.216  11.134  1.00  0.00     0.186 HD
ENDBRANCH   5   6
ENDBRANCH   3   5
ENDBRANCH   1   3
BRANCH   1  13
HETATM   13  C   UNL     1     -40.238 -53.920  13.389  1.00  0.00     0.279 C 
BRANCH  13  14
HETATM   14  C   UNL     1     -39.088 -53.589  14.326  1.00  0.00     0.133 C 
BRANCH  14  15
HETATM   15  C   UNL     1     -39.258 -52.224  14.964  1.00  0.00     0.221 C 
HETATM   16  O   UNL     1     -39.850 -52.072  16.032  1.00  0.00    -0.273 OA
HETATM   17  N   UNL     1     -38.780 -51.158  14.220  1.00  0.00    -0.348 N 
HETATM   18  C   UNL     1     -39.073 -49.790  14.644  1.00  0.00     0.152 C 
HETATM   19  C   UNL     1     -37.727 -51.254  13.206  1.00  0.00     0.152 C 
HETATM   20  C   UNL     1     -39.319 -48.904  13.418  1.00  0.00     0.187 C 
HETATM   21  O   UNL     1     -38.219 -48.968  12.495  1.00  0.00    -0.388 OA
HETATM   22  C   UNL     1     -38.015 -50.312  12.038  1.00  0.00     0.187 C 
ENDBRANCH  14  15
ENDBRANCH  13  14
ENDBRANCH   1  13
TORSDOF 6
ENDMDL
