MODEL 1
REMARK VINA RESULT:      -6.4      0.000      0.000
REMARK  5 active torsions:
REMARK  status: ('A' for Active; 'I' for Inactive)
REMARK    1  A    between atoms: N_7  and  C_8 
REMARK    2  A    between atoms: C_8  and  C_9 
REMARK    3  A    between atoms: C_9  and  N_10 
REMARK       I    between atoms: N_10  and  C_11 
REMARK    4  A    between atoms: C_11  and  C_13 
REMARK    5  A    between atoms: C_13  and  N_14 
ROOT
HETATM    1  N   UNL     1     -42.501 -53.835  12.766  1.00  0.00    -0.358 N 
HETATM    2  C   UNL     1     -42.929 -54.229  14.015  1.00  0.00     0.235 C 
HETATM    3  O   UNL     1     -42.191 -54.291  14.996  1.00  0.00    -0.272 OA
HETATM    4  H   UNL     1     -43.193 -53.700  12.036  1.00  0.00     0.162 HD
ENDROOT
BRANCH   1   5
HETATM    5  C   UNL     1     -41.142 -53.383  12.526  1.00  0.00     0.152 C 
BRANCH   5   6
HETATM    6  C   UNL     1     -41.049 -51.904  12.093  1.00  0.00     0.292 C 
BRANCH   6   7
HETATM    7  N   UNL     1     -39.724 -51.293  12.330  1.00  0.00     0.090 N 
HETATM    8  C   UNL     1     -39.398 -51.215  13.761  1.00  0.00     0.276 C 
HETATM    9  C   UNL     1     -38.001 -50.620  13.995  1.00  0.00     0.010 C 
HETATM   10  C   UNL     1     -37.879 -49.248  13.323  1.00  0.00     0.012 C 
HETATM   11  C   UNL     1     -37.708 -50.529  15.491  1.00  0.00     0.011 C 
HETATM   12  C   UNL     1     -38.284 -49.308  11.845  1.00  0.00     0.010 C 
HETATM   13  C   UNL     1     -37.238 -50.039  10.995  1.00  0.00     0.011 C 
HETATM   14  C   UNL     1     -39.672 -49.956  11.709  1.00  0.00     0.276 C 
ENDBRANCH   6   7
ENDBRANCH   5   6
ENDBRANCH   1   5
BRANCH   2  15
HETATM   15  C   UNL     1     -44.381 -54.688  14.077  1.00  0.00     0.234 C 
BRANCH  15  16
HETATM   16  N   UNL     1     -45.278 -53.570  14.360  1.00  0.00    -0.316 N 
HETATM   17  C   UNL     1     -45.644 -53.308  15.672  1.00  0.00     0.095 A 
HETATM   18  C   UNL     1     -46.454 -52.284  15.975  1.00  0.00     0.017 A 
HETATM   19  C   UNL     1     -46.919 -51.405  14.935  1.00  0.00     0.007 A 
HETATM   20  C   UNL     1     -46.606 -51.643  13.654  1.00  0.00     0.074 A 
HETATM   21  C   UNL     1     -45.772 -52.826  13.295  1.00  0.00     0.247 A 
HETATM   22  O   UNL     1     -45.559 -53.075  12.109  1.00  0.00    -0.268 OA
ENDBRANCH  15  16
ENDBRANCH   2  15
TORSDOF 5
ENDMDL
MODEL 2
REMARK VINA RESULT:      -6.2      0.908      1.999
REMARK  5 active torsions:
REMARK  status: ('A' for Active; 'I' for Inactive)
REMARK    1  A    between atoms: N_7  and  C_8 
REMARK    2  A    between atoms: C_8  and  C_9 
REMARK    3  A    between atoms: C_9  and  N_10 
REMARK       I    between atoms: N_10  and  C_11 
REMARK    4  A    between atoms: C_11  and  C_13 
REMARK    5  A    between atoms: C_13  and  N_14 
ROOT
HETATM    1  N   UNL     1     -43.006 -52.772  12.076  1.00  0.00    -0.358 N 
HETATM    2  C   UNL     1     -43.120 -53.808  12.977  1.00  0.00     0.235 C 
HETATM    3  O   UNL     1     -42.160 -54.311  13.557  1.00  0.00    -0.272 OA
HETATM    4  H   UNL     1     -43.853 -52.337  11.727  1.00  0.00     0.162 HD
ENDROOT
BRANCH   1   5
HETATM    5  C   UNL     1     -41.731 -52.134  11.796  1.00  0.00     0.152 C 
BRANCH   5   6
HETATM    6  C   UNL     1     -41.540 -50.786  12.525  1.00  0.00     0.292 C 
BRANCH   6   7
HETATM    7  N   UNL     1     -40.129 -50.462  12.825  1.00  0.00     0.090 N 
HETATM    8  C   UNL     1     -39.308 -50.383  11.610  1.00  0.00     0.276 C 
HETATM    9  C   UNL     1     -37.854 -50.002  11.929  1.00  0.00     0.010 C 
HETATM   10  C   UNL     1     -37.250 -50.979  12.944  1.00  0.00     0.012 C 
HETATM   11  C   UNL     1     -37.025 -49.956  10.647  1.00  0.00     0.011 C 
HETATM   12  C   UNL     1     -38.139 -51.119  14.186  1.00  0.00     0.010 C 
HETATM   13  C   UNL     1     -38.092 -49.864  15.066  1.00  0.00     0.011 C 
HETATM   14  C   UNL     1     -39.579 -51.457  13.765  1.00  0.00     0.276 C 
ENDBRANCH   6   7
ENDBRANCH   5   6
ENDBRANCH   1   5
BRANCH   2  15
HETATM   15  C   UNL     1     -44.530 -54.367  13.131  1.00  0.00     0.234 C 
BRANCH  15  16
HETATM   16  N   UNL     1     -45.401 -53.421  13.826  1.00  0.00    -0.316 N 
HETATM   17  C   UNL     1     -45.462 -53.447  15.212  1.00  0.00     0.095 A 
HETATM   18  C   UNL     1     -46.239 -52.588  15.887  1.00  0.00     0.017 A 
HETATM   19  C   UNL     1     -46.987 -51.585  15.176  1.00  0.00     0.007 A 
HETATM   20  C   UNL     1     -46.969 -51.546  13.837  1.00  0.00     0.074 A 
HETATM   21  C   UNL     1     -46.173 -52.548  13.070  1.00  0.00     0.247 A 
HETATM   22  O   UNL     1     -46.231 -52.548  11.841  1.00  0.00    -0.268 OA
ENDBRANCH  15  16
ENDBRANCH   2  15
TORSDOF 5
ENDMDL
MODEL 3
REMARK VINA RESULT:      -6.1      2.974      3.881
REMARK  5 active torsions:
REMARK  status: ('A' for Active; 'I' for Inactive)
REMARK    1  A    between atoms: N_7  and  C_8 
REMARK    2  A    between atoms: C_8  and  C_9 
REMARK    3  A    between atoms: C_9  and  N_10 
REMARK       I    between atoms: N_10  and  C_11 
REMARK    4  A    between atoms: C_11  and  C_13 
REMARK    5  A    between atoms: C_13  and  N_14 
ROOT
HETATM    1  N   UNL     1     -42.303 -51.539  11.973  1.00  0.00    -0.358 N 
HETATM    2  C   UNL     1     -42.348 -52.779  12.571  1.00  0.00     0.235 C 
HETATM    3  O   UNL     1     -41.355 -53.357  13.009  1.00  0.00    -0.272 OA
HETATM    4  H   UNL     1     -43.177 -51.080  11.742  1.00  0.00     0.162 HD
ENDROOT
BRANCH   1   5
HETATM    5  C   UNL     1     -41.071 -50.774  11.882  1.00  0.00     0.152 C 
BRANCH   5   6
HETATM    6  C   UNL     1     -41.187 -49.343  12.452  1.00  0.00     0.292 C 
BRANCH   6   7
HETATM    7  N   UNL     1     -41.492 -48.316  11.435  1.00  0.00     0.090 N 
HETATM    8  C   UNL     1     -40.644 -47.125  11.579  1.00  0.00     0.276 C 
HETATM    9  C   UNL     1     -40.937 -46.081  10.490  1.00  0.00     0.010 C 
HETATM   10  C   UNL     1     -42.424 -45.707  10.486  1.00  0.00     0.012 C 
HETATM   11  C   UNL     1     -40.059 -44.848  10.687  1.00  0.00     0.011 C 
HETATM   12  C   UNL     1     -43.316 -46.953  10.404  1.00  0.00     0.010 C 
HETATM   13  C   UNL     1     -43.270 -47.599   9.015  1.00  0.00     0.011 C 
HETATM   14  C   UNL     1     -42.920 -47.953  11.503  1.00  0.00     0.276 C 
ENDBRANCH   6   7
ENDBRANCH   5   6
ENDBRANCH   1   5
BRANCH   2  15
HETATM   15  C   UNL     1     -43.720 -53.443  12.560  1.00  0.00     0.234 C 
BRANCH  15  16
HETATM   16  N   UNL     1     -44.658 -52.733  13.427  1.00  0.00    -0.316 N 
HETATM   17  C   UNL     1     -44.319 -52.506  14.753  1.00  0.00     0.095 A 
HETATM   18  C   UNL     1     -45.146 -51.846  15.577  1.00  0.00     0.017 A 
HETATM   19  C   UNL     1     -46.387 -51.318  15.076  1.00  0.00     0.007 A 
HETATM   20  C   UNL     1     -46.757 -51.539  13.808  1.00  0.00     0.074 A 
HETATM   21  C   UNL     1     -45.884 -52.340  12.903  1.00  0.00     0.247 A 
HETATM   22  O   UNL     1     -46.274 -52.602  11.766  1.00  0.00    -0.268 OA
ENDBRANCH  15  16
ENDBRANCH   2  15
TORSDOF 5
ENDMDL
MODEL 4
REMARK VINA RESULT:      -5.9      2.926      4.023
REMARK  5 active torsions:
REMARK  status: ('A' for Active; 'I' for Inactive)
REMARK    1  A    between atoms: N_7  and  C_8 
REMARK    2  A    between atoms: C_8  and  C_9 
REMARK    3  A    between atoms: C_9  and  N_10 
REMARK       I    between atoms: N_10  and  C_11 
REMARK    4  A    between atoms: C_11  and  C_13 
REMARK    5  A    between atoms: C_13  and  N_14 
ROOT
HETATM    1  N   UNL     1     -42.352 -51.460  12.072  1.00  0.00    -0.358 N 
HETATM    2  C   UNL     1     -42.660 -52.629  12.734  1.00  0.00     0.235 C 
HETATM    3  O   UNL     1     -41.904 -53.173  13.536  1.00  0.00    -0.272 OA
HETATM    4  H   UNL     1     -43.072 -51.013  11.515  1.00  0.00     0.162 HD
ENDROOT
BRANCH   1   5
HETATM    5  C   UNL     1     -41.124 -50.729  12.334  1.00  0.00     0.152 C 
BRANCH   5   6
HETATM    6  C   UNL     1     -40.688 -49.813  11.169  1.00  0.00     0.292 C 
BRANCH   6   7
HETATM    7  N   UNL     1     -41.176 -48.423  11.286  1.00  0.00     0.090 N 
HETATM    8  C   UNL     1     -42.013 -48.032  10.144  1.00  0.00     0.276 C 
HETATM    9  C   UNL     1     -42.551 -46.601  10.297  1.00  0.00     0.010 C 
HETATM   10  C   UNL     1     -41.401 -45.610  10.507  1.00  0.00     0.012 C 
HETATM   11  C   UNL     1     -43.393 -46.218   9.082  1.00  0.00     0.011 C 
HETATM   12  C   UNL     1     -40.482 -46.050  11.655  1.00  0.00     0.010 C 
HETATM   13  C   UNL     1     -41.151 -45.870  13.023  1.00  0.00     0.011 C 
HETATM   14  C   UNL     1     -40.032 -47.504  11.436  1.00  0.00     0.276 C 
ENDBRANCH   6   7
ENDBRANCH   5   6
ENDBRANCH   1   5
BRANCH   2  15
HETATM   15  C   UNL     1     -43.980 -53.267  12.320  1.00  0.00     0.234 C 
BRANCH  15  16
HETATM   16  N   UNL     1     -45.029 -52.997  13.301  1.00  0.00    -0.316 N 
HETATM   17  C   UNL     1     -45.602 -51.734  13.353  1.00  0.00     0.095 A 
HETATM   18  C   UNL     1     -46.576 -51.450  14.229  1.00  0.00     0.017 A 
HETATM   19  C   UNL     1     -47.077 -52.477  15.103  1.00  0.00     0.007 A 
HETATM   20  C   UNL     1     -46.532 -53.700  15.097  1.00  0.00     0.074 A 
HETATM   21  C   UNL     1     -45.393 -54.007  14.183  1.00  0.00     0.247 A 
HETATM   22  O   UNL     1     -44.851 -55.110  14.246  1.00  0.00    -0.268 OA
ENDBRANCH  15  16
ENDBRANCH   2  15
TORSDOF 5
ENDMDL
MODEL 5
REMARK VINA RESULT:      -5.8      2.172      6.857
REMARK  5 active torsions:
REMARK  status: ('A' for Active; 'I' for Inactive)
REMARK    1  A    between atoms: N_7  and  C_8 
REMARK    2  A    between atoms: C_8  and  C_9 
REMARK    3  A    between atoms: C_9  and  N_10 
REMARK       I    between atoms: N_10  and  C_11 
REMARK    4  A    between atoms: C_11  and  C_13 
REMARK    5  A    between atoms: C_13  and  N_14 
ROOT
HETATM    1  N   UNL     1     -40.958 -53.219  14.274  1.00  0.00    -0.358 N 
HETATM    2  C   UNL     1     -39.602 -53.269  14.031  1.00  0.00     0.235 C 
HETATM    3  O   UNL     1     -39.044 -54.227  13.501  1.00  0.00    -0.272 OA
HETATM    4  H   UNL     1     -41.358 -52.349  14.609  1.00  0.00     0.162 HD
ENDROOT
BRANCH   1   5
HETATM    5  C   UNL     1     -41.855 -54.278  13.847  1.00  0.00     0.152 C 
BRANCH   5   6
HETATM    6  C   UNL     1     -43.190 -54.309  14.623  1.00  0.00     0.292 C 
BRANCH   6   7
HETATM    7  N   UNL     1     -43.958 -53.049  14.544  1.00  0.00     0.090 N 
HETATM    8  C   UNL     1     -45.161 -53.080  15.387  1.00  0.00     0.276 C 
HETATM    9  C   UNL     1     -45.928 -51.749  15.333  1.00  0.00     0.010 C 
HETATM   10  C   UNL     1     -46.274 -51.384  13.885  1.00  0.00     0.012 C 
HETATM   11  C   UNL     1     -47.184 -51.827  16.197  1.00  0.00     0.011 C 
HETATM   12  C   UNL     1     -45.033 -51.418  12.985  1.00  0.00     0.010 C 
HETATM   13  C   UNL     1     -44.091 -50.242  13.267  1.00  0.00     0.011 C 
HETATM   14  C   UNL     1     -44.310 -52.767  13.140  1.00  0.00     0.276 C 
ENDBRANCH   6   7
ENDBRANCH   5   6
ENDBRANCH   1   5
BRANCH   2  15
HETATM   15  C   UNL     1     -38.814 -52.079  14.565  1.00  0.00     0.234 C 
BRANCH  15  16
HETATM   16  N   UNL     1     -38.842 -50.960  13.625  1.00  0.00    -0.316 N 
HETATM   17  C   UNL     1     -39.883 -50.045  13.692  1.00  0.00     0.095 A 
HETATM   18  C   UNL     1     -39.939 -48.997  12.857  1.00  0.00     0.017 A 
HETATM   19  C   UNL     1     -38.882 -48.781  11.905  1.00  0.00     0.007 A 
HETATM   20  C   UNL     1     -37.875 -49.658  11.797  1.00  0.00     0.074 A 
HETATM   21  C   UNL     1     -37.843 -50.871  12.664  1.00  0.00     0.247 A 
HETATM   22  O   UNL     1     -36.955 -51.706  12.498  1.00  0.00    -0.268 OA
ENDBRANCH  15  16
ENDBRANCH   2  15
TORSDOF 5
ENDMDL
MODEL 6
REMARK VINA RESULT:      -5.8      1.178      2.329
REMARK  5 active torsions:
REMARK  status: ('A' for Active; 'I' for Inactive)
REMARK    1  A    between atoms: N_7  and  C_8 
REMARK    2  A    between atoms: C_8  and  C_9 
REMARK    3  A    between atoms: C_9  and  N_10 
REMARK       I    between atoms: N_10  and  C_11 
REMARK    4  A    between atoms: C_11  and  C_13 
REMARK    5  A    between atoms: C_13  and  N_14 
ROOT
HETATM    1  N   UNL     1     -42.664 -54.339  13.917  1.00  0.00    -0.358 N 
HETATM    2  C   UNL     1     -43.626 -55.037  14.616  1.00  0.00     0.235 C 
HETATM    3  O   UNL     1     -43.383 -55.707  15.618  1.00  0.00    -0.272 OA
HETATM    4  H   UNL     1     -42.961 -53.719  13.172  1.00  0.00     0.162 HD
ENDROOT
BRANCH   1   5
HETATM    5  C   UNL     1     -41.282 -54.280  14.362  1.00  0.00     0.152 C 
BRANCH   5   6
HETATM    6  C   UNL     1     -40.369 -53.448  13.435  1.00  0.00     0.292 C 
BRANCH   6   7
HETATM    7  N   UNL     1     -39.855 -52.209  14.055  1.00  0.00     0.090 N 
HETATM    8  C   UNL     1     -39.151 -51.357  13.088  1.00  0.00     0.276 C 
HETATM    9  C   UNL     1     -38.659 -50.051  13.732  1.00  0.00     0.010 C 
HETATM   10  C   UNL     1     -37.781 -50.348  14.953  1.00  0.00     0.012 C 
HETATM   11  C   UNL     1     -37.909 -49.204  12.707  1.00  0.00     0.011 C 
HETATM   12  C   UNL     1     -38.485 -51.295  15.934  1.00  0.00     0.010 C 
HETATM   13  C   UNL     1     -39.630 -50.597  16.678  1.00  0.00     0.011 C 
HETATM   14  C   UNL     1     -38.977 -52.548  15.191  1.00  0.00     0.276 C 
ENDBRANCH   6   7
ENDBRANCH   5   6
ENDBRANCH   1   5
BRANCH   2  15
HETATM   15  C   UNL     1     -45.016 -55.004  13.994  1.00  0.00     0.234 C 
BRANCH  15  16
HETATM   16  N   UNL     1     -45.696 -53.743  14.284  1.00  0.00    -0.316 N 
HETATM   17  C   UNL     1     -46.123 -53.484  15.578  1.00  0.00     0.095 A 
HETATM   18  C   UNL     1     -46.739 -52.334  15.888  1.00  0.00     0.017 A 
HETATM   19  C   UNL     1     -46.920 -51.324  14.880  1.00  0.00     0.007 A 
HETATM   20  C   UNL     1     -46.542 -51.549  13.616  1.00  0.00     0.074 A 
HETATM   21  C   UNL     1     -45.929 -52.856  13.240  1.00  0.00     0.247 A 
HETATM   22  O   UNL     1     -45.660 -53.078  12.060  1.00  0.00    -0.268 OA
ENDBRANCH  15  16
ENDBRANCH   2  15
TORSDOF 5
ENDMDL
MODEL 7
REMARK VINA RESULT:      -5.7      3.166      4.539
REMARK  5 active torsions:
REMARK  status: ('A' for Active; 'I' for Inactive)
REMARK    1  A    between atoms: N_7  and  C_8 
REMARK    2  A    between atoms: C_8  and  C_9 
REMARK    3  A    between atoms: C_9  and  N_10 
REMARK       I    between atoms: N_10  and  C_11 
REMARK    4  A    between atoms: C_11  and  C_13 
REMARK    5  A    between atoms: C_13  and  N_14 
ROOT
HETATM    1  N   UNL     1     -42.078 -50.476  11.778  1.00  0.00    -0.358 N 
HETATM    2  C   UNL     1     -41.261 -51.307  12.513  1.00  0.00     0.235 C 
HETATM    3  O   UNL     1     -40.468 -50.902  13.360  1.00  0.00    -0.272 OA
HETATM    4  H   UNL     1     -42.785 -50.893  11.182  1.00  0.00     0.162 HD
ENDROOT
BRANCH   1   5
HETATM    5  C   UNL     1     -42.120 -49.041  12.006  1.00  0.00     0.152 C 
BRANCH   5   6
HETATM    6  C   UNL     1     -41.764 -48.205  10.757  1.00  0.00     0.292 C 
BRANCH   6   7
HETATM    7  N   UNL     1     -40.834 -47.089  11.029  1.00  0.00     0.090 N 
HETATM    8  C   UNL     1     -40.520 -46.966  12.459  1.00  0.00     0.276 C 
HETATM    9  C   UNL     1     -39.518 -45.832  12.726  1.00  0.00     0.010 C 
HETATM   10  C   UNL     1     -40.036 -44.507  12.155  1.00  0.00     0.012 C 
HETATM   11  C   UNL     1     -39.236 -45.714  14.222  1.00  0.00     0.011 C 
HETATM   12  C   UNL     1     -40.431 -44.648  10.679  1.00  0.00     0.010 C 
HETATM   13  C   UNL     1     -39.204 -44.789   9.770  1.00  0.00     0.011 C 
HETATM   14  C   UNL     1     -41.398 -45.831  10.506  1.00  0.00     0.276 C 
ENDBRANCH   6   7
ENDBRANCH   5   6
ENDBRANCH   1   5
BRANCH   2  15
HETATM   15  C   UNL     1     -41.335 -52.779  12.125  1.00  0.00     0.234 C 
BRANCH  15  16
HETATM   16  N   UNL     1     -42.333 -53.487  12.925  1.00  0.00    -0.316 N 
HETATM   17  C   UNL     1     -43.663 -53.456  12.533  1.00  0.00     0.095 A 
HETATM   18  C   UNL     1     -44.607 -54.103  13.232  1.00  0.00     0.017 A 
HETATM   19  C   UNL     1     -44.238 -54.888  14.380  1.00  0.00     0.007 A 
HETATM   20  C   UNL     1     -42.967 -54.921  14.801  1.00  0.00     0.074 A 
HETATM   21  C   UNL     1     -41.920 -54.140  14.080  1.00  0.00     0.247 A 
HETATM   22  O   UNL     1     -40.773 -54.117  14.525  1.00  0.00    -0.268 OA
ENDBRANCH  15  16
ENDBRANCH   2  15
TORSDOF 5
ENDMDL
MODEL 8
REMARK VINA RESULT:      -5.6      1.695      2.514
REMARK  5 active torsions:
REMARK  status: ('A' for Active; 'I' for Inactive)
REMARK    1  A    between atoms: N_7  and  C_8 
REMARK    2  A    between atoms: C_8  and  C_9 
REMARK    3  A    between atoms: C_9  and  N_10 
REMARK       I    between atoms: N_10  and  C_11 
REMARK    4  A    between atoms: C_11  and  C_13 
REMARK    5  A    between atoms: C_13  and  N_14 
ROOT
HETATM    1  N   UNL     1     -42.366 -52.095  11.883  1.00  0.00    -0.358 N 
HETATM    2  C   UNL     1     -42.837 -53.112  12.685  1.00  0.00     0.235 C 
HETATM    3  O   UNL     1     -42.150 -53.681  13.532  1.00  0.00    -0.272 OA
HETATM    4  H   UNL     1     -43.024 -51.601  11.291  1.00  0.00     0.162 HD
ENDROOT
BRANCH   1   5
HETATM    5  C   UNL     1     -41.026 -51.555  12.033  1.00  0.00     0.152 C 
BRANCH   5   6
HETATM    6  C   UNL     1     -40.986 -50.015  12.140  1.00  0.00     0.292 C 
BRANCH   6   7
HETATM    7  N   UNL     1     -40.029 -49.509  13.145  1.00  0.00     0.090 N 
HETATM    8  C   UNL     1     -39.859 -48.052  13.064  1.00  0.00     0.276 C 
HETATM    9  C   UNL     1     -38.896 -47.530  14.142  1.00  0.00     0.010 C 
HETATM   10  C   UNL     1     -37.547 -48.252  14.057  1.00  0.00     0.012 C 
HETATM   11  C   UNL     1     -38.722 -46.019  14.010  1.00  0.00     0.011 C 
HETATM   12  C   UNL     1     -37.723 -49.776  14.071  1.00  0.00     0.010 C 
HETATM   13  C   UNL     1     -38.136 -50.290  15.456  1.00  0.00     0.011 C 
HETATM   14  C   UNL     1     -38.733 -50.196  12.991  1.00  0.00     0.276 C 
ENDBRANCH   6   7
ENDBRANCH   5   6
ENDBRANCH   1   5
BRANCH   2  15
HETATM   15  C   UNL     1     -44.259 -53.563  12.374  1.00  0.00     0.234 C 
BRANCH  15  16
HETATM   16  N   UNL     1     -45.194 -53.112  13.402  1.00  0.00    -0.316 N 
HETATM   17  C   UNL     1     -45.683 -51.815  13.352  1.00  0.00     0.095 A 
HETATM   18  C   UNL     1     -46.553 -51.366  14.269  1.00  0.00     0.017 A 
HETATM   19  C   UNL     1     -47.031 -52.250  15.298  1.00  0.00     0.007 A 
HETATM   20  C   UNL     1     -46.561 -53.501  15.391  1.00  0.00     0.074 A 
HETATM   21  C   UNL     1     -45.533 -53.988  14.426  1.00  0.00     0.247 A 
HETATM   22  O   UNL     1     -45.054 -55.111  14.573  1.00  0.00    -0.268 OA
ENDBRANCH  15  16
ENDBRANCH   2  15
TORSDOF 5
ENDMDL
MODEL 9
REMARK VINA RESULT:      -5.5      1.409      1.953
REMARK  5 active torsions:
REMARK  status: ('A' for Active; 'I' for Inactive)
REMARK    1  A    between atoms: N_7  and  C_8 
REMARK    2  A    between atoms: C_8  and  C_9 
REMARK    3  A    between atoms: C_9  and  N_10 
REMARK       I    between atoms: N_10  and  C_11 
REMARK    4  A    between atoms: C_11  and  C_13 
REMARK    5  A    between atoms: C_13  and  N_14 
ROOT
HETATM    1  N   UNL     1     -41.884 -54.085  13.583  1.00  0.00    -0.358 N 
HETATM    2  C   UNL     1     -42.809 -53.454  12.781  1.00  0.00     0.235 C 
HETATM    3  O   UNL     1     -42.565 -52.436  12.135  1.00  0.00    -0.272 OA
HETATM    4  H   UNL     1     -42.127 -54.981  13.991  1.00  0.00     0.162 HD
ENDROOT
BRANCH   1   5
HETATM    5  C   UNL     1     -40.505 -53.633  13.668  1.00  0.00     0.152 C 
BRANCH   5   6
HETATM    6  C   UNL     1     -40.322 -52.361  14.524  1.00  0.00     0.292 C 
BRANCH   6   7
HETATM    7  N   UNL     1     -39.164 -51.534  14.127  1.00  0.00     0.090 N 
HETATM    8  C   UNL     1     -38.453 -50.982  15.288  1.00  0.00     0.276 C 
HETATM    9  C   UNL     1     -37.224 -50.161  14.865  1.00  0.00     0.010 C 
HETATM   10  C   UNL     1     -37.625 -49.055  13.883  1.00  0.00     0.012 C 
HETATM   11  C   UNL     1     -36.527 -49.581  16.094  1.00  0.00     0.011 C 
HETATM   12  C   UNL     1     -38.429 -49.616  12.703  1.00  0.00     0.010 C 
HETATM   13  C   UNL     1     -37.546 -50.423  11.743  1.00  0.00     0.011 C 
HETATM   14  C   UNL     1     -39.607 -50.456  13.223  1.00  0.00     0.276 C 
ENDBRANCH   6   7
ENDBRANCH   5   6
ENDBRANCH   1   5
BRANCH   2  15
HETATM   15  C   UNL     1     -44.210 -54.053  12.829  1.00  0.00     0.234 C 
BRANCH  15  16
HETATM   16  N   UNL     1     -45.087 -53.279  13.705  1.00  0.00    -0.316 N 
HETATM   17  C   UNL     1     -45.755 -52.176  13.193  1.00  0.00     0.095 A 
HETATM   18  C   UNL     1     -46.578 -51.447  13.961  1.00  0.00     0.017 A 
HETATM   19  C   UNL     1     -46.820 -51.835  15.325  1.00  0.00     0.007 A 
HETATM   20  C   UNL     1     -46.174 -52.880  15.858  1.00  0.00     0.074 A 
HETATM   21  C   UNL     1     -45.193 -53.651  15.040  1.00  0.00     0.247 A 
HETATM   22  O   UNL     1     -44.550 -54.557  15.567  1.00  0.00    -0.268 OA
ENDBRANCH  15  16
ENDBRANCH   2  15
TORSDOF 5
ENDMDL
