MODEL 1
REMARK VINA RESULT:      -6.9      0.000      0.000
REMARK  7 active torsions:
REMARK  status: ('A' for Active; 'I' for Inactive)
REMARK    1  A    between atoms: C_7  and  O_8 
REMARK    2  A    between atoms: O_8  and  C_9 
REMARK    3  A    between atoms: C_9  and  C_10 
REMARK    4  A    between atoms: C_10  and  O_11 
REMARK    5  A    between atoms: C_10  and  C_12 
REMARK    6  A    between atoms: C_12  and  N_13 
REMARK    7  A    between atoms: C_16  and  N_21 
ROOT
HETATM    1  N   UNL     1     -39.807 -51.268  12.873  1.00  0.00    -0.254 N 
HETATM    2  N   UNL     1     -40.870 -50.455  12.540  1.00  0.00    -0.280 N 
ATOM      3  HN  UNL     1     -41.823 -50.702  12.806  1.00  0.00     0.189 HD
HETATM    4  C   UNL     1     -40.621 -49.367  11.878  1.00  0.00     0.127 A 
HETATM    5  C   UNL     1     -39.275 -48.927  11.461  1.00  0.00     0.056 A 
HETATM    6  C   UNL     1     -38.258 -49.706  11.838  1.00  0.00     0.080 A 
HETATM    7  C   UNL     1     -38.481 -50.949  12.604  1.00  0.00     0.262 A 
HETATM    8  O   UNL     1     -37.512 -51.610  12.964  1.00  0.00    -0.267 OA
ENDROOT
BRANCH   1   9
HETATM    9  C   UNL     1     -40.133 -52.502  13.597  1.00  0.00     0.186 C 
BRANCH   9  10
HETATM   10  C   UNL     1     -40.868 -53.541  12.731  1.00  0.00     0.162 C 
BRANCH  10  11
HETATM   11  C   UNL     1     -42.348 -53.673  13.108  1.00  0.00     0.209 C 
BRANCH  11  12
HETATM   12  O   UNL     1     -42.730 -52.563  13.923  1.00  0.00    -0.348 OA
BRANCH  12  13
HETATM   13  C   UNL     1     -44.053 -52.207  13.898  1.00  0.00     0.075 A 
HETATM   14  C   UNL     1     -44.573 -51.738  15.117  1.00  0.00    -0.029 A 
HETATM   15  C   UNL     1     -45.914 -51.333  15.179  1.00  0.00     0.010 A 
HETATM   16  C   UNL     1     -43.704 -51.654  16.340  1.00  0.00     0.051 C 
HETATM   17  C   UNL     1     -46.724 -51.379  14.044  1.00  0.00     0.007 A 
HETATM   18  C   UNL     1     -46.209 -51.831  12.827  1.00  0.00    -0.059 A 
HETATM   19  C   UNL     1     -47.056 -51.858  11.590  1.00  0.00     0.048 C 
HETATM   20  C   UNL     1     -44.876 -52.258  12.766  1.00  0.00     0.044 A 
ENDBRANCH  12  13
ENDBRANCH  11  12
ENDBRANCH  10  11
BRANCH  10  21
HETATM   21  O   UNL     1     -40.728 -53.204  11.341  1.00  0.00    -0.392 OA
HETATM   22  H   UNL     1     -41.611 -52.919  11.035  1.00  0.00     0.210 HD
ENDBRANCH  10  21
ENDBRANCH   9  10
ENDBRANCH   1   9
BRANCH   4  23
HETATM   23  N   UNL     1     -41.692 -48.520  11.528  1.00  0.00    -0.302 N 
HETATM   24  C   UNL     1     -41.906 -47.974  10.273  1.00  0.00     0.116 A 
HETATM   25  C   UNL     1     -43.067 -47.247  10.356  1.00  0.00     0.106 A 
HETATM   26  N   UNL     1     -43.580 -47.306  11.619  1.00  0.00    -0.360 N 
HETATM   27  C   UNL     1     -42.746 -48.065  12.295  1.00  0.00     0.189 A 
ATOM     28  HN  UNL     1     -44.429 -46.858  11.964  1.00  0.00     0.166 HD
ENDBRANCH   4  23
TORSDOF 7
ENDMDL
MODEL 2
REMARK VINA RESULT:      -6.9      2.594      4.094
REMARK  7 active torsions:
REMARK  status: ('A' for Active; 'I' for Inactive)
REMARK    1  A    between atoms: C_7  and  O_8 
REMARK    2  A    between atoms: O_8  and  C_9 
REMARK    3  A    between atoms: C_9  and  C_10 
REMARK    4  A    between atoms: C_10  and  O_11 
REMARK    5  A    between atoms: C_10  and  C_12 
REMARK    6  A    between atoms: C_12  and  N_13 
REMARK    7  A    between atoms: C_16  and  N_21 
ROOT
HETATM    1  N   UNL     1     -41.261 -47.997  11.578  1.00  0.00    -0.254 N 
HETATM    2  N   UNL     1     -42.376 -48.310  10.828  1.00  0.00    -0.280 N 
ATOM      3  HN  UNL     1     -42.828 -49.219  10.914  1.00  0.00     0.189 HD
HETATM    4  C   UNL     1     -42.832 -47.411  10.011  1.00  0.00     0.127 A 
HETATM    5  C   UNL     1     -42.248 -46.067   9.829  1.00  0.00     0.056 A 
HETATM    6  C   UNL     1     -41.200 -45.772  10.601  1.00  0.00     0.080 A 
HETATM    7  C   UNL     1     -40.647 -46.750  11.559  1.00  0.00     0.262 A 
HETATM    8  O   UNL     1     -39.709 -46.419  12.278  1.00  0.00    -0.267 OA
ENDROOT
BRANCH   1   9
HETATM    9  C   UNL     1     -40.761 -49.050  12.470  1.00  0.00     0.186 C 
BRANCH   9  10
HETATM   10  C   UNL     1     -40.492 -50.383  11.749  1.00  0.00     0.162 C 
BRANCH  10  11
HETATM   11  C   UNL     1     -41.612 -51.404  11.975  1.00  0.00     0.209 C 
BRANCH  11  12
HETATM   12  O   UNL     1     -41.039 -52.690  12.218  1.00  0.00    -0.348 OA
BRANCH  12  13
HETATM   13  C   UNL     1     -41.679 -53.486  13.132  1.00  0.00     0.075 A 
HETATM   14  C   UNL     1     -40.885 -53.928  14.205  1.00  0.00    -0.029 A 
HETATM   15  C   UNL     1     -41.460 -54.732  15.198  1.00  0.00     0.010 A 
HETATM   16  C   UNL     1     -39.437 -53.534  14.300  1.00  0.00     0.051 C 
HETATM   17  C   UNL     1     -42.810 -55.081  15.137  1.00  0.00     0.007 A 
HETATM   18  C   UNL     1     -43.607 -54.633  14.082  1.00  0.00    -0.059 A 
HETATM   19  C   UNL     1     -45.067 -54.972  14.016  1.00  0.00     0.048 C 
HETATM   20  C   UNL     1     -43.030 -53.849  13.074  1.00  0.00     0.044 A 
ENDBRANCH  12  13
ENDBRANCH  11  12
ENDBRANCH  10  11
BRANCH  10  21
HETATM   21  O   UNL     1     -40.297 -50.147  10.345  1.00  0.00    -0.392 OA
HETATM   22  H   UNL     1     -40.961 -49.481  10.081  1.00  0.00     0.210 HD
ENDBRANCH  10  21
ENDBRANCH   9  10
ENDBRANCH   1   9
BRANCH   4  23
HETATM   23  N   UNL     1     -43.971 -47.708   9.236  1.00  0.00    -0.302 N 
HETATM   24  C   UNL     1     -45.281 -47.657   9.685  1.00  0.00     0.116 A 
HETATM   25  C   UNL     1     -46.073 -47.984   8.613  1.00  0.00     0.106 A 
HETATM   26  N   UNL     1     -45.308 -48.251   7.515  1.00  0.00    -0.360 N 
HETATM   27  C   UNL     1     -44.065 -48.082   7.911  1.00  0.00     0.189 A 
ATOM     28  HN  UNL     1     -45.631 -48.523   6.587  1.00  0.00     0.166 HD
ENDBRANCH   4  23
TORSDOF 7
ENDMDL
MODEL 3
REMARK VINA RESULT:      -6.6      1.929      2.741
REMARK  7 active torsions:
REMARK  status: ('A' for Active; 'I' for Inactive)
REMARK    1  A    between atoms: C_7  and  O_8 
REMARK    2  A    between atoms: O_8  and  C_9 
REMARK    3  A    between atoms: C_9  and  C_10 
REMARK    4  A    between atoms: C_10  and  O_11 
REMARK    5  A    between atoms: C_10  and  C_12 
REMARK    6  A    between atoms: C_12  and  N_13 
REMARK    7  A    between atoms: C_16  and  N_21 
ROOT
HETATM    1  N   UNL     1     -40.058 -49.192  11.395  1.00  0.00    -0.254 N 
HETATM    2  N   UNL     1     -41.196 -49.077  10.624  1.00  0.00    -0.280 N 
ATOM      3  HN  UNL     1     -41.583 -49.885  10.137  1.00  0.00     0.189 HD
HETATM    4  C   UNL     1     -41.757 -47.911  10.537  1.00  0.00     0.127 A 
HETATM    5  C   UNL     1     -41.271 -46.692  11.214  1.00  0.00     0.056 A 
HETATM    6  C   UNL     1     -40.198 -46.840  11.993  1.00  0.00     0.080 A 
HETATM    7  C   UNL     1     -39.525 -48.147  12.140  1.00  0.00     0.262 A 
HETATM    8  O   UNL     1     -38.567 -48.243  12.900  1.00  0.00    -0.267 OA
ENDROOT
BRANCH   1   9
HETATM    9  C   UNL     1     -39.437 -50.521  11.446  1.00  0.00     0.186 C 
BRANCH   9  10
HETATM   10  C   UNL     1     -39.922 -51.376  12.630  1.00  0.00     0.162 C 
BRANCH  10  11
HETATM   11  C   UNL     1     -40.960 -52.421  12.209  1.00  0.00     0.209 C 
BRANCH  11  12
HETATM   12  O   UNL     1     -42.215 -51.778  11.981  1.00  0.00    -0.348 OA
BRANCH  12  13
HETATM   13  C   UNL     1     -43.256 -52.155  12.790  1.00  0.00     0.075 A 
HETATM   14  C   UNL     1     -43.848 -51.119  13.533  1.00  0.00    -0.029 A 
HETATM   15  C   UNL     1     -44.932 -51.409  14.372  1.00  0.00     0.010 A 
HETATM   16  C   UNL     1     -43.339 -49.709  13.421  1.00  0.00     0.051 C 
HETATM   17  C   UNL     1     -45.432 -52.709  14.463  1.00  0.00     0.007 A 
HETATM   18  C   UNL     1     -44.858 -53.740  13.717  1.00  0.00    -0.059 A 
HETATM   19  C   UNL     1     -45.402 -55.136  13.778  1.00  0.00     0.048 C 
HETATM   20  C   UNL     1     -43.759 -53.458  12.894  1.00  0.00     0.044 A 
ENDBRANCH  12  13
ENDBRANCH  11  12
ENDBRANCH  10  11
BRANCH  10  21
HETATM   21  O   UNL     1     -38.799 -52.006  13.269  1.00  0.00    -0.392 OA
HETATM   22  H   UNL     1     -38.903 -51.851  14.227  1.00  0.00     0.210 HD
ENDBRANCH  10  21
ENDBRANCH   9  10
ENDBRANCH   1   9
BRANCH   4  23
HETATM   23  N   UNL     1     -42.922 -47.771   9.756  1.00  0.00    -0.302 N 
HETATM   24  C   UNL     1     -44.202 -47.581  10.252  1.00  0.00     0.116 A 
HETATM   25  C   UNL     1     -45.028 -47.461   9.163  1.00  0.00     0.106 A 
HETATM   26  N   UNL     1     -44.316 -47.583   8.005  1.00  0.00    -0.360 N 
HETATM   27  C   UNL     1     -43.070 -47.768   8.384  1.00  0.00     0.189 A 
ATOM     28  HN  UNL     1     -44.674 -47.539   7.051  1.00  0.00     0.166 HD
ENDBRANCH   4  23
TORSDOF 7
ENDMDL
MODEL 4
REMARK VINA RESULT:      -6.6      0.802      2.054
REMARK  7 active torsions:
REMARK  status: ('A' for Active; 'I' for Inactive)
REMARK    1  A    between atoms: C_7  and  O_8 
REMARK    2  A    between atoms: O_8  and  C_9 
REMARK    3  A    between atoms: C_9  and  C_10 
REMARK    4  A    between atoms: C_10  and  O_11 
REMARK    5  A    between atoms: C_10  and  C_12 
REMARK    6  A    between atoms: C_12  and  N_13 
REMARK    7  A    between atoms: C_16  and  N_21 
ROOT
HETATM    1  N   UNL     1     -40.270 -50.994  12.757  1.00  0.00    -0.254 N 
HETATM    2  N   UNL     1     -41.226 -50.060  12.417  1.00  0.00    -0.280 N 
ATOM      3  HN  UNL     1     -42.211 -50.213  12.636  1.00  0.00     0.189 HD
HETATM    4  C   UNL     1     -40.835 -48.981  11.811  1.00  0.00     0.127 A 
HETATM    5  C   UNL     1     -39.433 -48.674  11.465  1.00  0.00     0.056 A 
HETATM    6  C   UNL     1     -38.522 -49.570  11.849  1.00  0.00     0.080 A 
HETATM    7  C   UNL     1     -38.908 -50.809  12.554  1.00  0.00     0.262 A 
HETATM    8  O   UNL     1     -38.031 -51.584  12.924  1.00  0.00    -0.267 OA
ENDROOT
BRANCH   1   9
HETATM    9  C   UNL     1     -40.756 -52.212  13.417  1.00  0.00     0.186 C 
BRANCH   9  10
HETATM   10  C   UNL     1     -41.519 -53.155  12.470  1.00  0.00     0.162 C 
BRANCH  10  11
HETATM   11  C   UNL     1     -42.979 -53.350  12.892  1.00  0.00     0.209 C 
BRANCH  11  12
HETATM   12  O   UNL     1     -43.677 -52.110  12.769  1.00  0.00    -0.348 OA
BRANCH  12  13
HETATM   13  C   UNL     1     -44.490 -51.754  13.813  1.00  0.00     0.075 A 
HETATM   14  C   UNL     1     -45.867 -51.756  13.532  1.00  0.00    -0.029 A 
HETATM   15  C   UNL     1     -46.775 -51.423  14.547  1.00  0.00     0.010 A 
HETATM   16  C   UNL     1     -46.370 -52.123  12.164  1.00  0.00     0.051 C 
HETATM   17  C   UNL     1     -46.323 -51.108  15.829  1.00  0.00     0.007 A 
HETATM   18  C   UNL     1     -44.957 -51.118  16.119  1.00  0.00    -0.059 A 
HETATM   19  C   UNL     1     -44.455 -50.812  17.499  1.00  0.00     0.048 C 
HETATM   20  C   UNL     1     -44.046 -51.428  15.101  1.00  0.00     0.044 A 
ENDBRANCH  12  13
ENDBRANCH  11  12
ENDBRANCH  10  11
BRANCH  10  21
HETATM   21  O   UNL     1     -41.443 -52.660  11.123  1.00  0.00    -0.392 OA
HETATM   22  H   UNL     1     -42.081 -51.924  11.062  1.00  0.00     0.210 HD
ENDBRANCH  10  21
ENDBRANCH   9  10
ENDBRANCH   1   9
BRANCH   4  23
HETATM   23  N   UNL     1     -41.795 -48.012  11.455  1.00  0.00    -0.302 N 
HETATM   24  C   UNL     1     -42.281 -47.798  10.175  1.00  0.00     0.116 A 
HETATM   25  C   UNL     1     -43.214 -46.796  10.275  1.00  0.00     0.106 A 
HETATM   26  N   UNL     1     -43.320 -46.367  11.566  1.00  0.00    -0.360 N 
HETATM   27  C   UNL     1     -42.467 -47.102  12.246  1.00  0.00     0.189 A 
ATOM     28  HN  UNL     1     -43.930 -45.634  11.927  1.00  0.00     0.166 HD
ENDBRANCH   4  23
TORSDOF 7
ENDMDL
MODEL 5
REMARK VINA RESULT:      -6.3      2.271      5.091
REMARK  7 active torsions:
REMARK  status: ('A' for Active; 'I' for Inactive)
REMARK    1  A    between atoms: C_7  and  O_8 
REMARK    2  A    between atoms: O_8  and  C_9 
REMARK    3  A    between atoms: C_9  and  C_10 
REMARK    4  A    between atoms: C_10  and  O_11 
REMARK    5  A    between atoms: C_10  and  C_12 
REMARK    6  A    between atoms: C_12  and  N_13 
REMARK    7  A    between atoms: C_16  and  N_21 
ROOT
HETATM    1  N   UNL     1     -42.478 -50.800  12.872  1.00  0.00    -0.254 N 
HETATM    2  N   UNL     1     -42.446 -49.866  11.858  1.00  0.00    -0.280 N 
ATOM      3  HN  UNL     1     -42.275 -50.144  10.892  1.00  0.00     0.189 HD
HETATM    4  C   UNL     1     -42.641 -48.621  12.171  1.00  0.00     0.127 A 
HETATM    5  C   UNL     1     -42.905 -48.131  13.538  1.00  0.00     0.056 A 
HETATM    6  C   UNL     1     -42.980 -49.060  14.493  1.00  0.00     0.080 A 
HETATM    7  C   UNL     1     -42.780 -50.492  14.193  1.00  0.00     0.262 A 
HETATM    8  O   UNL     1     -42.900 -51.314  15.096  1.00  0.00    -0.267 OA
ENDROOT
BRANCH   1   9
HETATM    9  C   UNL     1     -42.226 -52.193  12.481  1.00  0.00     0.186 C 
BRANCH   9  10
HETATM   10  C   UNL     1     -40.740 -52.493  12.219  1.00  0.00     0.162 C 
BRANCH  10  11
HETATM   11  C   UNL     1     -39.995 -52.909  13.492  1.00  0.00     0.209 C 
BRANCH  11  12
HETATM   12  O   UNL     1     -38.723 -52.259  13.531  1.00  0.00    -0.348 OA
BRANCH  12  13
HETATM   13  C   UNL     1     -38.714 -50.948  13.931  1.00  0.00     0.075 A 
HETATM   14  C   UNL     1     -38.066 -50.057  13.058  1.00  0.00    -0.029 A 
HETATM   15  C   UNL     1     -38.024 -48.693  13.377  1.00  0.00     0.010 A 
HETATM   16  C   UNL     1     -37.435 -50.552  11.786  1.00  0.00     0.051 C 
HETATM   17  C   UNL     1     -38.630 -48.216  14.540  1.00  0.00     0.007 A 
HETATM   18  C   UNL     1     -39.288 -49.093  15.404  1.00  0.00    -0.059 A 
HETATM   19  C   UNL     1     -39.972 -48.595  16.642  1.00  0.00     0.048 C 
HETATM   20  C   UNL     1     -39.312 -50.461  15.100  1.00  0.00     0.044 A 
ENDBRANCH  12  13
ENDBRANCH  11  12
ENDBRANCH  10  11
BRANCH  10  21
HETATM   21  O   UNL     1     -40.618 -53.507  11.207  1.00  0.00    -0.392 OA
HETATM   22  H   UNL     1     -41.145 -54.270  11.515  1.00  0.00     0.210 HD
ENDBRANCH  10  21
ENDBRANCH   9  10
ENDBRANCH   1   9
BRANCH   4  23
HETATM   23  N   UNL     1     -42.614 -47.649  11.151  1.00  0.00    -0.302 N 
HETATM   24  C   UNL     1     -42.572 -46.279  11.351  1.00  0.00     0.116 A 
HETATM   25  C   UNL     1     -42.524 -45.704  10.105  1.00  0.00     0.106 A 
HETATM   26  N   UNL     1     -42.548 -46.663   9.134  1.00  0.00    -0.360 N 
HETATM   27  C   UNL     1     -42.604 -47.807   9.780  1.00  0.00     0.189 A 
ATOM     28  HN  UNL     1     -42.526 -46.521   8.124  1.00  0.00     0.166 HD
ENDBRANCH   4  23
TORSDOF 7
ENDMDL
MODEL 6
REMARK VINA RESULT:      -6.3      2.341      4.592
REMARK  7 active torsions:
REMARK  status: ('A' for Active; 'I' for Inactive)
REMARK    1  A    between atoms: C_7  and  O_8 
REMARK    2  A    between atoms: O_8  and  C_9 
REMARK    3  A    between atoms: C_9  and  C_10 
REMARK    4  A    between atoms: C_10  and  O_11 
REMARK    5  A    between atoms: C_10  and  C_12 
REMARK    6  A    between atoms: C_12  and  N_13 
REMARK    7  A    between atoms: C_16  and  N_21 
ROOT
HETATM    1  N   UNL     1     -44.310 -50.874  13.823  1.00  0.00    -0.254 N 
HETATM    2  N   UNL     1     -43.939 -50.073  12.763  1.00  0.00    -0.280 N 
ATOM      3  HN  UNL     1     -44.534 -49.981  11.940  1.00  0.00     0.189 HD
HETATM    4  C   UNL     1     -42.809 -49.440  12.844  1.00  0.00     0.127 A 
HETATM    5  C   UNL     1     -41.890 -49.507  13.998  1.00  0.00     0.056 A 
HETATM    6  C   UNL     1     -42.295 -50.249  15.031  1.00  0.00     0.080 A 
HETATM    7  C   UNL     1     -43.578 -50.981  15.000  1.00  0.00     0.262 A 
HETATM    8  O   UNL     1     -43.927 -51.616  15.989  1.00  0.00    -0.267 OA
ENDROOT
BRANCH   1   9
HETATM    9  C   UNL     1     -45.581 -51.594  13.680  1.00  0.00     0.186 C 
BRANCH   9  10
HETATM   10  C   UNL     1     -45.562 -52.649  12.560  1.00  0.00     0.162 C 
BRANCH  10  11
HETATM   11  C   UNL     1     -45.044 -54.007  13.046  1.00  0.00     0.209 C 
BRANCH  11  12
HETATM   12  O   UNL     1     -43.675 -54.156  12.663  1.00  0.00    -0.348 OA
BRANCH  12  13
HETATM   13  C   UNL     1     -42.762 -54.281  13.678  1.00  0.00     0.075 A 
HETATM   14  C   UNL     1     -41.546 -53.603  13.480  1.00  0.00    -0.029 A 
HETATM   15  C   UNL     1     -40.561 -53.660  14.475  1.00  0.00     0.010 A 
HETATM   16  C   UNL     1     -41.305 -52.812  12.226  1.00  0.00     0.051 C 
HETATM   17  C   UNL     1     -40.783 -54.368  15.657  1.00  0.00     0.007 A 
HETATM   18  C   UNL     1     -41.994 -55.032  15.865  1.00  0.00    -0.059 A 
HETATM   19  C   UNL     1     -42.263 -55.771  17.142  1.00  0.00     0.048 C 
HETATM   20  C   UNL     1     -42.973 -54.996  14.863  1.00  0.00     0.044 A 
ENDBRANCH  12  13
ENDBRANCH  11  12
ENDBRANCH  10  11
BRANCH  10  21
HETATM   21  O   UNL     1     -46.876 -52.782  11.993  1.00  0.00    -0.392 OA
HETATM   22  H   UNL     1     -47.437 -53.184  12.685  1.00  0.00     0.210 HD
ENDBRANCH  10  21
ENDBRANCH   9  10
ENDBRANCH   1   9
BRANCH   4  23
HETATM   23  N   UNL     1     -42.410 -48.615  11.773  1.00  0.00    -0.302 N 
HETATM   24  C   UNL     1     -43.237 -47.746  11.080  1.00  0.00     0.116 A 
HETATM   25  C   UNL     1     -42.450 -47.117  10.149  1.00  0.00     0.106 A 
HETATM   26  N   UNL     1     -41.165 -47.570  10.224  1.00  0.00    -0.360 N 
HETATM   27  C   UNL     1     -41.168 -48.458  11.194  1.00  0.00     0.189 A 
ATOM     28  HN  UNL     1     -40.372 -47.280   9.652  1.00  0.00     0.166 HD
ENDBRANCH   4  23
TORSDOF 7
ENDMDL
MODEL 7
REMARK VINA RESULT:      -6.2      1.579      2.121
REMARK  7 active torsions:
REMARK  status: ('A' for Active; 'I' for Inactive)
REMARK    1  A    between atoms: C_7  and  O_8 
REMARK    2  A    between atoms: O_8  and  C_9 
REMARK    3  A    between atoms: C_9  and  C_10 
REMARK    4  A    between atoms: C_10  and  O_11 
REMARK    5  A    between atoms: C_10  and  C_12 
REMARK    6  A    between atoms: C_12  and  N_13 
REMARK    7  A    between atoms: C_16  and  N_21 
ROOT
HETATM    1  N   UNL     1     -40.402 -51.219  11.979  1.00  0.00    -0.254 N 
HETATM    2  N   UNL     1     -41.064 -50.167  11.382  1.00  0.00    -0.280 N 
ATOM      3  HN  UNL     1     -41.955 -50.309  10.907  1.00  0.00     0.189 HD
HETATM    4  C   UNL     1     -40.519 -48.991  11.444  1.00  0.00     0.127 A 
HETATM    5  C   UNL     1     -39.240 -48.692  12.118  1.00  0.00     0.056 A 
HETATM    6  C   UNL     1     -38.643 -49.718  12.730  1.00  0.00     0.080 A 
HETATM    7  C   UNL     1     -39.224 -51.076  12.704  1.00  0.00     0.262 A 
HETATM    8  O   UNL     1     -38.662 -51.978  13.315  1.00  0.00    -0.267 OA
ENDROOT
BRANCH   1   9
HETATM    9  C   UNL     1     -41.037 -52.537  11.863  1.00  0.00     0.186 C 
BRANCH   9  10
HETATM   10  C   UNL     1     -41.973 -52.868  13.040  1.00  0.00     0.162 C 
BRANCH  10  11
HETATM   11  C   UNL     1     -43.434 -52.514  12.740  1.00  0.00     0.209 C 
BRANCH  11  12
HETATM   12  O   UNL     1     -43.671 -51.149  13.088  1.00  0.00    -0.348 OA
BRANCH  12  13
HETATM   13  C   UNL     1     -44.288 -50.918  14.289  1.00  0.00     0.075 A 
HETATM   14  C   UNL     1     -43.572 -50.106  15.187  1.00  0.00    -0.029 A 
HETATM   15  C   UNL     1     -44.134 -49.801  16.434  1.00  0.00     0.010 A 
HETATM   16  C   UNL     1     -42.224 -49.556  14.815  1.00  0.00     0.051 C 
HETATM   17  C   UNL     1     -45.398 -50.282  16.781  1.00  0.00     0.007 A 
HETATM   18  C   UNL     1     -46.120 -51.077  15.888  1.00  0.00    -0.059 A 
HETATM   19  C   UNL     1     -47.492 -51.576  16.231  1.00  0.00     0.048 C 
HETATM   20  C   UNL     1     -45.551 -51.403  14.650  1.00  0.00     0.044 A 
ENDBRANCH  12  13
ENDBRANCH  11  12
ENDBRANCH  10  11
BRANCH  10  21
HETATM   21  O   UNL     1     -41.849 -54.258  13.385  1.00  0.00    -0.392 OA
HETATM   22  H   UNL     1     -42.742 -54.645  13.300  1.00  0.00     0.210 HD
ENDBRANCH  10  21
ENDBRANCH   9  10
ENDBRANCH   1   9
BRANCH   4  23
HETATM   23  N   UNL     1     -41.179 -47.900  10.843  1.00  0.00    -0.302 N 
HETATM   24  C   UNL     1     -42.451 -47.937  10.293  1.00  0.00     0.116 A 
HETATM   25  C   UNL     1     -42.722 -46.666   9.851  1.00  0.00     0.106 A 
HETATM   26  N   UNL     1     -41.663 -45.840  10.090  1.00  0.00    -0.360 N 
HETATM   27  C   UNL     1     -40.760 -46.596  10.677  1.00  0.00     0.189 A 
ATOM     28  HN  UNL     1     -41.587 -44.849   9.863  1.00  0.00     0.166 HD
ENDBRANCH   4  23
TORSDOF 7
ENDMDL
MODEL 8
REMARK VINA RESULT:      -6.1      2.434      3.623
REMARK  7 active torsions:
REMARK  status: ('A' for Active; 'I' for Inactive)
REMARK    1  A    between atoms: C_7  and  O_8 
REMARK    2  A    between atoms: O_8  and  C_9 
REMARK    3  A    between atoms: C_9  and  C_10 
REMARK    4  A    between atoms: C_10  and  O_11 
REMARK    5  A    between atoms: C_10  and  C_12 
REMARK    6  A    between atoms: C_12  and  N_13 
REMARK    7  A    between atoms: C_16  and  N_21 
ROOT
HETATM    1  N   UNL     1     -42.622 -51.598  13.474  1.00  0.00    -0.254 N 
HETATM    2  N   UNL     1     -42.568 -50.759  12.380  1.00  0.00    -0.280 N 
ATOM      3  HN  UNL     1     -42.386 -51.125  11.446  1.00  0.00     0.189 HD
HETATM    4  C   UNL     1     -42.757 -49.490  12.576  1.00  0.00     0.127 A 
HETATM    5  C   UNL     1     -43.036 -48.876  13.890  1.00  0.00     0.056 A 
HETATM    6  C   UNL     1     -43.131 -49.715  14.923  1.00  0.00     0.080 A 
HETATM    7  C   UNL     1     -42.939 -51.170  14.757  1.00  0.00     0.262 A 
HETATM    8  O   UNL     1     -43.077 -51.906  15.729  1.00  0.00    -0.267 OA
ENDROOT
BRANCH   1   9
HETATM    9  C   UNL     1     -42.376 -53.022  13.213  1.00  0.00     0.186 C 
BRANCH   9  10
HETATM   10  C   UNL     1     -43.599 -53.756  12.637  1.00  0.00     0.162 C 
BRANCH  10  11
HETATM   11  C   UNL     1     -44.407 -54.482  13.718  1.00  0.00     0.209 C 
BRANCH  11  12
HETATM   12  O   UNL     1     -45.701 -53.885  13.823  1.00  0.00    -0.348 OA
BRANCH  12  13
HETATM   13  C   UNL     1     -46.015 -53.303  15.023  1.00  0.00     0.075 A 
HETATM   14  C   UNL     1     -46.552 -52.006  14.941  1.00  0.00    -0.029 A 
HETATM   15  C   UNL     1     -46.920 -51.341  16.118  1.00  0.00     0.010 A 
HETATM   16  C   UNL     1     -46.746 -51.340  13.608  1.00  0.00     0.051 C 
HETATM   17  C   UNL     1     -46.771 -51.958  17.361  1.00  0.00     0.007 A 
HETATM   18  C   UNL     1     -46.252 -53.252  17.448  1.00  0.00    -0.059 A 
HETATM   19  C   UNL     1     -46.114 -53.944  18.772  1.00  0.00     0.048 C 
HETATM   20  C   UNL     1     -45.861 -53.911  16.275  1.00  0.00     0.044 A 
ENDBRANCH  12  13
ENDBRANCH  11  12
ENDBRANCH  10  11
BRANCH  10  21
HETATM   21  O   UNL     1     -44.431 -52.830  11.919  1.00  0.00    -0.392 OA
HETATM   22  H   UNL     1     -43.865 -52.421  11.236  1.00  0.00     0.210 HD
ENDBRANCH  10  21
ENDBRANCH   9  10
ENDBRANCH   1   9
BRANCH   4  23
HETATM   23  N   UNL     1     -42.709 -48.614  11.473  1.00  0.00    -0.302 N 
HETATM   24  C   UNL     1     -43.757 -47.821  11.033  1.00  0.00     0.116 A 
HETATM   25  C   UNL     1     -43.281 -47.105   9.964  1.00  0.00     0.106 A 
HETATM   26  N   UNL     1     -41.980 -47.429   9.710  1.00  0.00    -0.360 N 
HETATM   27  C   UNL     1     -41.665 -48.328  10.618  1.00  0.00     0.189 A 
ATOM     28  HN  UNL     1     -41.380 -47.055   8.975  1.00  0.00     0.166 HD
ENDBRANCH   4  23
TORSDOF 7
ENDMDL
MODEL 9
REMARK VINA RESULT:      -5.9      1.559      2.853
REMARK  7 active torsions:
REMARK  status: ('A' for Active; 'I' for Inactive)
REMARK    1  A    between atoms: C_7  and  O_8 
REMARK    2  A    between atoms: O_8  and  C_9 
REMARK    3  A    between atoms: C_9  and  C_10 
REMARK    4  A    between atoms: C_10  and  O_11 
REMARK    5  A    between atoms: C_10  and  C_12 
REMARK    6  A    between atoms: C_12  and  N_13 
REMARK    7  A    between atoms: C_16  and  N_21 
ROOT
HETATM    1  N   UNL     1     -40.255 -52.823  13.197  1.00  0.00    -0.254 N 
HETATM    2  N   UNL     1     -40.570 -51.688  12.480  1.00  0.00    -0.280 N 
ATOM      3  HN  UNL     1     -41.315 -51.697  11.784  1.00  0.00     0.189 HD
HETATM    4  C   UNL     1     -39.890 -50.609  12.718  1.00  0.00     0.127 A 
HETATM    5  C   UNL     1     -38.804 -50.503  13.713  1.00  0.00     0.056 A 
HETATM    6  C   UNL     1     -38.552 -51.602  14.428  1.00  0.00     0.080 A 
HETATM    7  C   UNL     1     -39.303 -52.854  14.209  1.00  0.00     0.262 A 
HETATM    8  O   UNL     1     -39.065 -53.826  14.920  1.00  0.00    -0.267 OA
ENDROOT
BRANCH   1   9
HETATM    9  C   UNL     1     -41.029 -54.029  12.879  1.00  0.00     0.186 C 
BRANCH   9  10
HETATM   10  C   UNL     1     -42.551 -53.814  12.951  1.00  0.00     0.162 C 
BRANCH  10  11
HETATM   11  C   UNL     1     -42.988 -53.178  14.275  1.00  0.00     0.209 C 
BRANCH  11  12
HETATM   12  O   UNL     1     -43.635 -51.931  14.012  1.00  0.00    -0.348 OA
BRANCH  12  13
HETATM   13  C   UNL     1     -44.685 -51.598  14.827  1.00  0.00     0.075 A 
HETATM   14  C   UNL     1     -45.957 -51.684  14.235  1.00  0.00    -0.029 A 
HETATM   15  C   UNL     1     -47.091 -51.380  15.000  1.00  0.00     0.010 A 
HETATM   16  C   UNL     1     -46.108 -52.111  12.802  1.00  0.00     0.051 C 
HETATM   17  C   UNL     1     -46.967 -51.009  16.340  1.00  0.00     0.007 A 
HETATM   18  C   UNL     1     -45.707 -50.936  16.938  1.00  0.00    -0.059 A 
HETATM   19  C   UNL     1     -45.556 -50.570  18.385  1.00  0.00     0.048 C 
HETATM   20  C   UNL     1     -44.569 -51.217  16.169  1.00  0.00     0.044 A 
ENDBRANCH  12  13
ENDBRANCH  11  12
ENDBRANCH  10  11
BRANCH  10  21
HETATM   21  O   UNL     1     -42.984 -53.013  11.838  1.00  0.00    -0.392 OA
HETATM   22  H   UNL     1     -43.286 -53.636  11.150  1.00  0.00     0.210 HD
ENDBRANCH  10  21
ENDBRANCH   9  10
ENDBRANCH   1   9
BRANCH   4  23
HETATM   23  N   UNL     1     -40.196 -49.436  11.998  1.00  0.00    -0.302 N 
HETATM   24  C   UNL     1     -41.423 -49.145  11.425  1.00  0.00     0.116 A 
HETATM   25  C   UNL     1     -41.302 -47.903  10.855  1.00  0.00     0.106 A 
HETATM   26  N   UNL     1     -40.042 -47.413  11.037  1.00  0.00    -0.360 N 
HETATM   27  C   UNL     1     -39.405 -48.342  11.716  1.00  0.00     0.189 A 
ATOM     28  HN  UNL     1     -39.673 -46.517  10.716  1.00  0.00     0.166 HD
ENDBRANCH   4  23
TORSDOF 7
ENDMDL
