MODEL 1
REMARK VINA RESULT:      -6.3      0.000      0.000
REMARK  5 active torsions:
REMARK  status: ('A' for Active; 'I' for Inactive)
REMARK    1  A    between atoms: C_8  and  C_9 
REMARK    2  A    between atoms: C_8  and  N_12 
REMARK    3  A    between atoms: C_9  and  O_10 
REMARK       I    between atoms: N_12  and  C_13 
REMARK    4  A    between atoms: C_13  and  C_15 
REMARK    5  A    between atoms: C_15  and  C_16 
ROOT
HETATM    1  C   UNL     1     -40.119 -47.354  13.941  1.00  0.00     0.010 C 
HETATM    2  C   UNL     1     -40.202 -48.826  14.341  1.00  0.00    -0.015 C 
HETATM    3  C   UNL     1     -38.850 -49.551  14.270  1.00  0.00     0.013 C 
HETATM    4  C   UNL     1     -38.508 -50.322  12.975  1.00  0.00    -0.045 C 
HETATM    5  C   UNL     1     -37.799 -49.423  11.945  1.00  0.00     0.015 C 
HETATM    6  C   UNL     1     -37.464 -51.411  13.346  1.00  0.00     0.015 C 
HETATM    7  C   UNL     1     -39.753 -51.038  12.385  1.00  0.00     0.042 C 
HETATM    8  C   UNL     1     -41.081 -50.228  12.299  1.00  0.00     0.055 C 
HETATM    9  C   UNL     1     -41.356 -49.587  13.675  1.00  0.00     0.037 C 
ENDROOT
BRANCH   8  10
HETATM   10  C   UNL     1     -41.052 -49.184  11.151  1.00  0.00     0.195 C 
BRANCH  10  11
HETATM   11  O   UNL     1     -40.536 -49.768   9.953  1.00  0.00    -0.398 OA
HETATM   12  H   UNL     1     -39.966 -49.086   9.553  1.00  0.00     0.209 HD
ENDBRANCH  10  11
ENDBRANCH   8  10
BRANCH   8  13
HETATM   13  N   UNL     1     -42.182 -51.211  11.994  1.00  0.00    -0.349 N 
HETATM   14  C   UNL     1     -42.518 -52.279  12.809  1.00  0.00     0.222 C 
HETATM   15  O   UNL     1     -41.951 -52.524  13.869  1.00  0.00    -0.273 OA
HETATM   16  H   UNL     1     -42.638 -51.134  11.093  1.00  0.00     0.163 HD
BRANCH  14  17
HETATM   17  C   UNL     1     -43.678 -53.129  12.318  1.00  0.00     0.142 C 
BRANCH  17  18
HETATM   18  C   UNL     1     -44.918 -52.981  13.157  1.00  0.00    -0.034 A 
HETATM   19  C   UNL     1     -45.437 -51.729  13.505  1.00  0.00     0.010 A 
HETATM   20  C   UNL     1     -46.572 -51.644  14.309  1.00  0.00     0.018 A 
HETATM   21  C   UNL     1     -47.150 -52.819  14.752  1.00  0.00     0.087 A 
HETATM   22  N   UNL     1     -46.675 -54.046  14.452  1.00  0.00    -0.375 N 
HETATM   23  C   UNL     1     -45.570 -54.098  13.672  1.00  0.00     0.095 A 
ATOM     24  HN  UNL     1     -47.127 -54.893  14.796  1.00  0.00     0.164 HD
ENDBRANCH  17  18
ENDBRANCH  14  17
ENDBRANCH   8  13
TORSDOF 5
ENDMDL
MODEL 2
REMARK VINA RESULT:      -6.3      3.948      5.300
REMARK  5 active torsions:
REMARK  status: ('A' for Active; 'I' for Inactive)
REMARK    1  A    between atoms: C_8  and  C_9 
REMARK    2  A    between atoms: C_8  and  N_12 
REMARK    3  A    between atoms: C_9  and  O_10 
REMARK       I    between atoms: N_12  and  C_13 
REMARK    4  A    between atoms: C_13  and  C_15 
REMARK    5  A    between atoms: C_15  and  C_16 
ROOT
HETATM    1  C   UNL     1     -37.797 -50.949  12.700  1.00  0.00     0.010 C 
HETATM    2  C   UNL     1     -37.815 -49.439  12.467  1.00  0.00    -0.015 C 
HETATM    3  C   UNL     1     -37.886 -48.626  13.768  1.00  0.00     0.013 C 
HETATM    4  C   UNL     1     -39.278 -48.176  14.266  1.00  0.00    -0.045 C 
HETATM    5  C   UNL     1     -39.924 -49.232  15.184  1.00  0.00     0.015 C 
HETATM    6  C   UNL     1     -39.067 -46.932  15.171  1.00  0.00     0.015 C 
HETATM    7  C   UNL     1     -40.205 -47.759  13.092  1.00  0.00     0.042 C 
HETATM    8  C   UNL     1     -40.258 -48.692  11.846  1.00  0.00     0.055 C 
HETATM    9  C   UNL     1     -38.814 -48.989  11.392  1.00  0.00     0.037 C 
ENDROOT
BRANCH   8  10
HETATM   10  C   UNL     1     -41.073 -49.983  12.119  1.00  0.00     0.195 C 
BRANCH  10  11
HETATM   11  O   UNL     1     -40.872 -50.936  11.073  1.00  0.00    -0.398 OA
HETATM   12  H   UNL     1     -41.144 -51.796  11.444  1.00  0.00     0.209 HD
ENDBRANCH  10  11
ENDBRANCH   8  10
BRANCH   8  13
HETATM   13  N   UNL     1     -40.963 -47.932  10.751  1.00  0.00    -0.349 N 
HETATM   14  C   UNL     1     -42.220 -47.365  10.885  1.00  0.00     0.222 C 
HETATM   15  O   UNL     1     -42.880 -47.422  11.917  1.00  0.00    -0.273 OA
HETATM   16  H   UNL     1     -40.526 -47.918   9.838  1.00  0.00     0.163 HD
BRANCH  14  17
HETATM   17  C   UNL     1     -42.729 -46.623   9.660  1.00  0.00     0.142 C 
BRANCH  17  18
HETATM   18  C   UNL     1     -43.916 -47.287   9.015  1.00  0.00    -0.034 A 
HETATM   19  C   UNL     1     -45.168 -47.343   9.638  1.00  0.00     0.010 A 
HETATM   20  C   UNL     1     -46.228 -47.995   9.014  1.00  0.00     0.018 A 
HETATM   21  C   UNL     1     -46.001 -48.583   7.782  1.00  0.00     0.087 A 
HETATM   22  N   UNL     1     -44.808 -48.564   7.152  1.00  0.00    -0.375 N 
HETATM   23  C   UNL     1     -43.796 -47.927   7.784  1.00  0.00     0.095 A 
ATOM     24  HN  UNL     1     -44.676 -49.008   6.244  1.00  0.00     0.164 HD
ENDBRANCH  17  18
ENDBRANCH  14  17
ENDBRANCH   8  13
TORSDOF 5
ENDMDL
MODEL 3
REMARK VINA RESULT:      -5.9      2.675      6.735
REMARK  5 active torsions:
REMARK  status: ('A' for Active; 'I' for Inactive)
REMARK    1  A    between atoms: C_8  and  C_9 
REMARK    2  A    between atoms: C_8  and  N_12 
REMARK    3  A    between atoms: C_9  and  O_10 
REMARK       I    between atoms: N_12  and  C_13 
REMARK    4  A    between atoms: C_13  and  C_15 
REMARK    5  A    between atoms: C_15  and  C_16 
ROOT
HETATM    1  C   UNL     1     -46.454 -54.643  14.707  1.00  0.00     0.010 C 
HETATM    2  C   UNL     1     -45.215 -53.856  15.133  1.00  0.00    -0.015 C 
HETATM    3  C   UNL     1     -45.468 -52.928  16.330  1.00  0.00     0.013 C 
HETATM    4  C   UNL     1     -45.830 -51.454  16.040  1.00  0.00    -0.045 C 
HETATM    5  C   UNL     1     -47.351 -51.259  15.886  1.00  0.00     0.015 C 
HETATM    6  C   UNL     1     -45.443 -50.627  17.297  1.00  0.00     0.015 C 
HETATM    7  C   UNL     1     -45.031 -50.890  14.834  1.00  0.00     0.042 C 
HETATM    8  C   UNL     1     -44.933 -51.772  13.555  1.00  0.00     0.055 C 
HETATM    9  C   UNL     1     -44.475 -53.187  13.967  1.00  0.00     0.037 C 
ENDROOT
BRANCH   8  10
HETATM   10  C   UNL     1     -46.262 -51.788  12.754  1.00  0.00     0.195 C 
BRANCH  10  11
HETATM   11  O   UNL     1     -46.206 -52.754  11.703  1.00  0.00    -0.398 OA
HETATM   12  H   UNL     1     -45.713 -52.327  10.979  1.00  0.00     0.209 HD
ENDBRANCH  10  11
ENDBRANCH   8  10
BRANCH   8  13
HETATM   13  N   UNL     1     -43.877 -51.159  12.671  1.00  0.00    -0.349 N 
HETATM   14  C   UNL     1     -42.575 -50.913  13.075  1.00  0.00     0.222 C 
HETATM   15  O   UNL     1     -42.153 -51.180  14.195  1.00  0.00    -0.273 OA
HETATM   16  H   UNL     1     -44.168 -50.825  11.761  1.00  0.00     0.163 HD
BRANCH  14  17
HETATM   17  C   UNL     1     -41.671 -50.310  12.012  1.00  0.00     0.142 C 
BRANCH  17  18
HETATM   18  C   UNL     1     -41.976 -48.865  11.723  1.00  0.00    -0.034 A 
HETATM   19  C   UNL     1     -42.619 -48.039  12.652  1.00  0.00     0.010 A 
HETATM   20  C   UNL     1     -42.907 -46.716  12.326  1.00  0.00     0.018 A 
HETATM   21  C   UNL     1     -42.550 -46.259  11.071  1.00  0.00     0.087 A 
HETATM   22  N   UNL     1     -41.941 -47.024  10.141  1.00  0.00    -0.375 N 
HETATM   23  C   UNL     1     -41.678 -48.305  10.484  1.00  0.00     0.095 A 
ATOM     24  HN  UNL     1     -41.692 -46.653   9.224  1.00  0.00     0.164 HD
ENDBRANCH  17  18
ENDBRANCH  14  17
ENDBRANCH   8  13
TORSDOF 5
ENDMDL
MODEL 4
REMARK VINA RESULT:      -5.9      2.404      6.935
REMARK  5 active torsions:
REMARK  status: ('A' for Active; 'I' for Inactive)
REMARK    1  A    between atoms: C_8  and  C_9 
REMARK    2  A    between atoms: C_8  and  N_12 
REMARK    3  A    between atoms: C_9  and  O_10 
REMARK       I    between atoms: N_12  and  C_13 
REMARK    4  A    between atoms: C_13  and  C_15 
REMARK    5  A    between atoms: C_15  and  C_16 
ROOT
HETATM    1  C   UNL     1     -45.709 -55.148  13.888  1.00  0.00     0.010 C 
HETATM    2  C   UNL     1     -45.103 -54.447  15.104  1.00  0.00    -0.015 C 
HETATM    3  C   UNL     1     -46.010 -53.354  15.686  1.00  0.00     0.013 C 
HETATM    4  C   UNL     1     -45.782 -51.898  15.218  1.00  0.00    -0.045 C 
HETATM    5  C   UNL     1     -46.610 -51.567  13.962  1.00  0.00     0.015 C 
HETATM    6  C   UNL     1     -46.340 -50.963  16.326  1.00  0.00     0.015 C 
HETATM    7  C   UNL     1     -44.274 -51.579  15.040  1.00  0.00     0.042 C 
HETATM    8  C   UNL     1     -43.397 -52.622  14.286  1.00  0.00     0.055 C 
HETATM    9  C   UNL     1     -43.645 -54.013  14.907  1.00  0.00     0.037 C 
ENDROOT
BRANCH   8  10
HETATM   10  C   UNL     1     -43.652 -52.601  12.756  1.00  0.00     0.195 C 
BRANCH  10  11
HETATM   11  O   UNL     1     -43.265 -53.843  12.163  1.00  0.00    -0.398 OA
HETATM   12  H   UNL     1     -43.263 -53.686  11.201  1.00  0.00     0.209 HD
ENDBRANCH  10  11
ENDBRANCH   8  10
BRANCH   8  13
HETATM   13  N   UNL     1     -41.957 -52.240  14.513  1.00  0.00    -0.349 N 
HETATM   14  C   UNL     1     -40.880 -53.064  14.227  1.00  0.00     0.222 C 
HETATM   15  O   UNL     1     -40.998 -54.188  13.751  1.00  0.00    -0.273 OA
HETATM   16  H   UNL     1     -41.777 -51.365  14.989  1.00  0.00     0.163 HD
BRANCH  14  17
HETATM   17  C   UNL     1     -39.513 -52.466  14.513  1.00  0.00     0.142 C 
BRANCH  17  18
HETATM   18  C   UNL     1     -39.039 -51.527  13.437  1.00  0.00    -0.034 A 
HETATM   19  C   UNL     1     -37.795 -50.890  13.499  1.00  0.00     0.010 A 
HETATM   20  C   UNL     1     -37.414 -50.006  12.493  1.00  0.00     0.018 A 
HETATM   21  C   UNL     1     -38.298 -49.777  11.454  1.00  0.00     0.087 A 
HETATM   22  N   UNL     1     -39.511 -50.359  11.361  1.00  0.00    -0.375 N 
HETATM   23  C   UNL     1     -39.856 -51.210  12.355  1.00  0.00     0.095 A 
ATOM     24  HN  UNL     1     -40.139 -50.167  10.580  1.00  0.00     0.164 HD
ENDBRANCH  17  18
ENDBRANCH  14  17
ENDBRANCH   8  13
TORSDOF 5
ENDMDL
MODEL 5
REMARK VINA RESULT:      -5.9      3.299      5.730
REMARK  5 active torsions:
REMARK  status: ('A' for Active; 'I' for Inactive)
REMARK    1  A    between atoms: C_8  and  C_9 
REMARK    2  A    between atoms: C_8  and  N_12 
REMARK    3  A    between atoms: C_9  and  O_10 
REMARK       I    between atoms: N_12  and  C_13 
REMARK    4  A    between atoms: C_13  and  C_15 
REMARK    5  A    between atoms: C_15  and  C_16 
ROOT
HETATM    1  C   UNL     1     -40.834 -51.526  15.464  1.00  0.00     0.010 C 
HETATM    2  C   UNL     1     -41.877 -50.428  15.256  1.00  0.00    -0.015 C 
HETATM    3  C   UNL     1     -43.304 -50.874  15.606  1.00  0.00     0.013 C 
HETATM    4  C   UNL     1     -44.199 -51.404  14.462  1.00  0.00    -0.045 C 
HETATM    5  C   UNL     1     -44.038 -52.924  14.270  1.00  0.00     0.015 C 
HETATM    6  C   UNL     1     -45.676 -51.207  14.900  1.00  0.00     0.015 C 
HETATM    7  C   UNL     1     -43.983 -50.609  13.146  1.00  0.00     0.042 C 
HETATM    8  C   UNL     1     -42.516 -50.317  12.709  1.00  0.00     0.055 C 
HETATM    9  C   UNL     1     -41.759 -49.708  13.907  1.00  0.00     0.037 C 
ENDROOT
BRANCH   8  10
HETATM   10  C   UNL     1     -41.815 -51.580  12.142  1.00  0.00     0.195 C 
BRANCH  10  11
HETATM   11  O   UNL     1     -40.810 -51.214  11.194  1.00  0.00    -0.398 OA
HETATM   12  H   UNL     1     -40.147 -51.928  11.225  1.00  0.00     0.209 HD
ENDBRANCH  10  11
ENDBRANCH   8  10
BRANCH   8  13
HETATM   13  N   UNL     1     -42.577 -49.295  11.603  1.00  0.00    -0.349 N 
HETATM   14  C   UNL     1     -42.882 -47.958  11.798  1.00  0.00     0.222 C 
HETATM   15  O   UNL     1     -43.125 -47.474  12.898  1.00  0.00    -0.273 OA
HETATM   16  H   UNL     1     -42.480 -49.631  10.653  1.00  0.00     0.163 HD
BRANCH  14  17
HETATM   17  C   UNL     1     -42.863 -47.100  10.544  1.00  0.00     0.142 C 
BRANCH  17  18
HETATM   18  C   UNL     1     -43.880 -47.524   9.519  1.00  0.00    -0.034 A 
HETATM   19  C   UNL     1     -45.240 -47.645   9.824  1.00  0.00     0.010 A 
HETATM   20  C   UNL     1     -46.138 -48.071   8.849  1.00  0.00     0.018 A 
HETATM   21  C   UNL     1     -45.645 -48.374   7.593  1.00  0.00     0.087 A 
HETATM   22  N   UNL     1     -44.340 -48.284   7.259  1.00  0.00    -0.375 N 
HETATM   23  C   UNL     1     -43.491 -47.872   8.228  1.00  0.00     0.095 A 
ATOM     24  HN  UNL     1     -44.011 -48.516   6.322  1.00  0.00     0.164 HD
ENDBRANCH  17  18
ENDBRANCH  14  17
ENDBRANCH   8  13
TORSDOF 5
ENDMDL
MODEL 6
REMARK VINA RESULT:      -5.8      2.234      6.885
REMARK  5 active torsions:
REMARK  status: ('A' for Active; 'I' for Inactive)
REMARK    1  A    between atoms: C_8  and  C_9 
REMARK    2  A    between atoms: C_8  and  N_12 
REMARK    3  A    between atoms: C_9  and  O_10 
REMARK       I    between atoms: N_12  and  C_13 
REMARK    4  A    between atoms: C_13  and  C_15 
REMARK    5  A    between atoms: C_15  and  C_16 
ROOT
HETATM    1  C   UNL     1     -43.793 -54.637  15.660  1.00  0.00     0.010 C 
HETATM    2  C   UNL     1     -43.856 -53.127  15.891  1.00  0.00    -0.015 C 
HETATM    3  C   UNL     1     -45.230 -52.646  16.380  1.00  0.00     0.013 C 
HETATM    4  C   UNL     1     -46.237 -52.136  15.324  1.00  0.00    -0.045 C 
HETATM    5  C   UNL     1     -47.111 -53.278  14.772  1.00  0.00     0.015 C 
HETATM    6  C   UNL     1     -47.227 -51.185  16.050  1.00  0.00     0.015 C 
HETATM    7  C   UNL     1     -45.535 -51.325  14.201  1.00  0.00     0.042 C 
HETATM    8  C   UNL     1     -44.232 -51.918  13.587  1.00  0.00     0.055 C 
HETATM    9  C   UNL     1     -43.276 -52.299  14.737  1.00  0.00     0.037 C 
ENDROOT
BRANCH   8  10
HETATM   10  C   UNL     1     -44.525 -53.109  12.638  1.00  0.00     0.195 C 
BRANCH  10  11
HETATM   11  O   UNL     1     -45.592 -52.789  11.742  1.00  0.00    -0.398 OA
HETATM   12  H   UNL     1     -46.232 -53.519  11.824  1.00  0.00     0.209 HD
ENDBRANCH  10  11
ENDBRANCH   8  10
BRANCH   8  13
HETATM   13  N   UNL     1     -43.591 -50.828  12.766  1.00  0.00    -0.349 N 
HETATM   14  C   UNL     1     -43.217 -49.594  13.271  1.00  0.00     0.222 C 
HETATM   15  O   UNL     1     -43.365 -49.272  14.445  1.00  0.00    -0.273 OA
HETATM   16  H   UNL     1     -43.519 -50.979  11.768  1.00  0.00     0.163 HD
BRANCH  14  17
HETATM   17  C   UNL     1     -42.567 -48.654  12.270  1.00  0.00     0.142 C 
BRANCH  17  18
HETATM   18  C   UNL     1     -41.086 -48.875  12.124  1.00  0.00    -0.034 A 
HETATM   19  C   UNL     1     -40.156 -48.286  12.988  1.00  0.00     0.010 A 
HETATM   20  C   UNL     1     -38.793 -48.497  12.795  1.00  0.00     0.018 A 
HETATM   21  C   UNL     1     -38.398 -49.287  11.731  1.00  0.00     0.087 A 
HETATM   22  N   UNL     1     -39.259 -49.864  10.867  1.00  0.00    -0.375 N 
HETATM   23  C   UNL     1     -40.576 -49.638  11.077  1.00  0.00     0.095 A 
ATOM     24  HN  UNL     1     -38.932 -50.442  10.092  1.00  0.00     0.164 HD
ENDBRANCH  17  18
ENDBRANCH  14  17
ENDBRANCH   8  13
TORSDOF 5
ENDMDL
MODEL 7
REMARK VINA RESULT:      -5.8      1.593      2.869
REMARK  5 active torsions:
REMARK  status: ('A' for Active; 'I' for Inactive)
REMARK    1  A    between atoms: C_8  and  C_9 
REMARK    2  A    between atoms: C_8  and  N_12 
REMARK    3  A    between atoms: C_9  and  O_10 
REMARK       I    between atoms: N_12  and  C_13 
REMARK    4  A    between atoms: C_13  and  C_15 
REMARK    5  A    between atoms: C_15  and  C_16 
ROOT
HETATM    1  C   UNL     1     -41.243 -46.157  10.582  1.00  0.00     0.010 C 
HETATM    2  C   UNL     1     -42.436 -46.671  11.387  1.00  0.00    -0.015 C 
HETATM    3  C   UNL     1     -42.403 -46.242  12.861  1.00  0.00     0.013 C 
HETATM    4  C   UNL     1     -41.785 -47.219  13.886  1.00  0.00    -0.045 C 
HETATM    5  C   UNL     1     -40.269 -46.995  14.045  1.00  0.00     0.015 C 
HETATM    6  C   UNL     1     -42.391 -46.877  15.275  1.00  0.00     0.015 C 
HETATM    7  C   UNL     1     -42.140 -48.696  13.562  1.00  0.00     0.042 C 
HETATM    8  C   UNL     1     -41.996 -49.167  12.084  1.00  0.00     0.055 C 
HETATM    9  C   UNL     1     -42.732 -48.162  11.174  1.00  0.00     0.037 C 
ENDROOT
BRANCH   8  10
HETATM   10  C   UNL     1     -40.512 -49.362  11.677  1.00  0.00     0.195 C 
BRANCH  10  11
HETATM   11  O   UNL     1     -40.421 -49.956  10.379  1.00  0.00    -0.398 OA
HETATM   12  H   UNL     1     -40.397 -50.919  10.532  1.00  0.00     0.209 HD
ENDBRANCH  10  11
ENDBRANCH   8  10
BRANCH   8  13
HETATM   13  N   UNL     1     -42.679 -50.507  11.977  1.00  0.00    -0.349 N 
HETATM   14  C   UNL     1     -42.469 -51.558  12.855  1.00  0.00     0.222 C 
HETATM   15  O   UNL     1     -41.708 -51.494  13.814  1.00  0.00    -0.273 OA
HETATM   16  H   UNL     1     -43.252 -50.673  11.159  1.00  0.00     0.163 HD
BRANCH  14  17
HETATM   17  C   UNL     1     -43.281 -52.811  12.571  1.00  0.00     0.142 C 
BRANCH  17  18
HETATM   18  C   UNL     1     -44.628 -52.808  13.240  1.00  0.00    -0.034 A 
HETATM   19  C   UNL     1     -45.297 -51.622  13.565  1.00  0.00     0.010 A 
HETATM   20  C   UNL     1     -46.529 -51.672  14.211  1.00  0.00     0.018 A 
HETATM   21  C   UNL     1     -47.055 -52.912  14.523  1.00  0.00     0.087 A 
HETATM   22  N   UNL     1     -46.440 -54.079  14.240  1.00  0.00    -0.375 N 
HETATM   23  C   UNL     1     -45.243 -54.000  13.616  1.00  0.00     0.095 A 
ATOM     24  HN  UNL     1     -46.858 -54.977  14.484  1.00  0.00     0.164 HD
ENDBRANCH  17  18
ENDBRANCH  14  17
ENDBRANCH   8  13
TORSDOF 5
ENDMDL
MODEL 8
REMARK VINA RESULT:      -5.8      1.907      2.541
REMARK  5 active torsions:
REMARK  status: ('A' for Active; 'I' for Inactive)
REMARK    1  A    between atoms: C_8  and  C_9 
REMARK    2  A    between atoms: C_8  and  N_12 
REMARK    3  A    between atoms: C_9  and  O_10 
REMARK       I    between atoms: N_12  and  C_13 
REMARK    4  A    between atoms: C_13  and  C_15 
REMARK    5  A    between atoms: C_15  and  C_16 
ROOT
HETATM    1  C   UNL     1     -43.198 -45.944  13.556  1.00  0.00     0.010 C 
HETATM    2  C   UNL     1     -42.479 -47.174  14.109  1.00  0.00    -0.015 C 
HETATM    3  C   UNL     1     -40.970 -46.960  14.297  1.00  0.00     0.013 C 
HETATM    4  C   UNL     1     -40.028 -47.402  13.155  1.00  0.00    -0.045 C 
HETATM    5  C   UNL     1     -39.807 -46.274  12.129  1.00  0.00     0.015 C 
HETATM    6  C   UNL     1     -38.629 -47.657  13.780  1.00  0.00     0.015 C 
HETATM    7  C   UNL     1     -40.502 -48.725  12.494  1.00  0.00     0.042 C 
HETATM    8  C   UNL     1     -42.014 -48.858  12.144  1.00  0.00     0.055 C 
HETATM    9  C   UNL     1     -42.842 -48.480  13.390  1.00  0.00     0.037 C 
ENDROOT
BRANCH   8  10
HETATM   10  C   UNL     1     -42.399 -48.018  10.898  1.00  0.00     0.195 C 
BRANCH  10  11
HETATM   11  O   UNL     1     -41.631 -48.421   9.762  1.00  0.00    -0.398 OA
HETATM   12  H   UNL     1     -41.157 -47.621   9.468  1.00  0.00     0.209 HD
ENDBRANCH  10  11
ENDBRANCH   8  10
BRANCH   8  13
HETATM   13  N   UNL     1     -42.269 -50.306  11.814  1.00  0.00    -0.349 N 
HETATM   14  C   UNL     1     -42.045 -51.353  12.692  1.00  0.00     0.222 C 
HETATM   15  O   UNL     1     -41.624 -51.200  13.834  1.00  0.00    -0.273 OA
HETATM   16  H   UNL     1     -42.530 -50.527  10.861  1.00  0.00     0.163 HD
BRANCH  14  17
HETATM   17  C   UNL     1     -42.394 -52.733  12.157  1.00  0.00     0.142 C 
BRANCH  17  18
HETATM   18  C   UNL     1     -43.534 -53.384  12.893  1.00  0.00    -0.034 A 
HETATM   19  C   UNL     1     -43.329 -54.384  13.849  1.00  0.00     0.010 A 
HETATM   20  C   UNL     1     -44.418 -54.977  14.482  1.00  0.00     0.018 A 
HETATM   21  C   UNL     1     -45.688 -54.556  14.130  1.00  0.00     0.087 A 
HETATM   22  N   UNL     1     -45.932 -53.605  13.205  1.00  0.00    -0.375 N 
HETATM   23  C   UNL     1     -44.854 -53.049  12.605  1.00  0.00     0.095 A 
ATOM     24  HN  UNL     1     -46.882 -53.318  12.970  1.00  0.00     0.164 HD
ENDBRANCH  17  18
ENDBRANCH  14  17
ENDBRANCH   8  13
TORSDOF 5
ENDMDL
MODEL 9
REMARK VINA RESULT:      -5.8      2.425      6.455
REMARK  5 active torsions:
REMARK  status: ('A' for Active; 'I' for Inactive)
REMARK    1  A    between atoms: C_8  and  C_9 
REMARK    2  A    between atoms: C_8  and  N_12 
REMARK    3  A    between atoms: C_9  and  O_10 
REMARK       I    between atoms: N_12  and  C_13 
REMARK    4  A    between atoms: C_13  and  C_15 
REMARK    5  A    between atoms: C_15  and  C_16 
ROOT
HETATM    1  C   UNL     1     -42.734 -55.122  15.377  1.00  0.00     0.010 C 
HETATM    2  C   UNL     1     -42.744 -53.599  15.502  1.00  0.00    -0.015 C 
HETATM    3  C   UNL     1     -44.013 -52.952  14.930  1.00  0.00     0.013 C 
HETATM    4  C   UNL     1     -43.973 -52.445  13.470  1.00  0.00    -0.045 C 
HETATM    5  C   UNL     1     -44.383 -53.545  12.473  1.00  0.00     0.015 C 
HETATM    6  C   UNL     1     -45.063 -51.348  13.331  1.00  0.00     0.015 C 
HETATM    7  C   UNL     1     -42.604 -51.803  13.120  1.00  0.00     0.042 C 
HETATM    8  C   UNL     1     -41.315 -52.564  13.553  1.00  0.00     0.055 C 
HETATM    9  C   UNL     1     -41.440 -52.931  15.047  1.00  0.00     0.037 C 
ENDROOT
BRANCH   8  10
HETATM   10  C   UNL     1     -41.041 -53.801  12.658  1.00  0.00     0.195 C 
BRANCH  10  11
HETATM   11  O   UNL     1     -40.709 -53.396  11.328  1.00  0.00    -0.398 OA
HETATM   12  H   UNL     1     -39.990 -52.744  11.423  1.00  0.00     0.209 HD
ENDBRANCH  10  11
ENDBRANCH   8  10
BRANCH   8  13
HETATM   13  N   UNL     1     -40.159 -51.612  13.383  1.00  0.00    -0.349 N 
HETATM   14  C   UNL     1     -38.832 -51.959  13.582  1.00  0.00     0.222 C 
HETATM   15  O   UNL     1     -38.470 -53.084  13.910  1.00  0.00    -0.273 OA
HETATM   16  H   UNL     1     -40.378 -50.640  13.203  1.00  0.00     0.163 HD
BRANCH  14  17
HETATM   17  C   UNL     1     -37.827 -50.847  13.331  1.00  0.00     0.142 C 
BRANCH  17  18
HETATM   18  C   UNL     1     -38.472 -49.521  13.033  1.00  0.00    -0.034 A 
HETATM   19  C   UNL     1     -38.799 -48.607  14.041  1.00  0.00     0.010 A 
HETATM   20  C   UNL     1     -39.422 -47.405  13.718  1.00  0.00     0.018 A 
HETATM   21  C   UNL     1     -39.711 -47.154  12.388  1.00  0.00     0.087 A 
HETATM   22  N   UNL     1     -39.425 -48.011  11.386  1.00  0.00    -0.375 N 
HETATM   23  C   UNL     1     -38.824 -49.173  11.731  1.00  0.00     0.095 A 
ATOM     24  HN  UNL     1     -39.652 -47.794  10.416  1.00  0.00     0.164 HD
ENDBRANCH  17  18
ENDBRANCH  14  17
ENDBRANCH   8  13
TORSDOF 5
ENDMDL
