MODEL 1
REMARK VINA RESULT:      -5.8      0.000      0.000
REMARK  3 active torsions:
REMARK  status: ('A' for Active; 'I' for Inactive)
REMARK       I    between atoms: C_2  and  N_3 
REMARK       I    between atoms: C_2  and  N_7 
REMARK    1  A    between atoms: N_3  and  C_4 
REMARK    2  A    between atoms: N_7  and  C_8 
REMARK    3  A    between atoms: C_12  and  N_13 
ROOT
HETATM    1  C   UNL     1     -39.381 -49.471  11.874  1.00  0.00     0.109 C 
HETATM    2  C   UNL     1     -38.058 -50.080  11.396  1.00  0.00     0.027 C 
HETATM    3  C   UNL     1     -37.433 -50.748  12.622  1.00  0.00     0.004 C 
HETATM    4  C   UNL     1     -38.415 -50.543  13.776  1.00  0.00     0.028 C 
HETATM    5  C   UNL     1     -39.776 -50.299  13.114  1.00  0.00     0.113 C 
ENDROOT
BRANCH   1   6
HETATM    6  N   UNL     1     -40.373 -49.388  10.818  1.00  0.00    -0.337 N 
HETATM    7  C   UNL     1     -41.209 -48.300  10.694  1.00  0.00     0.316 C 
HETATM    8  O   UNL     1     -41.153 -47.321  11.425  1.00  0.00    -0.247 OA
HETATM    9  N   UNL     1     -42.055 -48.430   9.616  1.00  0.00    -0.339 N 
HETATM   10  H   UNL     1     -42.200 -49.356   9.247  1.00  0.00     0.164 HD
HETATM   11  H   UNL     1     -40.635 -50.235  10.339  1.00  0.00     0.164 HD
BRANCH   9  12
HETATM   12  C   UNL     1     -42.974 -47.406   9.219  1.00  0.00     0.086 A 
HETATM   13  C   UNL     1     -44.447 -47.577   9.484  1.00  0.00     0.027 A 
HETATM   14  C   UNL     1     -43.930 -47.626   8.077  1.00  0.00     0.027 A 
ENDBRANCH   9  12
ENDBRANCH   1   6
BRANCH   5  15
HETATM   15  N   UNL     1     -40.518 -51.521  12.849  1.00  0.00    -0.345 N 
HETATM   16  C   UNL     1     -40.175 -52.815  13.135  1.00  0.00     0.109 A 
HETATM   17  C   UNL     1     -41.218 -53.581  12.670  1.00  0.00     0.106 A 
HETATM   18  N   UNL     1     -42.187 -52.794  12.114  1.00  0.00    -0.361 N 
HETATM   19  C   UNL     1     -41.749 -51.561  12.246  1.00  0.00     0.183 A 
ATOM     20  HN  UNL     1     -43.062 -53.098  11.688  1.00  0.00     0.166 HD
ENDBRANCH   5  15
TORSDOF 3
ENDMDL
MODEL 2
REMARK VINA RESULT:      -5.7      2.062      5.925
REMARK  3 active torsions:
REMARK  status: ('A' for Active; 'I' for Inactive)
REMARK       I    between atoms: C_2  and  N_3 
REMARK       I    between atoms: C_2  and  N_7 
REMARK    1  A    between atoms: N_3  and  C_4 
REMARK    2  A    between atoms: N_7  and  C_8 
REMARK    3  A    between atoms: C_12  and  N_13 
ROOT
HETATM    1  C   UNL     1     -41.654 -47.932  11.217  1.00  0.00     0.109 C 
HETATM    2  C   UNL     1     -42.234 -47.093  12.360  1.00  0.00     0.027 C 
HETATM    3  C   UNL     1     -42.342 -45.664  11.825  1.00  0.00     0.004 C 
HETATM    4  C   UNL     1     -41.855 -45.706  10.376  1.00  0.00     0.028 C 
HETATM    5  C   UNL     1     -42.024 -47.164   9.932  1.00  0.00     0.113 C 
ENDROOT
BRANCH   1   6
HETATM    6  N   UNL     1     -42.070 -49.321  11.273  1.00  0.00    -0.337 N 
HETATM    7  C   UNL     1     -41.250 -50.302  11.786  1.00  0.00     0.316 C 
HETATM    8  O   UNL     1     -40.147 -50.077  12.261  1.00  0.00    -0.247 OA
HETATM    9  N   UNL     1     -41.857 -51.538  11.754  1.00  0.00    -0.339 N 
HETATM   10  H   UNL     1     -42.634 -51.660  11.125  1.00  0.00     0.164 HD
HETATM   11  H   UNL     1     -42.845 -49.613  10.698  1.00  0.00     0.164 HD
BRANCH   9  12
HETATM   12  C   UNL     1     -41.251 -52.717  12.295  1.00  0.00     0.086 A 
HETATM   13  C   UNL     1     -42.103 -53.748  12.987  1.00  0.00     0.027 A 
HETATM   14  C   UNL     1     -41.141 -52.918  13.783  1.00  0.00     0.027 A 
ENDBRANCH   9  12
ENDBRANCH   1   6
BRANCH   5  15
HETATM   15  N   UNL     1     -43.339 -47.451   9.379  1.00  0.00    -0.345 N 
HETATM   16  C   UNL     1     -44.558 -47.427  10.001  1.00  0.00     0.109 A 
HETATM   17  C   UNL     1     -45.468 -47.784   9.035  1.00  0.00     0.106 A 
HETATM   18  N   UNL     1     -44.843 -48.019   7.843  1.00  0.00    -0.361 N 
HETATM   19  C   UNL     1     -43.566 -47.799   8.073  1.00  0.00     0.183 A 
ATOM     20  HN  UNL     1     -45.273 -48.304   6.963  1.00  0.00     0.166 HD
ENDBRANCH   5  15
TORSDOF 3
ENDMDL
MODEL 3
REMARK VINA RESULT:      -5.5      3.242      5.830
REMARK  3 active torsions:
REMARK  status: ('A' for Active; 'I' for Inactive)
REMARK       I    between atoms: C_2  and  N_3 
REMARK       I    between atoms: C_2  and  N_7 
REMARK    1  A    between atoms: N_3  and  C_4 
REMARK    2  A    between atoms: N_7  and  C_8 
REMARK    3  A    between atoms: C_12  and  N_13 
ROOT
HETATM    1  C   UNL     1     -41.854 -48.259  11.962  1.00  0.00     0.109 C 
HETATM    2  C   UNL     1     -41.802 -47.083  12.943  1.00  0.00     0.027 C 
HETATM    3  C   UNL     1     -40.835 -46.066  12.333  1.00  0.00     0.004 C 
HETATM    4  C   UNL     1     -40.372 -46.654  11.000  1.00  0.00     0.028 C 
HETATM    5  C   UNL     1     -41.458 -47.658  10.598  1.00  0.00     0.113 C 
ENDROOT
BRANCH   1   6
HETATM    6  N   UNL     1     -43.120 -48.969  12.004  1.00  0.00    -0.337 N 
HETATM    7  C   UNL     1     -43.339 -50.005  12.884  1.00  0.00     0.316 C 
HETATM    8  O   UNL     1     -42.516 -50.374  13.709  1.00  0.00    -0.247 OA
HETATM    9  N   UNL     1     -44.611 -50.517  12.759  1.00  0.00    -0.339 N 
HETATM   10  H   UNL     1     -45.106 -50.329  11.902  1.00  0.00     0.164 HD
HETATM   11  H   UNL     1     -43.743 -48.885  11.215  1.00  0.00     0.164 HD
BRANCH   9  12
HETATM   12  C   UNL     1     -45.122 -51.552  13.606  1.00  0.00     0.086 A 
HETATM   13  C   UNL     1     -46.605 -51.667  13.839  1.00  0.00     0.027 A 
HETATM   14  C   UNL     1     -45.705 -51.229  14.956  1.00  0.00     0.027 A 
ENDBRANCH   9  12
ENDBRANCH   1   6
BRANCH   5  15
HETATM   15  N   UNL     1     -42.540 -47.063   9.829  1.00  0.00    -0.345 N 
HETATM   16  C   UNL     1     -43.056 -45.798   9.907  1.00  0.00     0.109 A 
HETATM   17  C   UNL     1     -44.064 -45.755   8.973  1.00  0.00     0.106 A 
HETATM   18  N   UNL     1     -44.174 -46.953   8.325  1.00  0.00    -0.361 N 
HETATM   19  C   UNL     1     -43.240 -47.717   8.848  1.00  0.00     0.183 A 
ATOM     20  HN  UNL     1     -44.839 -47.202   7.593  1.00  0.00     0.166 HD
ENDBRANCH   5  15
TORSDOF 3
ENDMDL
MODEL 4
REMARK VINA RESULT:      -5.5      3.685      5.523
REMARK  3 active torsions:
REMARK  status: ('A' for Active; 'I' for Inactive)
REMARK       I    between atoms: C_2  and  N_3 
REMARK       I    between atoms: C_2  and  N_7 
REMARK    1  A    between atoms: N_3  and  C_4 
REMARK    2  A    between atoms: N_7  and  C_8 
REMARK    3  A    between atoms: C_12  and  N_13 
ROOT
HETATM    1  C   UNL     1     -41.319 -53.951  15.004  1.00  0.00     0.109 C 
HETATM    2  C   UNL     1     -40.197 -53.635  16.000  1.00  0.00     0.027 C 
HETATM    3  C   UNL     1     -38.905 -54.140  15.355  1.00  0.00     0.004 C 
HETATM    4  C   UNL     1     -39.295 -54.705  13.989  1.00  0.00     0.028 C 
HETATM    5  C   UNL     1     -40.623 -54.028  13.631  1.00  0.00     0.113 C 
ENDROOT
BRANCH   1   6
HETATM    6  N   UNL     1     -42.433 -53.026  15.105  1.00  0.00    -0.337 N 
HETATM    7  C   UNL     1     -43.694 -53.361  14.663  1.00  0.00     0.316 C 
HETATM    8  O   UNL     1     -43.976 -54.456  14.200  1.00  0.00    -0.247 OA
HETATM    9  N   UNL     1     -44.594 -52.340  14.873  1.00  0.00    -0.339 N 
HETATM   10  H   UNL     1     -44.223 -51.414  15.013  1.00  0.00     0.164 HD
HETATM   11  H   UNL     1     -42.233 -52.048  15.249  1.00  0.00     0.164 HD
BRANCH   9  12
HETATM   12  C   UNL     1     -45.989 -52.456  14.573  1.00  0.00     0.086 A 
HETATM   13  C   UNL     1     -46.642 -51.463  13.648  1.00  0.00     0.027 A 
HETATM   14  C   UNL     1     -46.981 -51.459  15.108  1.00  0.00     0.027 A 
ENDBRANCH   9  12
ENDBRANCH   1   6
BRANCH   5  15
HETATM   15  N   UNL     1     -40.457 -52.763  12.932  1.00  0.00    -0.345 N 
HETATM   16  C   UNL     1     -39.608 -51.728  13.218  1.00  0.00     0.109 A 
HETATM   17  C   UNL     1     -39.857 -50.775  12.258  1.00  0.00     0.106 A 
HETATM   18  N   UNL     1     -40.826 -51.201  11.394  1.00  0.00    -0.361 N 
HETATM   19  C   UNL     1     -41.160 -52.402  11.813  1.00  0.00     0.183 A 
ATOM     20  HN  UNL     1     -41.209 -50.695  10.595  1.00  0.00     0.166 HD
ENDBRANCH   5  15
TORSDOF 3
ENDMDL
MODEL 5
REMARK VINA RESULT:      -5.4      2.700      4.791
REMARK  3 active torsions:
REMARK  status: ('A' for Active; 'I' for Inactive)
REMARK       I    between atoms: C_2  and  N_3 
REMARK       I    between atoms: C_2  and  N_7 
REMARK    1  A    between atoms: N_3  and  C_4 
REMARK    2  A    between atoms: N_7  and  C_8 
REMARK    3  A    between atoms: C_12  and  N_13 
ROOT
HETATM    1  C   UNL     1     -40.641 -50.157  12.745  1.00  0.00     0.109 C 
HETATM    2  C   UNL     1     -39.857 -49.501  13.886  1.00  0.00     0.027 C 
HETATM    3  C   UNL     1     -38.524 -49.055  13.282  1.00  0.00     0.004 C 
HETATM    4  C   UNL     1     -38.573 -49.430  11.801  1.00  0.00     0.028 C 
HETATM    5  C   UNL     1     -40.063 -49.538  11.456  1.00  0.00     0.113 C 
ENDROOT
BRANCH   1   6
HETATM    6  N   UNL     1     -42.078 -50.048  12.917  1.00  0.00    -0.337 N 
HETATM    7  C   UNL     1     -42.896 -51.156  12.897  1.00  0.00     0.316 C 
HETATM    8  O   UNL     1     -42.479 -52.299  12.776  1.00  0.00    -0.247 OA
HETATM    9  N   UNL     1     -44.215 -50.817  13.096  1.00  0.00    -0.339 N 
HETATM   10  H   UNL     1     -44.481 -49.860  12.927  1.00  0.00     0.164 HD
HETATM   11  H   UNL     1     -42.509 -49.146  12.785  1.00  0.00     0.164 HD
BRANCH   9  12
HETATM   12  C   UNL     1     -45.263 -51.788  13.194  1.00  0.00     0.086 A 
HETATM   13  C   UNL     1     -46.569 -51.556  12.481  1.00  0.00     0.027 A 
HETATM   14  C   UNL     1     -46.515 -51.498  13.978  1.00  0.00     0.027 A 
ENDBRANCH   9  12
ENDBRANCH   1   6
BRANCH   5  15
HETATM   15  N   UNL     1     -40.653 -48.276  11.039  1.00  0.00    -0.345 N 
HETATM   16  C   UNL     1     -40.240 -47.000  11.316  1.00  0.00     0.109 A 
HETATM   17  C   UNL     1     -41.149 -46.179  10.692  1.00  0.00     0.106 A 
HETATM   18  N   UNL     1     -42.100 -46.914  10.041  1.00  0.00    -0.361 N 
HETATM   19  C   UNL     1     -41.771 -48.170  10.254  1.00  0.00     0.183 A 
ATOM     20  HN  UNL     1     -42.894 -46.564   9.505  1.00  0.00     0.166 HD
ENDBRANCH   5  15
TORSDOF 3
ENDMDL
MODEL 6
REMARK VINA RESULT:      -5.1      2.419      5.353
REMARK  3 active torsions:
REMARK  status: ('A' for Active; 'I' for Inactive)
REMARK       I    between atoms: C_2  and  N_3 
REMARK       I    between atoms: C_2  and  N_7 
REMARK    1  A    between atoms: N_3  and  C_4 
REMARK    2  A    between atoms: N_7  and  C_8 
REMARK    3  A    between atoms: C_12  and  N_13 
ROOT
HETATM    1  C   UNL     1     -40.798 -50.301  12.001  1.00  0.00     0.109 C 
HETATM    2  C   UNL     1     -40.464 -49.800  13.410  1.00  0.00     0.027 C 
HETATM    3  C   UNL     1     -39.562 -48.579  13.222  1.00  0.00     0.004 C 
HETATM    4  C   UNL     1     -39.418 -48.375  11.714  1.00  0.00     0.028 C 
HETATM    5  C   UNL     1     -40.634 -49.068  11.090  1.00  0.00     0.113 C 
ENDROOT
BRANCH   1   6
HETATM    6  N   UNL     1     -42.080 -50.978  11.936  1.00  0.00    -0.337 N 
HETATM    7  C   UNL     1     -42.223 -52.297  12.307  1.00  0.00     0.316 C 
HETATM    8  O   UNL     1     -41.306 -52.974  12.750  1.00  0.00    -0.247 OA
HETATM    9  N   UNL     1     -43.526 -52.723  12.179  1.00  0.00    -0.339 N 
HETATM   10  H   UNL     1     -44.133 -52.189  11.578  1.00  0.00     0.164 HD
HETATM   11  H   UNL     1     -42.810 -50.570  11.371  1.00  0.00     0.164 HD
BRANCH   9  12
HETATM   12  C   UNL     1     -43.959 -54.030  12.568  1.00  0.00     0.086 A 
HETATM   13  C   UNL     1     -45.265 -54.201  13.299  1.00  0.00     0.027 A 
HETATM   14  C   UNL     1     -43.971 -54.442  14.016  1.00  0.00     0.027 A 
ENDBRANCH   9  12
ENDBRANCH   1   6
BRANCH   5  15
HETATM   15  N   UNL     1     -41.799 -48.203  10.980  1.00  0.00    -0.345 N 
HETATM   16  C   UNL     1     -42.551 -47.910   9.874  1.00  0.00     0.109 A 
HETATM   17  C   UNL     1     -43.522 -47.041  10.313  1.00  0.00     0.106 A 
HETATM   18  N   UNL     1     -43.387 -46.799  11.651  1.00  0.00    -0.361 N 
HETATM   19  C   UNL     1     -42.354 -47.519  12.030  1.00  0.00     0.183 A 
ATOM     20  HN  UNL     1     -43.965 -46.191  12.232  1.00  0.00     0.166 HD
ENDBRANCH   5  15
TORSDOF 3
ENDMDL
MODEL 7
REMARK VINA RESULT:      -5.1      2.378      3.563
REMARK  3 active torsions:
REMARK  status: ('A' for Active; 'I' for Inactive)
REMARK       I    between atoms: C_2  and  N_3 
REMARK       I    between atoms: C_2  and  N_7 
REMARK    1  A    between atoms: N_3  and  C_4 
REMARK    2  A    between atoms: N_7  and  C_8 
REMARK    3  A    between atoms: C_12  and  N_13 
ROOT
HETATM    1  C   UNL     1     -41.745 -51.837  13.038  1.00  0.00     0.109 C 
HETATM    2  C   UNL     1     -41.172 -52.970  12.180  1.00  0.00     0.027 C 
HETATM    3  C   UNL     1     -41.143 -54.208  13.078  1.00  0.00     0.004 C 
HETATM    4  C   UNL     1     -41.728 -53.780  14.424  1.00  0.00     0.028 C 
HETATM    5  C   UNL     1     -42.582 -52.543  14.123  1.00  0.00     0.113 C 
ENDROOT
BRANCH   1   6
HETATM    6  N   UNL     1     -42.436 -50.832  12.251  1.00  0.00    -0.337 N 
HETATM    7  C   UNL     1     -41.779 -49.736  11.737  1.00  0.00     0.316 C 
HETATM    8  O   UNL     1     -40.577 -49.550  11.867  1.00  0.00    -0.247 OA
HETATM    9  N   UNL     1     -42.626 -48.929  11.013  1.00  0.00    -0.339 N 
HETATM   10  H   UNL     1     -43.615 -49.024  11.179  1.00  0.00     0.164 HD
HETATM   11  H   UNL     1     -43.442 -50.792  12.302  1.00  0.00     0.164 HD
BRANCH   9  12
HETATM   12  C   UNL     1     -42.182 -47.763  10.311  1.00  0.00     0.086 A 
HETATM   13  C   UNL     1     -42.902 -46.454  10.499  1.00  0.00     0.027 A 
HETATM   14  C   UNL     1     -42.998 -47.177   9.190  1.00  0.00     0.027 A 
ENDBRANCH   9  12
ENDBRANCH   1   6
BRANCH   5  15
HETATM   15  N   UNL     1     -43.953 -52.862  13.758  1.00  0.00    -0.345 N 
HETATM   16  C   UNL     1     -45.002 -52.013  13.527  1.00  0.00     0.109 A 
HETATM   17  C   UNL     1     -46.070 -52.825  13.227  1.00  0.00     0.106 A 
HETATM   18  N   UNL     1     -45.704 -54.141  13.263  1.00  0.00    -0.361 N 
HETATM   19  C   UNL     1     -44.425 -54.136  13.571  1.00  0.00     0.183 A 
ATOM     20  HN  UNL     1     -46.295 -54.953  13.089  1.00  0.00     0.166 HD
ENDBRANCH   5  15
TORSDOF 3
ENDMDL
MODEL 8
REMARK VINA RESULT:      -5.0      2.440      4.889
REMARK  3 active torsions:
REMARK  status: ('A' for Active; 'I' for Inactive)
REMARK       I    between atoms: C_2  and  N_3 
REMARK       I    between atoms: C_2  and  N_7 
REMARK    1  A    between atoms: N_3  and  C_4 
REMARK    2  A    between atoms: N_7  and  C_8 
REMARK    3  A    between atoms: C_12  and  N_13 
ROOT
HETATM    1  C   UNL     1     -39.696 -50.942  12.222  1.00  0.00     0.109 C 
HETATM    2  C   UNL     1     -39.014 -50.998  13.593  1.00  0.00     0.027 C 
HETATM    3  C   UNL     1     -37.739 -50.161  13.466  1.00  0.00     0.004 C 
HETATM    4  C   UNL     1     -37.723 -49.610  12.040  1.00  0.00     0.028 C 
HETATM    5  C   UNL     1     -39.183 -49.639  11.575  1.00  0.00     0.113 C 
ENDROOT
BRANCH   1   6
HETATM    6  N   UNL     1     -41.137 -51.089  12.307  1.00  0.00    -0.337 N 
HETATM    7  C   UNL     1     -41.744 -52.324  12.239  1.00  0.00     0.316 C 
HETATM    8  O   UNL     1     -41.125 -53.374  12.146  1.00  0.00    -0.247 OA
HETATM    9  N   UNL     1     -43.112 -52.224  12.358  1.00  0.00    -0.339 N 
HETATM   10  H   UNL     1     -43.532 -51.328  12.171  1.00  0.00     0.164 HD
HETATM   11  H   UNL     1     -41.712 -50.276  12.147  1.00  0.00     0.164 HD
BRANCH   9  12
HETATM   12  C   UNL     1     -43.976 -53.365  12.394  1.00  0.00     0.086 A 
HETATM   13  C   UNL     1     -45.338 -53.255  13.028  1.00  0.00     0.027 A 
HETATM   14  C   UNL     1     -44.270 -54.071  13.691  1.00  0.00     0.027 A 
ENDBRANCH   9  12
ENDBRANCH   1   6
BRANCH   5  15
HETATM   15  N   UNL     1     -39.921 -48.432  11.911  1.00  0.00    -0.345 N 
HETATM   16  C   UNL     1     -39.782 -47.613  13.000  1.00  0.00     0.109 A 
HETATM   17  C   UNL     1     -40.724 -46.625  12.837  1.00  0.00     0.106 A 
HETATM   18  N   UNL     1     -41.429 -46.813  11.682  1.00  0.00    -0.361 N 
HETATM   19  C   UNL     1     -40.919 -47.897  11.138  1.00  0.00     0.183 A 
ATOM     20  HN  UNL     1     -42.188 -46.237  11.319  1.00  0.00     0.166 HD
ENDBRANCH   5  15
TORSDOF 3
ENDMDL
MODEL 9
REMARK VINA RESULT:      -4.7      3.073      4.793
REMARK  3 active torsions:
REMARK  status: ('A' for Active; 'I' for Inactive)
REMARK       I    between atoms: C_2  and  N_3 
REMARK       I    between atoms: C_2  and  N_7 
REMARK    1  A    between atoms: N_3  and  C_4 
REMARK    2  A    between atoms: N_7  and  C_8 
REMARK    3  A    between atoms: C_12  and  N_13 
ROOT
HETATM    1  C   UNL     1     -40.632 -51.469  14.626  1.00  0.00     0.109 C 
HETATM    2  C   UNL     1     -39.836 -50.642  15.641  1.00  0.00     0.027 C 
HETATM    3  C   UNL     1     -38.383 -50.669  15.162  1.00  0.00     0.004 C 
HETATM    4  C   UNL     1     -38.369 -51.479  13.865  1.00  0.00     0.028 C 
HETATM    5  C   UNL     1     -39.803 -51.411  13.326  1.00  0.00     0.113 C 
ENDROOT
BRANCH   1   6
HETATM    6  N   UNL     1     -42.016 -51.044  14.520  1.00  0.00    -0.337 N 
HETATM    7  C   UNL     1     -43.034 -51.944  14.291  1.00  0.00     0.316 C 
HETATM    8  O   UNL     1     -42.858 -53.150  14.202  1.00  0.00    -0.247 OA
HETATM    9  N   UNL     1     -44.261 -51.321  14.246  1.00  0.00    -0.339 N 
HETATM   10  H   UNL     1     -44.273 -50.329  14.072  1.00  0.00     0.164 HD
HETATM   11  H   UNL     1     -42.206 -50.069  14.348  1.00  0.00     0.164 HD
BRANCH   9  12
HETATM   12  C   UNL     1     -45.492 -52.036  14.094  1.00  0.00     0.086 A 
HETATM   13  C   UNL     1     -46.516 -51.563  13.096  1.00  0.00     0.027 A 
HETATM   14  C   UNL     1     -46.793 -51.443  14.565  1.00  0.00     0.027 A 
ENDBRANCH   9  12
ENDBRANCH   1   6
BRANCH   5  15
HETATM   15  N   UNL     1     -40.046 -50.259  12.471  1.00  0.00    -0.345 N 
HETATM   16  C   UNL     1     -39.692 -48.952  12.668  1.00  0.00     0.109 A 
HETATM   17  C   UNL     1     -40.166 -48.276  11.569  1.00  0.00     0.106 A 
HETATM   18  N   UNL     1     -40.793 -49.131  10.707  1.00  0.00    -0.361 N 
HETATM   19  C   UNL     1     -40.696 -50.318  11.266  1.00  0.00     0.183 A 
ATOM     20  HN  UNL     1     -41.241 -48.899   9.821  1.00  0.00     0.166 HD
ENDBRANCH   5  15
TORSDOF 3
ENDMDL
