MODEL 1
REMARK VINA RESULT:      -6.0      0.000      0.000
REMARK  4 active torsions:
REMARK  status: ('A' for Active; 'I' for Inactive)
REMARK    1  A    between atoms: C_2  and  C_5 
REMARK    2  A    between atoms: N_8  and  C_9 
REMARK    3  A    between atoms: C_9  and  C_10 
REMARK       I    between atoms: C_10  and  N_12 
REMARK    4  A    between atoms: N_12  and  C_13 
ROOT
HETATM    1  C   UNL     1     -42.324 -47.117  11.399  1.00  0.00     0.250 C 
ENDROOT
BRANCH   1   2
HETATM    2  N   UNL     1     -43.417 -46.927  10.463  1.00  0.00    -0.294 N 
HETATM    3  C   UNL     1     -43.569 -45.912   9.563  1.00  0.00     0.113 A 
HETATM    4  C   UNL     1     -44.715 -46.189   8.861  1.00  0.00     0.054 A 
HETATM    5  C   UNL     1     -45.189 -47.423   9.381  1.00  0.00     0.133 A 
HETATM    6  N   UNL     1     -44.376 -47.872  10.361  1.00  0.00    -0.294 N 
ATOM      7  HN  UNL     1     -44.465 -48.731  10.902  1.00  0.00     0.187 HD
BRANCH   5   8
HETATM    8  C   UNL     1     -46.421 -48.167   8.936  1.00  0.00     0.433 C 
HETATM    9  F   UNL     1     -46.698 -49.224   9.751  1.00  0.00    -0.165 F 
HETATM   10  F   UNL     1     -46.299 -48.676   7.681  1.00  0.00    -0.165 F 
HETATM   11  F   UNL     1     -47.533 -47.384   8.941  1.00  0.00    -0.165 F 
ENDBRANCH   5   8
ENDBRANCH   1   2
BRANCH   1  12
HETATM   12  C   UNL     1     -41.467 -48.308  11.035  1.00  0.00     0.237 C 
HETATM   13  O   UNL     1     -41.489 -48.809   9.911  1.00  0.00    -0.272 OA
HETATM   14  N   UNL     1     -40.692 -48.819  12.063  1.00  0.00    -0.355 N 
HETATM   15  H   UNL     1     -40.538 -48.239  12.879  1.00  0.00     0.162 HD
BRANCH  14  16
HETATM   16  C   UNL     1     -39.747 -49.907  11.817  1.00  0.00     0.084 C 
HETATM   17  C   UNL     1     -39.907 -51.034  12.846  1.00  0.00     0.025 C 
HETATM   18  C   UNL     1     -39.357 -50.680  14.227  1.00  0.00     0.002 C 
HETATM   19  C   UNL     1     -37.928 -50.148  14.158  1.00  0.00     0.000 C 
HETATM   20  C   UNL     1     -37.802 -48.990  13.172  1.00  0.00     0.002 C 
HETATM   21  C   UNL     1     -38.305 -49.385  11.784  1.00  0.00     0.025 C 
ENDBRANCH  14  16
ENDBRANCH   1  12
TORSDOF 4
ENDMDL
MODEL 2
REMARK VINA RESULT:      -5.9      2.663      4.025
REMARK  4 active torsions:
REMARK  status: ('A' for Active; 'I' for Inactive)
REMARK    1  A    between atoms: C_2  and  C_5 
REMARK    2  A    between atoms: N_8  and  C_9 
REMARK    3  A    between atoms: C_9  and  C_10 
REMARK       I    between atoms: C_10  and  N_12 
REMARK    4  A    between atoms: N_12  and  C_13 
ROOT
HETATM    1  C   UNL     1     -42.597 -47.731  11.794  1.00  0.00     0.250 C 
ENDROOT
BRANCH   1   2
HETATM    2  N   UNL     1     -43.484 -47.475  10.673  1.00  0.00    -0.294 N 
HETATM    3  C   UNL     1     -43.256 -46.651   9.609  1.00  0.00     0.113 A 
HETATM    4  C   UNL     1     -44.344 -46.782   8.782  1.00  0.00     0.054 A 
HETATM    5  C   UNL     1     -45.185 -47.740   9.410  1.00  0.00     0.133 A 
HETATM    6  N   UNL     1     -44.639 -48.167  10.569  1.00  0.00    -0.294 N 
ATOM      7  HN  UNL     1     -45.015 -48.856  11.220  1.00  0.00     0.187 HD
BRANCH   5   8
HETATM    8  C   UNL     1     -46.508 -48.243   8.895  1.00  0.00     0.433 C 
HETATM    9  F   UNL     1     -47.474 -47.283   8.953  1.00  0.00    -0.165 F 
HETATM   10  F   UNL     1     -46.979 -49.300   9.609  1.00  0.00    -0.165 F 
HETATM   11  F   UNL     1     -46.445 -48.638   7.595  1.00  0.00    -0.165 F 
ENDBRANCH   5   8
ENDBRANCH   1   2
BRANCH   1  12
HETATM   12  C   UNL     1     -41.229 -47.124  11.583  1.00  0.00     0.237 C 
HETATM   13  O   UNL     1     -40.315 -47.745  11.041  1.00  0.00    -0.272 OA
HETATM   14  N   UNL     1     -41.065 -45.841  12.080  1.00  0.00    -0.355 N 
HETATM   15  H   UNL     1     -41.895 -45.304  12.300  1.00  0.00     0.162 HD
BRANCH  14  16
HETATM   16  C   UNL     1     -39.822 -45.106  11.855  1.00  0.00     0.084 C 
HETATM   17  C   UNL     1     -39.303 -44.469  13.151  1.00  0.00     0.025 C 
HETATM   18  C   UNL     1     -40.109 -43.249  13.595  1.00  0.00     0.002 C 
HETATM   19  C   UNL     1     -40.281 -42.232  12.470  1.00  0.00     0.000 C 
HETATM   20  C   UNL     1     -40.852 -42.873  11.209  1.00  0.00     0.002 C 
HETATM   21  C   UNL     1     -39.998 -44.055  10.751  1.00  0.00     0.025 C 
ENDBRANCH  14  16
ENDBRANCH   1  12
TORSDOF 4
ENDMDL
MODEL 3
REMARK VINA RESULT:      -5.9      3.262      4.346
REMARK  4 active torsions:
REMARK  status: ('A' for Active; 'I' for Inactive)
REMARK    1  A    between atoms: C_2  and  C_5 
REMARK    2  A    between atoms: N_8  and  C_9 
REMARK    3  A    between atoms: C_9  and  C_10 
REMARK       I    between atoms: C_10  and  N_12 
REMARK    4  A    between atoms: N_12  and  C_13 
ROOT
HETATM    1  C   UNL     1     -40.740 -49.626  11.123  1.00  0.00     0.250 C 
ENDROOT
BRANCH   1   2
HETATM    2  N   UNL     1     -41.642 -48.520  10.854  1.00  0.00    -0.294 N 
HETATM    3  C   UNL     1     -41.915 -47.459  11.668  1.00  0.00     0.113 A 
HETATM    4  C   UNL     1     -42.771 -46.647  10.967  1.00  0.00     0.054 A 
HETATM    5  C   UNL     1     -42.946 -47.279   9.706  1.00  0.00     0.133 A 
HETATM    6  N   UNL     1     -42.237 -48.427   9.646  1.00  0.00    -0.294 N 
ATOM      7  HN  UNL     1     -42.168 -49.078   8.864  1.00  0.00     0.187 HD
BRANCH   5   8
HETATM    8  C   UNL     1     -43.792 -46.779   8.565  1.00  0.00     0.433 C 
HETATM    9  F   UNL     1     -44.444 -47.796   7.933  1.00  0.00    -0.165 F 
HETATM   10  F   UNL     1     -43.060 -46.145   7.610  1.00  0.00    -0.165 F 
HETATM   11  F   UNL     1     -44.754 -45.908   8.972  1.00  0.00    -0.165 F 
ENDBRANCH   5   8
ENDBRANCH   1   2
BRANCH   1  12
HETATM   12  C   UNL     1     -41.136 -50.390  12.366  1.00  0.00     0.237 C 
HETATM   13  O   UNL     1     -40.351 -50.579  13.294  1.00  0.00    -0.272 OA
HETATM   14  N   UNL     1     -42.425 -50.897  12.366  1.00  0.00    -0.355 N 
HETATM   15  H   UNL     1     -43.087 -50.521  11.697  1.00  0.00     0.162 HD
BRANCH  14  16
HETATM   16  C   UNL     1     -42.963 -51.570  13.547  1.00  0.00     0.084 C 
HETATM   17  C   UNL     1     -43.089 -53.083  13.323  1.00  0.00     0.025 C 
HETATM   18  C   UNL     1     -44.247 -53.468  12.402  1.00  0.00     0.002 C 
HETATM   19  C   UNL     1     -45.563 -52.828  12.834  1.00  0.00     0.000 C 
HETATM   20  C   UNL     1     -45.432 -51.317  12.995  1.00  0.00     0.002 C 
HETATM   21  C   UNL     1     -44.306 -50.957  13.964  1.00  0.00     0.025 C 
ENDBRANCH  14  16
ENDBRANCH   1  12
TORSDOF 4
ENDMDL
MODEL 4
REMARK VINA RESULT:      -5.8      3.296      4.325
REMARK  4 active torsions:
REMARK  status: ('A' for Active; 'I' for Inactive)
REMARK    1  A    between atoms: C_2  and  C_5 
REMARK    2  A    between atoms: N_8  and  C_9 
REMARK    3  A    between atoms: C_9  and  C_10 
REMARK       I    between atoms: C_10  and  N_12 
REMARK    4  A    between atoms: N_12  and  C_13 
ROOT
HETATM    1  C   UNL     1     -41.996 -49.344  12.826  1.00  0.00     0.250 C 
ENDROOT
BRANCH   1   2
HETATM    2  N   UNL     1     -42.091 -48.386  11.739  1.00  0.00    -0.294 N 
HETATM    3  C   UNL     1     -41.351 -47.252  11.569  1.00  0.00     0.113 A 
HETATM    4  C   UNL     1     -41.751 -46.708  10.374  1.00  0.00     0.054 A 
HETATM    5  C   UNL     1     -42.729 -47.601   9.859  1.00  0.00     0.133 A 
HETATM    6  N   UNL     1     -42.922 -48.636  10.704  1.00  0.00    -0.294 N 
ATOM      7  HN  UNL     1     -43.553 -49.428  10.588  1.00  0.00     0.187 HD
BRANCH   5   8
HETATM    8  C   UNL     1     -43.473 -47.458   8.557  1.00  0.00     0.433 C 
HETATM    9  F   UNL     1     -43.388 -46.191   8.060  1.00  0.00    -0.165 F 
HETATM   10  F   UNL     1     -44.800 -47.729   8.682  1.00  0.00    -0.165 F 
HETATM   11  F   UNL     1     -42.990 -48.279   7.587  1.00  0.00    -0.165 F 
ENDBRANCH   5   8
ENDBRANCH   1   2
BRANCH   1  12
HETATM   12  C   UNL     1     -41.871 -50.763  12.321  1.00  0.00     0.237 C 
HETATM   13  O   UNL     1     -40.980 -51.104  11.544  1.00  0.00    -0.272 OA
HETATM   14  N   UNL     1     -42.852 -51.638  12.759  1.00  0.00    -0.355 N 
HETATM   15  H   UNL     1     -43.409 -51.370  13.561  1.00  0.00     0.162 HD
BRANCH  14  16
HETATM   16  C   UNL     1     -42.790 -53.059  12.421  1.00  0.00     0.084 C 
HETATM   17  C   UNL     1     -44.185 -53.699  12.423  1.00  0.00     0.025 C 
HETATM   18  C   UNL     1     -44.755 -53.912  13.824  1.00  0.00     0.002 C 
HETATM   19  C   UNL     1     -43.776 -54.640  14.740  1.00  0.00     0.000 C 
HETATM   20  C   UNL     1     -42.413 -53.956  14.770  1.00  0.00     0.002 C 
HETATM   21  C   UNL     1     -41.835 -53.806  13.363  1.00  0.00     0.025 C 
ENDBRANCH  14  16
ENDBRANCH   1  12
TORSDOF 4
ENDMDL
MODEL 5
REMARK VINA RESULT:      -5.8      3.638      4.519
REMARK  4 active torsions:
REMARK  status: ('A' for Active; 'I' for Inactive)
REMARK    1  A    between atoms: C_2  and  C_5 
REMARK    2  A    between atoms: N_8  and  C_9 
REMARK    3  A    between atoms: C_9  and  C_10 
REMARK       I    between atoms: C_10  and  N_12 
REMARK    4  A    between atoms: N_12  and  C_13 
ROOT
HETATM    1  C   UNL     1     -42.217 -48.471  12.877  1.00  0.00     0.250 C 
ENDROOT
BRANCH   1   2
HETATM    2  N   UNL     1     -42.643 -47.841  11.640  1.00  0.00    -0.294 N 
HETATM    3  C   UNL     1     -41.937 -46.958  10.875  1.00  0.00     0.113 A 
HETATM    4  C   UNL     1     -42.718 -46.688   9.779  1.00  0.00     0.054 A 
HETATM    5  C   UNL     1     -43.886 -47.481   9.941  1.00  0.00     0.133 A 
HETATM    6  N   UNL     1     -43.823 -48.194  11.087  1.00  0.00    -0.294 N 
ATOM      7  HN  UNL     1     -44.512 -48.851  11.452  1.00  0.00     0.187 HD
BRANCH   5   8
HETATM    8  C   UNL     1     -45.057 -47.553   8.997  1.00  0.00     0.433 C 
HETATM    9  F   UNL     1     -46.100 -48.248   9.533  1.00  0.00    -0.165 F 
HETATM   10  F   UNL     1     -44.748 -48.173   7.827  1.00  0.00    -0.165 F 
HETATM   11  F   UNL     1     -45.545 -46.324   8.678  1.00  0.00    -0.165 F 
ENDBRANCH   5   8
ENDBRANCH   1   2
BRANCH   1  12
HETATM   12  C   UNL     1     -42.619 -49.927  12.938  1.00  0.00     0.237 C 
HETATM   13  O   UNL     1     -42.085 -50.782  12.232  1.00  0.00    -0.272 OA
HETATM   14  N   UNL     1     -43.655 -50.221  13.809  1.00  0.00    -0.355 N 
HETATM   15  H   UNL     1     -43.891 -49.538  14.519  1.00  0.00     0.162 HD
BRANCH  14  16
HETATM   16  C   UNL     1     -44.073 -51.604  14.033  1.00  0.00     0.084 C 
HETATM   17  C   UNL     1     -45.218 -52.004  13.094  1.00  0.00     0.025 C 
HETATM   18  C   UNL     1     -46.563 -51.387  13.476  1.00  0.00     0.002 C 
HETATM   19  C   UNL     1     -46.903 -51.615  14.946  1.00  0.00     0.000 C 
HETATM   20  C   UNL     1     -45.777 -51.157  15.867  1.00  0.00     0.002 C 
HETATM   21  C   UNL     1     -44.454 -51.830  15.502  1.00  0.00     0.025 C 
ENDBRANCH  14  16
ENDBRANCH   1  12
TORSDOF 4
ENDMDL
MODEL 6
REMARK VINA RESULT:      -5.5      4.616      5.645
REMARK  4 active torsions:
REMARK  status: ('A' for Active; 'I' for Inactive)
REMARK    1  A    between atoms: C_2  and  C_5 
REMARK    2  A    between atoms: N_8  and  C_9 
REMARK    3  A    between atoms: C_9  and  C_10 
REMARK       I    between atoms: C_10  and  N_12 
REMARK    4  A    between atoms: N_12  and  C_13 
ROOT
HETATM    1  C   UNL     1     -41.375 -49.080  10.637  1.00  0.00     0.250 C 
ENDROOT
BRANCH   1   2
HETATM    2  N   UNL     1     -41.490 -47.634  10.584  1.00  0.00    -0.294 N 
HETATM    3  C   UNL     1     -42.637 -46.894  10.599  1.00  0.00     0.113 A 
HETATM    4  C   UNL     1     -42.245 -45.578  10.595  1.00  0.00     0.054 A 
HETATM    5  C   UNL     1     -40.825 -45.605  10.609  1.00  0.00     0.133 A 
HETATM    6  N   UNL     1     -40.372 -46.877  10.612  1.00  0.00    -0.294 N 
ATOM      7  HN  UNL     1     -39.404 -47.195  10.630  1.00  0.00     0.187 HD
BRANCH   5   8
HETATM    8  C   UNL     1     -39.908 -44.410  10.620  1.00  0.00     0.433 C 
HETATM    9  F   UNL     1     -39.175 -44.323   9.474  1.00  0.00    -0.165 F 
HETATM   10  F   UNL     1     -39.012 -44.448  11.642  1.00  0.00    -0.165 F 
HETATM   11  F   UNL     1     -40.584 -43.235  10.728  1.00  0.00    -0.165 F 
ENDBRANCH   5   8
ENDBRANCH   1   2
BRANCH   1  12
HETATM   12  C   UNL     1     -41.653 -49.620  12.021  1.00  0.00     0.237 C 
HETATM   13  O   UNL     1     -41.171 -49.107  13.031  1.00  0.00    -0.272 OA
HETATM   14  N   UNL     1     -42.449 -50.752  12.069  1.00  0.00    -0.355 N 
HETATM   15  H   UNL     1     -42.996 -50.987  11.249  1.00  0.00     0.162 HD
BRANCH  14  16
HETATM   16  C   UNL     1     -42.871 -51.316  13.350  1.00  0.00     0.084 C 
HETATM   17  C   UNL     1     -42.905 -52.849  13.306  1.00  0.00     0.025 C 
HETATM   18  C   UNL     1     -44.084 -53.410  12.511  1.00  0.00     0.002 C 
HETATM   19  C   UNL     1     -45.414 -52.806  12.952  1.00  0.00     0.000 C 
HETATM   20  C   UNL     1     -45.379 -51.282  12.933  1.00  0.00     0.002 C 
HETATM   21  C   UNL     1     -44.228 -50.742  13.781  1.00  0.00     0.025 C 
ENDBRANCH  14  16
ENDBRANCH   1  12
TORSDOF 4
ENDMDL
MODEL 7
REMARK VINA RESULT:      -5.5      2.516      3.532
REMARK  4 active torsions:
REMARK  status: ('A' for Active; 'I' for Inactive)
REMARK    1  A    between atoms: C_2  and  C_5 
REMARK    2  A    between atoms: N_8  and  C_9 
REMARK    3  A    between atoms: C_9  and  C_10 
REMARK       I    between atoms: C_10  and  N_12 
REMARK    4  A    between atoms: N_12  and  C_13 
ROOT
HETATM    1  C   UNL     1     -40.490 -49.512  11.488  1.00  0.00     0.250 C 
ENDROOT
BRANCH   1   2
HETATM    2  N   UNL     1     -41.235 -48.411  10.904  1.00  0.00    -0.294 N 
HETATM    3  C   UNL     1     -41.048 -47.077  11.124  1.00  0.00     0.113 A 
HETATM    4  C   UNL     1     -41.941 -46.425  10.311  1.00  0.00     0.054 A 
HETATM    5  C   UNL     1     -42.620 -47.448   9.596  1.00  0.00     0.133 A 
HETATM    6  N   UNL     1     -42.169 -48.666   9.963  1.00  0.00    -0.294 N 
ATOM      7  HN  UNL     1     -42.467 -49.576   9.610  1.00  0.00     0.187 HD
BRANCH   5   8
HETATM    8  C   UNL     1     -43.699 -47.252   8.563  1.00  0.00     0.433 C 
HETATM    9  F   UNL     1     -44.093 -45.950   8.481  1.00  0.00    -0.165 F 
HETATM   10  F   UNL     1     -44.820 -47.972   8.836  1.00  0.00    -0.165 F 
HETATM   11  F   UNL     1     -43.294 -47.605   7.313  1.00  0.00    -0.165 F 
ENDBRANCH   5   8
ENDBRANCH   1   2
BRANCH   1  12
HETATM   12  C   UNL     1     -41.384 -50.454  12.262  1.00  0.00     0.237 C 
HETATM   13  O   UNL     1     -42.572 -50.207  12.465  1.00  0.00    -0.272 OA
HETATM   14  N   UNL     1     -40.763 -51.588  12.760  1.00  0.00    -0.355 N 
HETATM   15  H   UNL     1     -39.864 -51.849  12.373  1.00  0.00     0.162 HD
BRANCH  14  16
HETATM   16  C   UNL     1     -41.536 -52.624  13.442  1.00  0.00     0.084 C 
HETATM   17  C   UNL     1     -41.551 -52.407  14.961  1.00  0.00     0.025 C 
HETATM   18  C   UNL     1     -40.225 -52.752  15.638  1.00  0.00     0.002 C 
HETATM   19  C   UNL     1     -39.724 -54.140  15.249  1.00  0.00     0.000 C 
HETATM   20  C   UNL     1     -39.661 -54.316  13.736  1.00  0.00     0.002 C 
HETATM   21  C   UNL     1     -41.012 -54.022  13.085  1.00  0.00     0.025 C 
ENDBRANCH  14  16
ENDBRANCH   1  12
TORSDOF 4
ENDMDL
MODEL 8
REMARK VINA RESULT:      -5.4      4.687      5.381
REMARK  4 active torsions:
REMARK  status: ('A' for Active; 'I' for Inactive)
REMARK    1  A    between atoms: C_2  and  C_5 
REMARK    2  A    between atoms: N_8  and  C_9 
REMARK    3  A    between atoms: C_9  and  C_10 
REMARK       I    between atoms: C_10  and  N_12 
REMARK    4  A    between atoms: N_12  and  C_13 
ROOT
HETATM    1  C   UNL     1     -41.860 -52.520  11.883  1.00  0.00     0.250 C 
ENDROOT
BRANCH   1   2
HETATM    2  N   UNL     1     -43.045 -52.847  12.656  1.00  0.00    -0.294 N 
HETATM    3  C   UNL     1     -43.237 -53.937  13.455  1.00  0.00     0.113 A 
HETATM    4  C   UNL     1     -44.477 -53.783  14.023  1.00  0.00     0.054 A 
HETATM    5  C   UNL     1     -44.967 -52.541  13.536  1.00  0.00     0.133 A 
HETATM    6  N   UNL     1     -44.071 -51.970  12.702  1.00  0.00    -0.294 N 
ATOM      7  HN  UNL     1     -44.151 -51.077  12.217  1.00  0.00     0.187 HD
BRANCH   5   8
HETATM    8  C   UNL     1     -46.292 -51.908  13.872  1.00  0.00     0.433 C 
HETATM    9  F   UNL     1     -46.167 -50.952  14.836  1.00  0.00    -0.165 F 
HETATM   10  F   UNL     1     -47.196 -52.808  14.343  1.00  0.00    -0.165 F 
HETATM   11  F   UNL     1     -46.862 -51.294  12.800  1.00  0.00    -0.165 F 
ENDBRANCH   5   8
ENDBRANCH   1   2
BRANCH   1  12
HETATM   12  C   UNL     1     -40.601 -52.602  12.716  1.00  0.00     0.237 C 
HETATM   13  O   UNL     1     -40.073 -53.677  12.997  1.00  0.00    -0.272 OA
HETATM   14  N   UNL     1     -40.111 -51.389  13.173  1.00  0.00    -0.355 N 
HETATM   15  H   UNL     1     -40.442 -50.542  12.728  1.00  0.00     0.162 HD
BRANCH  14  16
HETATM   16  C   UNL     1     -38.848 -51.322  13.906  1.00  0.00     0.084 C 
HETATM   17  C   UNL     1     -38.936 -50.351  15.090  1.00  0.00     0.025 C 
HETATM   18  C   UNL     1     -38.935 -48.881  14.673  1.00  0.00     0.002 C 
HETATM   19  C   UNL     1     -37.782 -48.551  13.729  1.00  0.00     0.000 C 
HETATM   20  C   UNL     1     -37.746 -49.491  12.528  1.00  0.00     0.002 C 
HETATM   21  C   UNL     1     -37.690 -50.953  12.969  1.00  0.00     0.025 C 
ENDBRANCH  14  16
ENDBRANCH   1  12
TORSDOF 4
ENDMDL
MODEL 9
REMARK VINA RESULT:      -5.4      6.273      7.246
REMARK  4 active torsions:
REMARK  status: ('A' for Active; 'I' for Inactive)
REMARK    1  A    between atoms: C_2  and  C_5 
REMARK    2  A    between atoms: N_8  and  C_9 
REMARK    3  A    between atoms: C_9  and  C_10 
REMARK       I    between atoms: C_10  and  N_12 
REMARK    4  A    between atoms: N_12  and  C_13 
ROOT
HETATM    1  C   UNL     1     -45.483 -54.738  14.026  1.00  0.00     0.250 C 
ENDROOT
BRANCH   1   2
HETATM    2  N   UNL     1     -46.010 -53.436  14.391  1.00  0.00    -0.294 N 
HETATM    3  C   UNL     1     -46.322 -52.405  13.553  1.00  0.00     0.113 A 
HETATM    4  C   UNL     1     -46.842 -51.410  14.344  1.00  0.00     0.054 A 
HETATM    5  C   UNL     1     -46.839 -51.935  15.664  1.00  0.00     0.133 A 
HETATM    6  N   UNL     1     -46.334 -53.187  15.678  1.00  0.00    -0.294 N 
ATOM      7  HN  UNL     1     -46.221 -53.806  16.481  1.00  0.00     0.187 HD
BRANCH   5   8
HETATM    8  C   UNL     1     -47.322 -51.233  16.906  1.00  0.00     0.433 C 
HETATM    9  F   UNL     1     -46.500 -50.205  17.260  1.00  0.00    -0.165 F 
HETATM   10  F   UNL     1     -47.382 -52.061  17.984  1.00  0.00    -0.165 F 
HETATM   11  F   UNL     1     -48.560 -50.692  16.751  1.00  0.00    -0.165 F 
ENDBRANCH   5   8
ENDBRANCH   1   2
BRANCH   1  12
HETATM   12  C   UNL     1     -44.039 -54.901  14.443  1.00  0.00     0.237 C 
HETATM   13  O   UNL     1     -43.689 -55.743  15.269  1.00  0.00    -0.272 OA
HETATM   14  N   UNL     1     -43.149 -54.011  13.863  1.00  0.00    -0.355 N 
HETATM   15  H   UNL     1     -43.447 -53.509  13.036  1.00  0.00     0.162 HD
BRANCH  14  16
HETATM   16  C   UNL     1     -41.712 -54.126  14.108  1.00  0.00     0.084 C 
HETATM   17  C   UNL     1     -41.223 -53.055  15.093  1.00  0.00     0.025 C 
HETATM   18  C   UNL     1     -41.151 -51.655  14.484  1.00  0.00     0.002 C 
HETATM   19  C   UNL     1     -40.378 -51.639  13.169  1.00  0.00     0.000 C 
HETATM   20  C   UNL     1     -40.917 -52.669  12.182  1.00  0.00     0.002 C 
HETATM   21  C   UNL     1     -40.926 -54.071  12.791  1.00  0.00     0.025 C 
ENDBRANCH  14  16
ENDBRANCH   1  12
TORSDOF 4
ENDMDL
