MODEL 1
REMARK VINA RESULT:      -6.4      0.000      0.000
REMARK  3 active torsions:
REMARK  status: ('A' for Active; 'I' for Inactive)
REMARK    1  A    between atoms: C_2  and  N_3 
REMARK    2  A    between atoms: C_2  and  C_16 
REMARK       I    between atoms: N_3  and  C_4 
REMARK       I    between atoms: C_4  and  N_6 
REMARK    3  A    between atoms: N_6  and  C_7 
ROOT
HETATM    1  N   UNL     1     -42.575 -52.362  12.535  1.00  0.00    -0.338 N 
HETATM    2  C   UNL     1     -42.600 -50.987  12.504  1.00  0.00     0.322 C 
HETATM    3  O   UNL     1     -43.354 -50.305  13.181  1.00  0.00    -0.247 OA
HETATM    4  N   UNL     1     -41.634 -50.492  11.654  1.00  0.00    -0.295 N 
HETATM    5  H   UNL     1     -42.247 -52.813  11.692  1.00  0.00     0.164 HD
HETATM    6  H   UNL     1     -40.734 -50.929  11.782  1.00  0.00     0.172 HD
ENDROOT
BRANCH   1   7
HETATM    7  C   UNL     1     -43.360 -53.156  13.483  1.00  0.00     0.086 C 
HETATM    8  C   UNL     1     -42.427 -54.226  14.063  1.00  0.00     0.032 C 
BRANCH   7   9
HETATM    9  C   UNL     1     -44.636 -53.784  12.838  1.00  0.00     0.012 C 
HETATM   10  C   UNL     1     -45.748 -52.762  12.527  1.00  0.00     0.033 C 
HETATM   11  C   UNL     1     -46.420 -52.247  13.799  1.00  0.00     0.168 C 
HETATM   12  O   UNL     1     -46.940 -53.329  14.575  1.00  0.00    -0.391 OA
HETATM   13  C   UNL     1     -45.937 -54.267  14.956  1.00  0.00     0.168 C 
HETATM   14  C   UNL     1     -45.285 -54.873  13.718  1.00  0.00     0.033 C 
ENDBRANCH   7   9
ENDBRANCH   1   7
BRANCH   4  15
HETATM   15  C   UNL     1     -41.509 -49.119  11.422  1.00  0.00     0.109 A 
HETATM   16  C   UNL     1     -40.561 -48.358  12.095  1.00  0.00     0.055 A 
HETATM   17  C   UNL     1     -40.523 -46.981  11.869  1.00  0.00    -0.057 A 
HETATM   18  C   UNL     1     -39.594 -46.088  12.632  1.00  0.00     0.048 C 
HETATM   19  C   UNL     1     -41.388 -46.444  10.919  1.00  0.00     0.031 A 
HETATM   20  C   UNL     1     -42.300 -47.279  10.279  1.00  0.00     0.007 A 
HETATM   21  C   UNL     1     -43.190 -46.756   9.191  1.00  0.00     0.068 C 
HETATM   22  N   UNL     1     -42.405 -48.600  10.560  1.00  0.00    -0.346 N 
ATOM     23  HN  UNL     1     -43.131 -49.178  10.137  1.00  0.00     0.167 HD
ENDBRANCH   4  15
TORSDOF 3
ENDMDL
MODEL 2
REMARK VINA RESULT:      -6.3      2.041      7.008
REMARK  3 active torsions:
REMARK  status: ('A' for Active; 'I' for Inactive)
REMARK    1  A    between atoms: C_2  and  N_3 
REMARK    2  A    between atoms: C_2  and  C_16 
REMARK       I    between atoms: N_3  and  C_4 
REMARK       I    between atoms: C_4  and  N_6 
REMARK    3  A    between atoms: N_6  and  C_7 
ROOT
HETATM    1  N   UNL     1     -40.839 -49.049  10.645  1.00  0.00    -0.338 N 
HETATM    2  C   UNL     1     -41.269 -49.913  11.626  1.00  0.00     0.322 C 
HETATM    3  O   UNL     1     -41.792 -49.552  12.669  1.00  0.00    -0.247 OA
HETATM    4  N   UNL     1     -41.079 -51.225  11.250  1.00  0.00    -0.295 N 
HETATM    5  H   UNL     1     -40.089 -49.390  10.061  1.00  0.00     0.164 HD
HETATM    6  H   UNL     1     -41.385 -51.414  10.308  1.00  0.00     0.172 HD
ENDROOT
BRANCH   1   7
HETATM    7  C   UNL     1     -41.082 -47.605  10.688  1.00  0.00     0.086 C 
HETATM    8  C   UNL     1     -40.041 -46.997  11.636  1.00  0.00     0.032 C 
BRANCH   7   9
HETATM    9  C   UNL     1     -42.540 -47.247  11.118  1.00  0.00     0.012 C 
HETATM   10  C   UNL     1     -43.575 -47.367   9.982  1.00  0.00     0.033 C 
HETATM   11  C   UNL     1     -43.412 -46.259   8.943  1.00  0.00     0.168 C 
HETATM   12  O   UNL     1     -43.492 -44.970   9.556  1.00  0.00    -0.391 OA
HETATM   13  C   UNL     1     -42.504 -44.775  10.565  1.00  0.00     0.168 C 
HETATM   14  C   UNL     1     -42.671 -45.811  11.672  1.00  0.00     0.033 C 
ENDBRANCH   7   9
ENDBRANCH   1   7
BRANCH   4  15
HETATM   15  C   UNL     1     -41.393 -52.279  12.114  1.00  0.00     0.109 A 
HETATM   16  C   UNL     1     -40.421 -52.866  12.916  1.00  0.00     0.055 A 
HETATM   17  C   UNL     1     -40.778 -53.955  13.713  1.00  0.00    -0.057 A 
HETATM   18  C   UNL     1     -39.761 -54.696  14.526  1.00  0.00     0.048 C 
HETATM   19  C   UNL     1     -42.112 -54.354  13.725  1.00  0.00     0.031 A 
HETATM   20  C   UNL     1     -43.026 -53.703  12.901  1.00  0.00     0.007 A 
HETATM   21  C   UNL     1     -44.485 -54.047  12.948  1.00  0.00     0.068 C 
HETATM   22  N   UNL     1     -42.668 -52.706  12.057  1.00  0.00    -0.346 N 
ATOM     23  HN  UNL     1     -43.337 -52.295  11.405  1.00  0.00     0.167 HD
ENDBRANCH   4  15
TORSDOF 3
ENDMDL
MODEL 3
REMARK VINA RESULT:      -6.3      1.952      7.251
REMARK  3 active torsions:
REMARK  status: ('A' for Active; 'I' for Inactive)
REMARK    1  A    between atoms: C_2  and  N_3 
REMARK    2  A    between atoms: C_2  and  C_16 
REMARK       I    between atoms: N_3  and  C_4 
REMARK       I    between atoms: C_4  and  N_6 
REMARK    3  A    between atoms: N_6  and  C_7 
ROOT
HETATM    1  N   UNL     1     -41.319 -48.795  10.654  1.00  0.00    -0.338 N 
HETATM    2  C   UNL     1     -41.708 -49.764  11.549  1.00  0.00     0.322 C 
HETATM    3  O   UNL     1     -42.514 -49.576  12.448  1.00  0.00    -0.247 OA
HETATM    4  N   UNL     1     -41.112 -50.973  11.262  1.00  0.00    -0.295 N 
HETATM    5  H   UNL     1     -40.401 -48.916  10.250  1.00  0.00     0.164 HD
HETATM    6  H   UNL     1     -41.155 -51.212  10.283  1.00  0.00     0.172 HD
ENDROOT
BRANCH   1   7
HETATM    7  C   UNL     1     -41.928 -47.464  10.600  1.00  0.00     0.086 C 
HETATM    8  C   UNL     1     -42.754 -47.394   9.309  1.00  0.00     0.032 C 
BRANCH   7   9
HETATM    9  C   UNL     1     -40.878 -46.311  10.682  1.00  0.00     0.012 C 
HETATM   10  C   UNL     1     -39.856 -46.476  11.824  1.00  0.00     0.033 C 
HETATM   11  C   UNL     1     -40.491 -46.244  13.194  1.00  0.00     0.168 C 
HETATM   12  O   UNL     1     -41.107 -44.955  13.259  1.00  0.00    -0.391 OA
HETATM   13  C   UNL     1     -42.118 -44.777  12.270  1.00  0.00     0.168 C 
HETATM   14  C   UNL     1     -41.521 -44.921  10.874  1.00  0.00     0.033 C 
ENDBRANCH   7   9
ENDBRANCH   1   7
BRANCH   4  15
HETATM   15  C   UNL     1     -41.319 -52.093  12.073  1.00  0.00     0.109 A 
HETATM   16  C   UNL     1     -40.276 -52.661  12.796  1.00  0.00     0.055 A 
HETATM   17  C   UNL     1     -40.527 -53.815  13.540  1.00  0.00    -0.057 A 
HETATM   18  C   UNL     1     -39.429 -54.534  14.261  1.00  0.00     0.048 C 
HETATM   19  C   UNL     1     -41.831 -54.301  13.585  1.00  0.00     0.031 A 
HETATM   20  C   UNL     1     -42.821 -53.664  12.842  1.00  0.00     0.007 A 
HETATM   21  C   UNL     1     -44.252 -54.104  12.931  1.00  0.00     0.068 C 
HETATM   22  N   UNL     1     -42.566 -52.599  12.045  1.00  0.00    -0.346 N 
ATOM     23  HN  UNL     1     -43.290 -52.196  11.449  1.00  0.00     0.167 HD
ENDBRANCH   4  15
TORSDOF 3
ENDMDL
MODEL 4
REMARK VINA RESULT:      -6.3      2.531      3.758
REMARK  3 active torsions:
REMARK  status: ('A' for Active; 'I' for Inactive)
REMARK    1  A    between atoms: C_2  and  N_3 
REMARK    2  A    between atoms: C_2  and  C_16 
REMARK       I    between atoms: N_3  and  C_4 
REMARK       I    between atoms: C_4  and  N_6 
REMARK    3  A    between atoms: N_6  and  C_7 
ROOT
HETATM    1  N   UNL     1     -40.522 -51.244  11.875  1.00  0.00    -0.338 N 
HETATM    2  C   UNL     1     -40.958 -49.940  11.902  1.00  0.00     0.322 C 
HETATM    3  O   UNL     1     -41.203 -49.325  12.929  1.00  0.00    -0.247 OA
HETATM    4  N   UNL     1     -41.029 -49.413  10.630  1.00  0.00    -0.295 N 
HETATM    5  H   UNL     1     -40.745 -51.762  11.037  1.00  0.00     0.164 HD
HETATM    6  H   UNL     1     -40.210 -49.610  10.076  1.00  0.00     0.172 HD
ENDROOT
BRANCH   1   7
HETATM    7  C   UNL     1     -40.178 -51.998  13.083  1.00  0.00     0.086 C 
HETATM    8  C   UNL     1     -38.695 -51.736  13.374  1.00  0.00     0.032 C 
BRANCH   7   9
HETATM    9  C   UNL     1     -40.485 -53.524  12.955  1.00  0.00     0.012 C 
HETATM   10  C   UNL     1     -41.982 -53.872  13.072  1.00  0.00     0.033 C 
HETATM   11  C   UNL     1     -42.497 -53.700  14.500  1.00  0.00     0.168 C 
HETATM   12  O   UNL     1     -41.730 -54.484  15.417  1.00  0.00    -0.391 OA
HETATM   13  C   UNL     1     -40.344 -54.148  15.406  1.00  0.00     0.168 C 
HETATM   14  C   UNL     1     -39.758 -54.377  14.016  1.00  0.00     0.033 C 
ENDBRANCH   7   9
ENDBRANCH   1   7
BRANCH   4  15
HETATM   15  C   UNL     1     -41.500 -48.115  10.408  1.00  0.00     0.109 A 
HETATM   16  C   UNL     1     -42.770 -47.890   9.890  1.00  0.00     0.055 A 
HETATM   17  C   UNL     1     -43.163 -46.576   9.630  1.00  0.00    -0.057 A 
HETATM   18  C   UNL     1     -44.478 -46.267   8.981  1.00  0.00     0.048 C 
HETATM   19  C   UNL     1     -42.293 -45.546   9.976  1.00  0.00     0.031 A 
HETATM   20  C   UNL     1     -41.043 -45.858  10.505  1.00  0.00     0.007 A 
HETATM   21  C   UNL     1     -40.113 -44.778  10.968  1.00  0.00     0.068 C 
HETATM   22  N   UNL     1     -40.619 -47.133  10.673  1.00  0.00    -0.346 N 
ATOM     23  HN  UNL     1     -39.671 -47.340  10.988  1.00  0.00     0.167 HD
ENDBRANCH   4  15
TORSDOF 3
ENDMDL
MODEL 5
REMARK VINA RESULT:      -6.2      1.987      7.390
REMARK  3 active torsions:
REMARK  status: ('A' for Active; 'I' for Inactive)
REMARK    1  A    between atoms: C_2  and  N_3 
REMARK    2  A    between atoms: C_2  and  C_16 
REMARK       I    between atoms: N_3  and  C_4 
REMARK       I    between atoms: C_4  and  N_6 
REMARK    3  A    between atoms: N_6  and  C_7 
ROOT
HETATM    1  N   UNL     1     -40.864 -50.753  11.087  1.00  0.00    -0.338 N 
HETATM    2  C   UNL     1     -41.357 -51.391  12.202  1.00  0.00     0.322 C 
HETATM    3  O   UNL     1     -41.304 -50.924  13.330  1.00  0.00    -0.247 OA
HETATM    4  N   UNL     1     -41.956 -52.585  11.867  1.00  0.00    -0.295 N 
HETATM    5  H   UNL     1     -40.586 -51.357  10.325  1.00  0.00     0.164 HD
HETATM    6  H   UNL     1     -42.575 -52.508  11.075  1.00  0.00     0.172 HD
ENDROOT
BRANCH   1   7
HETATM    7  C   UNL     1     -40.339 -49.386  11.112  1.00  0.00     0.086 C 
HETATM    8  C   UNL     1     -38.942 -49.447  11.740  1.00  0.00     0.032 C 
BRANCH   7   9
HETATM    9  C   UNL     1     -41.275 -48.391  11.869  1.00  0.00     0.012 C 
HETATM   10  C   UNL     1     -42.644 -48.182  11.193  1.00  0.00     0.033 C 
HETATM   11  C   UNL     1     -42.525 -47.377   9.901  1.00  0.00     0.168 C 
HETATM   12  O   UNL     1     -41.893 -46.118  10.141  1.00  0.00    -0.391 OA
HETATM   13  C   UNL     1     -40.586 -46.254  10.696  1.00  0.00     0.168 C 
HETATM   14  C   UNL     1     -40.655 -46.986  12.032  1.00  0.00     0.033 C 
ENDBRANCH   7   9
ENDBRANCH   1   7
BRANCH   4  15
HETATM   15  C   UNL     1     -42.481 -53.432  12.849  1.00  0.00     0.109 A 
HETATM   16  C   UNL     1     -43.801 -53.864  12.795  1.00  0.00     0.055 A 
HETATM   17  C   UNL     1     -44.289 -54.657  13.835  1.00  0.00    -0.057 A 
HETATM   18  C   UNL     1     -45.726 -55.075  13.891  1.00  0.00     0.048 C 
HETATM   19  C   UNL     1     -43.407 -55.043  14.840  1.00  0.00     0.031 A 
HETATM   20  C   UNL     1     -42.095 -54.577  14.812  1.00  0.00     0.007 A 
HETATM   21  C   UNL     1     -41.093 -55.038  15.828  1.00  0.00     0.068 C 
HETATM   22  N   UNL     1     -41.640 -53.733  13.856  1.00  0.00    -0.346 N 
ATOM     23  HN  UNL     1     -40.699 -53.341  13.897  1.00  0.00     0.167 HD
ENDBRANCH   4  15
TORSDOF 3
ENDMDL
MODEL 6
REMARK VINA RESULT:      -6.2      1.010      2.115
REMARK  3 active torsions:
REMARK  status: ('A' for Active; 'I' for Inactive)
REMARK    1  A    between atoms: C_2  and  N_3 
REMARK    2  A    between atoms: C_2  and  C_16 
REMARK       I    between atoms: N_3  and  C_4 
REMARK       I    between atoms: C_4  and  N_6 
REMARK    3  A    between atoms: N_6  and  C_7 
ROOT
HETATM    1  N   UNL     1     -42.866 -52.178  12.248  1.00  0.00    -0.338 N 
HETATM    2  C   UNL     1     -42.283 -50.996  12.640  1.00  0.00     0.322 C 
HETATM    3  O   UNL     1     -42.290 -50.582  13.790  1.00  0.00    -0.247 OA
HETATM    4  N   UNL     1     -41.654 -50.377  11.581  1.00  0.00    -0.295 N 
HETATM    5  H   UNL     1     -43.162 -52.221  11.283  1.00  0.00     0.164 HD
HETATM    6  H   UNL     1     -41.086 -51.007  11.037  1.00  0.00     0.172 HD
ENDROOT
BRANCH   1   7
HETATM    7  C   UNL     1     -43.445 -53.137  13.192  1.00  0.00     0.086 C 
HETATM    8  C   UNL     1     -42.393 -54.224  13.438  1.00  0.00     0.032 C 
BRANCH   7   9
HETATM    9  C   UNL     1     -44.798 -53.738  12.694  1.00  0.00     0.012 C 
HETATM   10  C   UNL     1     -45.922 -52.696  12.527  1.00  0.00     0.033 C 
HETATM   11  C   UNL     1     -46.432 -52.187  13.873  1.00  0.00     0.168 C 
HETATM   12  O   UNL     1     -46.876 -53.271  14.693  1.00  0.00    -0.391 OA
HETATM   13  C   UNL     1     -45.849 -54.229  14.945  1.00  0.00     0.168 C 
HETATM   14  C   UNL     1     -45.356 -54.829  13.633  1.00  0.00     0.033 C 
ENDBRANCH   7   9
ENDBRANCH   1   7
BRANCH   4  15
HETATM   15  C   UNL     1     -41.038 -49.130  11.733  1.00  0.00     0.109 A 
HETATM   16  C   UNL     1     -41.478 -48.020  11.023  1.00  0.00     0.055 A 
HETATM   17  C   UNL     1     -40.785 -46.816  11.167  1.00  0.00    -0.057 A 
HETATM   18  C   UNL     1     -41.143 -45.607  10.358  1.00  0.00     0.048 C 
HETATM   19  C   UNL     1     -39.732 -46.765  12.076  1.00  0.00     0.031 A 
HETATM   20  C   UNL     1     -39.364 -47.921  12.758  1.00  0.00     0.007 A 
HETATM   21  C   UNL     1     -38.293 -47.888  13.806  1.00  0.00     0.068 C 
HETATM   22  N   UNL     1     -39.972 -49.114  12.555  1.00  0.00    -0.346 N 
ATOM     23  HN  UNL     1     -39.637 -49.966  13.006  1.00  0.00     0.167 HD
ENDBRANCH   4  15
TORSDOF 3
ENDMDL
MODEL 7
REMARK VINA RESULT:      -6.2      1.805      7.563
REMARK  3 active torsions:
REMARK  status: ('A' for Active; 'I' for Inactive)
REMARK    1  A    between atoms: C_2  and  N_3 
REMARK    2  A    between atoms: C_2  and  C_16 
REMARK       I    between atoms: N_3  and  C_4 
REMARK       I    between atoms: C_4  and  N_6 
REMARK    3  A    between atoms: N_6  and  C_7 
ROOT
HETATM    1  N   UNL     1     -41.590 -49.755  11.207  1.00  0.00    -0.338 N 
HETATM    2  C   UNL     1     -42.019 -50.557  12.239  1.00  0.00     0.322 C 
HETATM    3  O   UNL     1     -42.330 -50.137  13.343  1.00  0.00    -0.247 OA
HETATM    4  N   UNL     1     -42.099 -51.875  11.843  1.00  0.00    -0.295 N 
HETATM    5  H   UNL     1     -40.992 -50.201  10.526  1.00  0.00     0.164 HD
HETATM    6  H   UNL     1     -42.557 -51.992  10.953  1.00  0.00     0.172 HD
ENDROOT
BRANCH   1   7
HETATM    7  C   UNL     1     -41.585 -48.292  11.279  1.00  0.00     0.086 C 
HETATM    8  C   UNL     1     -42.350 -47.774  10.055  1.00  0.00     0.032 C 
BRANCH   7   9
HETATM    9  C   UNL     1     -40.146 -47.693  11.363  1.00  0.00     0.012 C 
HETATM   10  C   UNL     1     -39.398 -48.041  12.665  1.00  0.00     0.033 C 
HETATM   11  C   UNL     1     -39.975 -47.301  13.870  1.00  0.00     0.168 C 
HETATM   12  O   UNL     1     -39.965 -45.888  13.652  1.00  0.00    -0.391 OA
HETATM   13  C   UNL     1     -40.710 -45.501  12.500  1.00  0.00     0.168 C 
HETATM   14  C   UNL     1     -40.124 -46.153  11.251  1.00  0.00     0.033 C 
ENDBRANCH   7   9
ENDBRANCH   1   7
BRANCH   4  15
HETATM   15  C   UNL     1     -42.461 -52.881  12.745  1.00  0.00     0.109 A 
HETATM   16  C   UNL     1     -43.732 -53.442  12.724  1.00  0.00     0.055 A 
HETATM   17  C   UNL     1     -44.058 -54.398  13.687  1.00  0.00    -0.057 A 
HETATM   18  C   UNL     1     -45.439 -54.970  13.785  1.00  0.00     0.048 C 
HETATM   19  C   UNL     1     -43.067 -54.803  14.577  1.00  0.00     0.031 A 
HETATM   20  C   UNL     1     -41.814 -54.200  14.521  1.00  0.00     0.007 A 
HETATM   21  C   UNL     1     -40.695 -54.666  15.405  1.00  0.00     0.068 C 
HETATM   22  N   UNL     1     -41.519 -53.206  13.649  1.00  0.00    -0.346 N 
ATOM     23  HN  UNL     1     -40.620 -52.724  13.677  1.00  0.00     0.167 HD
ENDBRANCH   4  15
TORSDOF 3
ENDMDL
MODEL 8
REMARK VINA RESULT:      -5.9      2.596      7.352
REMARK  3 active torsions:
REMARK  status: ('A' for Active; 'I' for Inactive)
REMARK    1  A    between atoms: C_2  and  N_3 
REMARK    2  A    between atoms: C_2  and  C_16 
REMARK       I    between atoms: N_3  and  C_4 
REMARK       I    between atoms: C_4  and  N_6 
REMARK    3  A    between atoms: N_6  and  C_7 
ROOT
HETATM    1  N   UNL     1     -41.428 -48.826  13.068  1.00  0.00    -0.338 N 
HETATM    2  C   UNL     1     -42.749 -49.194  12.962  1.00  0.00     0.322 C 
HETATM    3  O   UNL     1     -43.523 -48.725  12.141  1.00  0.00    -0.247 OA
HETATM    4  N   UNL     1     -43.062 -50.189  13.863  1.00  0.00    -0.295 N 
HETATM    5  H   UNL     1     -41.014 -48.942  13.982  1.00  0.00     0.164 HD
HETATM    6  H   UNL     1     -42.381 -50.933  13.881  1.00  0.00     0.172 HD
ENDROOT
BRANCH   1   7
HETATM    7  C   UNL     1     -40.770 -47.925  12.119  1.00  0.00     0.086 C 
HETATM    8  C   UNL     1     -39.353 -48.465  11.888  1.00  0.00     0.032 C 
BRANCH   7   9
HETATM    9  C   UNL     1     -40.755 -46.440  12.602  1.00  0.00     0.012 C 
HETATM   10  C   UNL     1     -42.100 -45.709  12.419  1.00  0.00     0.033 C 
HETATM   11  C   UNL     1     -42.396 -45.422  10.948  1.00  0.00     0.168 C 
HETATM   12  O   UNL     1     -41.336 -44.670  10.352  1.00  0.00    -0.391 OA
HETATM   13  C   UNL     1     -40.078 -45.338  10.425  1.00  0.00     0.168 C 
HETATM   14  C   UNL     1     -39.694 -45.581  11.880  1.00  0.00     0.033 C 
ENDBRANCH   7   9
ENDBRANCH   1   7
BRANCH   4  15
HETATM   15  C   UNL     1     -44.365 -50.683  13.974  1.00  0.00     0.109 A 
HETATM   16  C   UNL     1     -44.995 -50.780  15.209  1.00  0.00     0.055 A 
HETATM   17  C   UNL     1     -46.273 -51.339  15.266  1.00  0.00    -0.057 A 
HETATM   18  C   UNL     1     -46.970 -51.564  16.573  1.00  0.00     0.048 C 
HETATM   19  C   UNL     1     -46.889 -51.703  14.072  1.00  0.00     0.031 A 
HETATM   20  C   UNL     1     -46.192 -51.560  12.875  1.00  0.00     0.007 A 
HETATM   21  C   UNL     1     -46.850 -51.860  11.562  1.00  0.00     0.068 C 
HETATM   22  N   UNL     1     -44.918 -51.104  12.821  1.00  0.00    -0.346 N 
ATOM     23  HN  UNL     1     -44.399 -51.081  11.943  1.00  0.00     0.167 HD
ENDBRANCH   4  15
TORSDOF 3
ENDMDL
MODEL 9
REMARK VINA RESULT:      -5.8      1.924      2.550
REMARK  3 active torsions:
REMARK  status: ('A' for Active; 'I' for Inactive)
REMARK    1  A    between atoms: C_2  and  N_3 
REMARK    2  A    between atoms: C_2  and  C_16 
REMARK       I    between atoms: N_3  and  C_4 
REMARK       I    between atoms: C_4  and  N_6 
REMARK    3  A    between atoms: N_6  and  C_7 
ROOT
HETATM    1  N   UNL     1     -43.976 -51.860  12.679  1.00  0.00    -0.338 N 
HETATM    2  C   UNL     1     -42.768 -51.277  12.987  1.00  0.00     0.322 C 
HETATM    3  O   UNL     1     -42.134 -51.522  14.003  1.00  0.00    -0.247 OA
HETATM    4  N   UNL     1     -42.354 -50.430  11.982  1.00  0.00    -0.295 N 
HETATM    5  H   UNL     1     -44.583 -51.317  12.081  1.00  0.00     0.164 HD
HETATM    6  H   UNL     1     -42.445 -50.835  11.063  1.00  0.00     0.172 HD
ENDROOT
BRANCH   1   7
HETATM    7  C   UNL     1     -44.569 -52.938  13.473  1.00  0.00     0.086 C 
HETATM    8  C   UNL     1     -44.252 -54.257  12.757  1.00  0.00     0.032 C 
BRANCH   7   9
HETATM    9  C   UNL     1     -46.104 -52.752  13.698  1.00  0.00     0.012 C 
HETATM   10  C   UNL     1     -46.493 -51.365  14.244  1.00  0.00     0.033 C 
HETATM   11  C   UNL     1     -46.070 -51.188  15.702  1.00  0.00     0.168 C 
HETATM   12  O   UNL     1     -46.624 -52.219  16.522  1.00  0.00    -0.391 OA
HETATM   13  C   UNL     1     -46.232 -53.525  16.106  1.00  0.00     0.168 C 
HETATM   14  C   UNL     1     -46.700 -53.786  14.678  1.00  0.00     0.033 C 
ENDBRANCH   7   9
ENDBRANCH   1   7
BRANCH   4  15
HETATM   15  C   UNL     1     -41.178 -49.684  12.102  1.00  0.00     0.109 A 
HETATM   16  C   UNL     1     -39.985 -50.127  11.543  1.00  0.00     0.055 A 
HETATM   17  C   UNL     1     -38.828 -49.373  11.748  1.00  0.00    -0.057 A 
HETATM   18  C   UNL     1     -37.492 -49.842  11.259  1.00  0.00     0.048 C 
HETATM   19  C   UNL     1     -38.939 -48.169  12.438  1.00  0.00     0.031 A 
HETATM   20  C   UNL     1     -40.176 -47.791  12.954  1.00  0.00     0.007 A 
HETATM   21  C   UNL     1     -40.354 -46.463  13.629  1.00  0.00     0.068 C 
HETATM   22  N   UNL     1     -41.283 -48.562  12.839  1.00  0.00    -0.346 N 
ATOM     23  HN  UNL     1     -42.160 -48.304  13.292  1.00  0.00     0.167 HD
ENDBRANCH   4  15
TORSDOF 3
ENDMDL
