MODEL 1
REMARK VINA RESULT:      -6.1      0.000      0.000
REMARK  4 active torsions:
REMARK  status: ('A' for Active; 'I' for Inactive)
REMARK    1  A    between atoms: C_2  and  C_5 
REMARK    2  A    between atoms: C_9  and  N_10 
REMARK       I    between atoms: N_10  and  C_11 
REMARK       I    between atoms: C_11  and  N_13 
REMARK    3  A    between atoms: N_13  and  C_14 
REMARK    4  A    between atoms: N_17  and  C_20 
ROOT
HETATM    1  N   UNL     1     -41.251 -50.384  12.890  1.00  0.00    -0.306 N 
HETATM    2  C   UNL     1     -41.321 -51.760  12.848  1.00  0.00     0.321 C 
HETATM    3  O   UNL     1     -42.025 -52.415  12.090  1.00  0.00    -0.247 OA
HETATM    4  N   UNL     1     -40.445 -52.359  13.722  1.00  0.00    -0.338 N 
HETATM    5  H   UNL     1     -40.667 -49.970  13.600  1.00  0.00     0.171 HD
HETATM    6  H   UNL     1     -40.178 -51.843  14.548  1.00  0.00     0.164 HD
ENDROOT
BRANCH   1   7
HETATM    7  C   UNL     1     -41.886 -49.512  11.974  1.00  0.00     0.067 A 
HETATM    8  C   UNL     1     -43.161 -49.008  12.113  1.00  0.00     0.120 A 
HETATM    9  N   UNL     1     -43.761 -48.203  11.207  1.00  0.00    -0.353 N 
HETATM   10  C   UNL     1     -43.058 -47.863  10.114  1.00  0.00     0.088 A 
ATOM     11  HN  UNL     1     -44.714 -47.867  11.350  1.00  0.00     0.166 HD
HETATM   12  N   UNL     1     -41.808 -48.308   9.869  1.00  0.00    -0.353 N 
HETATM   13  C   UNL     1     -41.255 -49.115  10.809  1.00  0.00     0.120 A 
ATOM     14  HN  UNL     1     -41.304 -48.050   9.020  1.00  0.00     0.166 HD
BRANCH  10  15
HETATM   15  C   UNL     1     -43.769 -46.993   9.080  1.00  0.00     0.007 C 
HETATM   16  C   UNL     1     -45.300 -47.155   9.210  1.00  0.00     0.022 C 
HETATM   17  C   UNL     1     -43.336 -47.442   7.675  1.00  0.00     0.022 C 
HETATM   18  C   UNL     1     -43.433 -45.504   9.267  1.00  0.00     0.022 C 
ENDBRANCH  10  15
ENDBRANCH   1   7
BRANCH   4  19
HETATM   19  C   UNL     1     -40.348 -53.821  13.769  1.00  0.00     0.089 C 
HETATM   20  C   UNL     1     -41.454 -54.445  14.625  1.00  0.00     0.055 C 
HETATM   21  C   UNL     1     -41.198 -54.228  16.114  1.00  0.00     0.275 C 
HETATM   22  N   UNL     1     -39.874 -54.683  16.557  1.00  0.00     0.093 N 
HETATM   23  C   UNL     1     -38.800 -54.074  15.761  1.00  0.00     0.275 C 
HETATM   24  C   UNL     1     -38.971 -54.269  14.254  1.00  0.00     0.055 C 
BRANCH  22  25
HETATM   25  C   UNL     1     -39.740 -56.149  16.659  1.00  0.00     0.223 A 
HETATM   26  C   UNL     1     -40.823 -56.997  17.269  1.00  0.00     0.038 A 
HETATM   27  C   UNL     1     -39.564 -56.732  18.038  1.00  0.00     0.038 A 
ENDBRANCH  22  25
ENDBRANCH   4  19
TORSDOF 4
ENDMDL
MODEL 2
REMARK VINA RESULT:      -5.8      3.935      4.795
REMARK  4 active torsions:
REMARK  status: ('A' for Active; 'I' for Inactive)
REMARK    1  A    between atoms: C_2  and  C_5 
REMARK    2  A    between atoms: C_9  and  N_10 
REMARK       I    between atoms: N_10  and  C_11 
REMARK       I    between atoms: C_11  and  N_13 
REMARK    3  A    between atoms: N_13  and  C_14 
REMARK    4  A    between atoms: N_17  and  C_20 
ROOT
HETATM    1  N   UNL     1     -39.296 -47.916  12.491  1.00  0.00    -0.306 N 
HETATM    2  C   UNL     1     -39.378 -47.841  13.864  1.00  0.00     0.321 C 
HETATM    3  O   UNL     1     -40.359 -47.480  14.502  1.00  0.00    -0.247 OA
HETATM    4  N   UNL     1     -38.235 -48.288  14.485  1.00  0.00    -0.338 N 
HETATM    5  H   UNL     1     -38.409 -48.180  12.091  1.00  0.00     0.171 HD
HETATM    6  H   UNL     1     -37.365 -48.217  13.977  1.00  0.00     0.164 HD
ENDROOT
BRANCH   1   7
HETATM    7  C   UNL     1     -40.379 -47.712  11.602  1.00  0.00     0.067 A 
HETATM    8  C   UNL     1     -40.621 -46.551  10.901  1.00  0.00     0.120 A 
HETATM    9  N   UNL     1     -41.682 -46.366  10.084  1.00  0.00    -0.353 N 
HETATM   10  C   UNL     1     -42.541 -47.388   9.937  1.00  0.00     0.088 A 
ATOM     11  HN  UNL     1     -41.825 -45.481   9.597  1.00  0.00     0.166 HD
HETATM   12  N   UNL     1     -42.410 -48.565  10.584  1.00  0.00    -0.353 N 
HETATM   13  C   UNL     1     -41.329 -48.695  11.394  1.00  0.00     0.120 A 
ATOM     14  HN  UNL     1     -43.088 -49.318  10.470  1.00  0.00     0.166 HD
BRANCH  10  15
HETATM   15  C   UNL     1     -43.758 -47.144   9.048  1.00  0.00     0.007 C 
HETATM   16  C   UNL     1     -45.030 -47.705   9.722  1.00  0.00     0.022 C 
HETATM   17  C   UNL     1     -43.544 -47.864   7.707  1.00  0.00     0.022 C 
HETATM   18  C   UNL     1     -43.980 -45.644   8.793  1.00  0.00     0.022 C 
ENDBRANCH  10  15
ENDBRANCH   1   7
BRANCH   4  19
HETATM   19  C   UNL     1     -38.170 -48.330  15.948  1.00  0.00     0.089 C 
HETATM   20  C   UNL     1     -36.774 -47.981  16.473  1.00  0.00     0.055 C 
HETATM   21  C   UNL     1     -35.789 -49.123  16.244  1.00  0.00     0.275 C 
HETATM   22  N   UNL     1     -36.243 -50.411  16.784  1.00  0.00     0.093 N 
HETATM   23  C   UNL     1     -37.572 -50.773  16.271  1.00  0.00     0.275 C 
HETATM   24  C   UNL     1     -38.626 -49.685  16.484  1.00  0.00     0.055 C 
BRANCH  22  25
HETATM   25  C   UNL     1     -36.157 -50.516  18.254  1.00  0.00     0.223 A 
HETATM   26  C   UNL     1     -34.929 -50.078  19.003  1.00  0.00     0.038 A 
HETATM   27  C   UNL     1     -35.205 -51.539  18.818  1.00  0.00     0.038 A 
ENDBRANCH  22  25
ENDBRANCH   4  19
TORSDOF 4
ENDMDL
MODEL 3
REMARK VINA RESULT:      -5.8      3.995      4.768
REMARK  4 active torsions:
REMARK  status: ('A' for Active; 'I' for Inactive)
REMARK    1  A    between atoms: C_2  and  C_5 
REMARK    2  A    between atoms: C_9  and  N_10 
REMARK       I    between atoms: N_10  and  C_11 
REMARK       I    between atoms: C_11  and  N_13 
REMARK    3  A    between atoms: N_13  and  C_14 
REMARK    4  A    between atoms: N_17  and  C_20 
ROOT
HETATM    1  N   UNL     1     -40.693 -48.049  13.418  1.00  0.00    -0.306 N 
HETATM    2  C   UNL     1     -39.439 -48.620  13.406  1.00  0.00     0.321 C 
HETATM    3  O   UNL     1     -38.900 -49.139  12.438  1.00  0.00    -0.247 OA
HETATM    4  N   UNL     1     -38.791 -48.491  14.613  1.00  0.00    -0.338 N 
HETATM    5  H   UNL     1     -41.038 -47.702  14.299  1.00  0.00     0.171 HD
HETATM    6  H   UNL     1     -39.357 -48.414  15.445  1.00  0.00     0.164 HD
ENDROOT
BRANCH   1   7
HETATM    7  C   UNL     1     -41.505 -47.857  12.274  1.00  0.00     0.067 A 
HETATM    8  C   UNL     1     -41.168 -47.085  11.184  1.00  0.00     0.120 A 
HETATM    9  N   UNL     1     -41.975 -46.887  10.117  1.00  0.00    -0.353 N 
HETATM   10  C   UNL     1     -43.171 -47.499  10.118  1.00  0.00     0.088 A 
ATOM     11  HN  UNL     1     -41.685 -46.294   9.339  1.00  0.00     0.166 HD
HETATM   12  N   UNL     1     -43.609 -48.266  11.137  1.00  0.00    -0.353 N 
HETATM   13  C   UNL     1     -42.761 -48.428  12.184  1.00  0.00     0.120 A 
ATOM     14  HN  UNL     1     -44.531 -48.703  11.122  1.00  0.00     0.166 HD
BRANCH  10  15
HETATM   15  C   UNL     1     -44.087 -47.225   8.928  1.00  0.00     0.007 C 
HETATM   16  C   UNL     1     -43.494 -47.847   7.645  1.00  0.00     0.022 C 
HETATM   17  C   UNL     1     -44.208 -45.704   8.737  1.00  0.00     0.022 C 
HETATM   18  C   UNL     1     -45.486 -47.826   9.142  1.00  0.00     0.022 C 
ENDBRANCH  10  15
ENDBRANCH   1   7
BRANCH   4  19
HETATM   19  C   UNL     1     -37.422 -48.994  14.762  1.00  0.00     0.089 C 
HETATM   20  C   UNL     1     -37.385 -50.381  15.409  1.00  0.00     0.055 C 
HETATM   21  C   UNL     1     -37.684 -50.309  16.904  1.00  0.00     0.275 C 
HETATM   22  N   UNL     1     -36.823 -49.368  17.633  1.00  0.00     0.093 N 
HETATM   23  C   UNL     1     -36.866 -48.025  17.038  1.00  0.00     0.275 C 
HETATM   24  C   UNL     1     -36.553 -48.010  15.542  1.00  0.00     0.055 C 
BRANCH  22  25
HETATM   25  C   UNL     1     -35.444 -49.849  17.844  1.00  0.00     0.223 A 
HETATM   26  C   UNL     1     -35.165 -51.221  18.393  1.00  0.00     0.038 A 
HETATM   27  C   UNL     1     -34.983 -50.019  19.269  1.00  0.00     0.038 A 
ENDBRANCH  22  25
ENDBRANCH   4  19
TORSDOF 4
ENDMDL
MODEL 4
REMARK VINA RESULT:      -5.2      2.540      3.197
REMARK  4 active torsions:
REMARK  status: ('A' for Active; 'I' for Inactive)
REMARK    1  A    between atoms: C_2  and  C_5 
REMARK    2  A    between atoms: C_9  and  N_10 
REMARK       I    between atoms: N_10  and  C_11 
REMARK       I    between atoms: C_11  and  N_13 
REMARK    3  A    between atoms: N_13  and  C_14 
REMARK    4  A    between atoms: N_17  and  C_20 
ROOT
HETATM    1  N   UNL     1     -42.523 -49.660  11.989  1.00  0.00    -0.306 N 
HETATM    2  C   UNL     1     -41.807 -50.831  12.101  1.00  0.00     0.321 C 
HETATM    3  O   UNL     1     -40.605 -50.955  11.906  1.00  0.00    -0.247 OA
HETATM    4  N   UNL     1     -42.582 -51.882  12.535  1.00  0.00    -0.338 N 
HETATM    5  H   UNL     1     -43.521 -49.708  12.127  1.00  0.00     0.171 HD
HETATM    6  H   UNL     1     -43.570 -51.854  12.330  1.00  0.00     0.164 HD
ENDROOT
BRANCH   1   7
HETATM    7  C   UNL     1     -41.956 -48.383  11.756  1.00  0.00     0.067 A 
HETATM    8  C   UNL     1     -41.749 -47.823  10.514  1.00  0.00     0.120 A 
HETATM    9  N   UNL     1     -41.174 -46.616  10.313  1.00  0.00    -0.353 N 
HETATM   10  C   UNL     1     -40.800 -45.917  11.397  1.00  0.00     0.088 A 
ATOM     11  HN  UNL     1     -41.029 -46.251   9.372  1.00  0.00     0.166 HD
HETATM   12  N   UNL     1     -40.942 -46.373  12.659  1.00  0.00    -0.353 N 
HETATM   13  C   UNL     1     -41.523 -47.591  12.802  1.00  0.00     0.120 A 
ATOM     14  HN  UNL     1     -40.630 -45.829  13.464  1.00  0.00     0.166 HD
BRANCH  10  15
HETATM   15  C   UNL     1     -40.108 -44.578  11.150  1.00  0.00     0.007 C 
HETATM   16  C   UNL     1     -39.129 -44.263  12.302  1.00  0.00     0.022 C 
HETATM   17  C   UNL     1     -41.176 -43.474  11.085  1.00  0.00     0.022 C 
HETATM   18  C   UNL     1     -39.306 -44.590   9.838  1.00  0.00     0.022 C 
ENDBRANCH  10  15
ENDBRANCH   1   7
BRANCH   4  19
HETATM   19  C   UNL     1     -41.969 -53.193  12.764  1.00  0.00     0.089 C 
HETATM   20  C   UNL     1     -42.959 -54.195  13.363  1.00  0.00     0.055 C 
HETATM   21  C   UNL     1     -43.234 -53.898  14.835  1.00  0.00     0.275 C 
HETATM   22  N   UNL     1     -42.019 -53.808  15.656  1.00  0.00     0.093 N 
HETATM   23  C   UNL     1     -41.068 -52.831  15.106  1.00  0.00     0.275 C 
HETATM   24  C   UNL     1     -40.721 -53.077  13.637  1.00  0.00     0.055 C 
BRANCH  22  25
HETATM   25  C   UNL     1     -41.387 -55.109  15.947  1.00  0.00     0.223 A 
HETATM   26  C   UNL     1     -42.171 -56.249  16.537  1.00  0.00     0.038 A 
HETATM   27  C   UNL     1     -41.213 -55.482  17.397  1.00  0.00     0.038 A 
ENDBRANCH  22  25
ENDBRANCH   4  19
TORSDOF 4
ENDMDL
MODEL 5
REMARK VINA RESULT:      -5.1      5.006      8.131
REMARK  4 active torsions:
REMARK  status: ('A' for Active; 'I' for Inactive)
REMARK    1  A    between atoms: C_2  and  C_5 
REMARK    2  A    between atoms: C_9  and  N_10 
REMARK       I    between atoms: N_10  and  C_11 
REMARK       I    between atoms: C_11  and  N_13 
REMARK    3  A    between atoms: N_13  and  C_14 
REMARK    4  A    between atoms: N_17  and  C_20 
ROOT
HETATM    1  N   UNL     1     -37.829 -55.761  15.991  1.00  0.00    -0.306 N 
HETATM    2  C   UNL     1     -37.084 -55.304  17.057  1.00  0.00     0.321 C 
HETATM    3  O   UNL     1     -37.369 -54.353  17.772  1.00  0.00    -0.247 OA
HETATM    4  N   UNL     1     -35.977 -56.085  17.298  1.00  0.00    -0.338 N 
HETATM    5  H   UNL     1     -37.451 -56.524  15.452  1.00  0.00     0.171 HD
HETATM    6  H   UNL     1     -35.580 -56.591  16.520  1.00  0.00     0.164 HD
ENDROOT
BRANCH   1   7
HETATM    7  C   UNL     1     -39.112 -55.280  15.636  1.00  0.00     0.067 A 
HETATM    8  C   UNL     1     -40.278 -55.554  16.317  1.00  0.00     0.120 A 
HETATM    9  N   UNL     1     -41.498 -55.112  15.939  1.00  0.00    -0.353 N 
HETATM   10  C   UNL     1     -41.570 -54.342  14.841  1.00  0.00     0.088 A 
ATOM     11  HN  UNL     1     -42.335 -55.355  16.470  1.00  0.00     0.166 HD
HETATM   12  N   UNL     1     -40.495 -54.021  14.090  1.00  0.00    -0.353 N 
HETATM   13  C   UNL     1     -39.296 -54.494  14.513  1.00  0.00     0.120 A 
ATOM     14  HN  UNL     1     -40.581 -53.451  13.248  1.00  0.00     0.166 HD
BRANCH  10  15
HETATM   15  C   UNL     1     -42.962 -53.893  14.402  1.00  0.00     0.007 C 
HETATM   16  C   UNL     1     -43.983 -55.030  14.625  1.00  0.00     0.022 C 
HETATM   17  C   UNL     1     -42.920 -53.544  12.906  1.00  0.00     0.022 C 
HETATM   18  C   UNL     1     -43.437 -52.667  15.200  1.00  0.00     0.022 C 
ENDBRANCH  10  15
ENDBRANCH   1   7
BRANCH   4  19
HETATM   19  C   UNL     1     -35.101 -55.776  18.431  1.00  0.00     0.089 C 
HETATM   20  C   UNL     1     -34.008 -54.772  18.057  1.00  0.00     0.055 C 
HETATM   21  C   UNL     1     -32.924 -55.418  17.199  1.00  0.00     0.275 C 
HETATM   22  N   UNL     1     -32.341 -56.627  17.796  1.00  0.00     0.093 N 
HETATM   23  C   UNL     1     -33.376 -57.612  18.139  1.00  0.00     0.275 C 
HETATM   24  C   UNL     1     -34.490 -57.046  19.021  1.00  0.00     0.055 C 
BRANCH  22  25
HETATM   25  C   UNL     1     -31.418 -56.364  18.917  1.00  0.00     0.223 A 
HETATM   26  C   UNL     1     -30.361 -55.297  18.831  1.00  0.00     0.038 A 
HETATM   27  C   UNL     1     -29.972 -56.740  18.722  1.00  0.00     0.038 A 
ENDBRANCH  22  25
ENDBRANCH   4  19
TORSDOF 4
ENDMDL
MODEL 6
REMARK VINA RESULT:      -5.1     15.062     16.609
REMARK  4 active torsions:
REMARK  status: ('A' for Active; 'I' for Inactive)
REMARK    1  A    between atoms: C_2  and  C_5 
REMARK    2  A    between atoms: C_9  and  N_10 
REMARK       I    between atoms: N_10  and  C_11 
REMARK       I    between atoms: C_11  and  N_13 
REMARK    3  A    between atoms: N_13  and  C_14 
REMARK    4  A    between atoms: N_17  and  C_20 
ROOT
HETATM    1  N   UNL     1     -50.774 -48.851  -0.343  1.00  0.00    -0.306 N 
HETATM    2  C   UNL     1     -50.418 -50.107   0.098  1.00  0.00     0.321 C 
HETATM    3  O   UNL     1     -49.840 -50.358   1.147  1.00  0.00    -0.247 OA
HETATM    4  N   UNL     1     -50.846 -51.103  -0.749  1.00  0.00    -0.338 N 
HETATM    5  H   UNL     1     -51.201 -48.780  -1.254  1.00  0.00     0.171 HD
HETATM    6  H   UNL     1     -50.967 -50.871  -1.724  1.00  0.00     0.164 HD
ENDROOT
BRANCH   1   7
HETATM    7  C   UNL     1     -50.642 -47.661   0.412  1.00  0.00     0.067 A 
HETATM    8  C   UNL     1     -51.586 -47.169   1.287  1.00  0.00     0.120 A 
HETATM    9  N   UNL     1     -51.454 -46.011   1.972  1.00  0.00    -0.353 N 
HETATM   10  C   UNL     1     -50.322 -45.310   1.798  1.00  0.00     0.088 A 
ATOM     11  HN  UNL     1     -52.189 -45.682   2.598  1.00  0.00     0.166 HD
HETATM   12  N   UNL     1     -49.337 -45.690   0.958  1.00  0.00    -0.353 N 
HETATM   13  C   UNL     1     -49.523 -46.858   0.293  1.00  0.00     0.120 A 
ATOM     14  HN  UNL     1     -48.495 -45.127   0.829  1.00  0.00     0.166 HD
BRANCH  10  15
HETATM   15  C   UNL     1     -50.211 -43.981   2.543  1.00  0.00     0.007 C 
HETATM   16  C   UNL     1     -49.077 -44.050   3.590  1.00  0.00     0.022 C 
HETATM   17  C   UNL     1     -51.541 -43.707   3.264  1.00  0.00     0.022 C 
HETATM   18  C   UNL     1     -49.901 -42.820   1.584  1.00  0.00     0.022 C 
ENDBRANCH  10  15
ENDBRANCH   1   7
BRANCH   4  19
HETATM   19  C   UNL     1     -50.602 -52.506  -0.406  1.00  0.00     0.089 C 
HETATM   20  C   UNL     1     -49.286 -53.023  -0.994  1.00  0.00     0.055 C 
HETATM   21  C   UNL     1     -49.399 -53.252  -2.499  1.00  0.00     0.275 C 
HETATM   22  N   UNL     1     -50.519 -54.121  -2.881  1.00  0.00     0.093 N 
HETATM   23  C   UNL     1     -51.794 -53.625  -2.344  1.00  0.00     0.275 C 
HETATM   24  C   UNL     1     -51.771 -53.393  -0.833  1.00  0.00     0.055 C 
BRANCH  22  25
HETATM   25  C   UNL     1     -50.302 -55.552  -2.592  1.00  0.00     0.223 A 
HETATM   26  C   UNL     1     -49.001 -56.232  -2.918  1.00  0.00     0.038 A 
HETATM   27  C   UNL     1     -50.207 -56.487  -3.770  1.00  0.00     0.038 A 
ENDBRANCH  22  25
ENDBRANCH   4  19
TORSDOF 4
ENDMDL
MODEL 7
REMARK VINA RESULT:      -5.0      3.310      8.976
REMARK  4 active torsions:
REMARK  status: ('A' for Active; 'I' for Inactive)
REMARK    1  A    between atoms: C_2  and  C_5 
REMARK    2  A    between atoms: C_9  and  N_10 
REMARK       I    between atoms: N_10  and  C_11 
REMARK       I    between atoms: C_11  and  N_13 
REMARK    3  A    between atoms: N_13  and  C_14 
REMARK    4  A    between atoms: N_17  and  C_20 
ROOT
HETATM    1  N   UNL     1     -41.269 -49.855  12.204  1.00  0.00    -0.306 N 
HETATM    2  C   UNL     1     -41.826 -48.754  11.592  1.00  0.00     0.321 C 
HETATM    3  O   UNL     1     -43.018 -48.587  11.369  1.00  0.00    -0.247 OA
HETATM    4  N   UNL     1     -40.892 -47.787  11.299  1.00  0.00    -0.338 N 
HETATM    5  H   UNL     1     -40.264 -49.889  12.279  1.00  0.00     0.171 HD
HETATM    6  H   UNL     1     -39.940 -48.084  11.146  1.00  0.00     0.164 HD
ENDROOT
BRANCH   1   7
HETATM    7  C   UNL     1     -42.005 -50.913  12.792  1.00  0.00     0.067 A 
HETATM    8  C   UNL     1     -42.618 -50.863  14.025  1.00  0.00     0.120 A 
HETATM    9  N   UNL     1     -43.286 -51.897  14.582  1.00  0.00    -0.353 N 
HETATM   10  C   UNL     1     -43.371 -53.037  13.875  1.00  0.00     0.088 A 
ATOM     11  HN  UNL     1     -43.711 -51.815  15.505  1.00  0.00     0.166 HD
HETATM   12  N   UNL     1     -42.799 -53.202  12.665  1.00  0.00    -0.353 N 
HETATM   13  C   UNL     1     -42.137 -52.133  12.155  1.00  0.00     0.120 A 
ATOM     14  HN  UNL     1     -42.860 -54.086  12.159  1.00  0.00     0.166 HD
BRANCH  10  15
HETATM   15  C   UNL     1     -44.088 -54.210  14.541  1.00  0.00     0.007 C 
HETATM   16  C   UNL     1     -45.079 -54.859  13.550  1.00  0.00     0.022 C 
HETATM   17  C   UNL     1     -44.868 -53.685  15.757  1.00  0.00     0.022 C 
HETATM   18  C   UNL     1     -43.096 -55.293  14.997  1.00  0.00     0.022 C 
ENDBRANCH  10  15
ENDBRANCH   1   7
BRANCH   4  19
HETATM   19  C   UNL     1     -41.319 -46.522  10.694  1.00  0.00     0.089 C 
HETATM   20  C   UNL     1     -40.154 -45.543  10.525  1.00  0.00     0.055 C 
HETATM   21  C   UNL     1     -39.733 -44.937  11.861  1.00  0.00     0.275 C 
HETATM   22  N   UNL     1     -40.838 -44.313  12.600  1.00  0.00     0.093 N 
HETATM   23  C   UNL     1     -41.955 -45.248  12.792  1.00  0.00     0.275 C 
HETATM   24  C   UNL     1     -42.453 -45.881  11.492  1.00  0.00     0.055 C 
BRANCH  22  25
HETATM   25  C   UNL     1     -41.276 -43.015  12.052  1.00  0.00     0.223 A 
HETATM   26  C   UNL     1     -40.371 -41.813  12.056  1.00  0.00     0.038 A 
HETATM   27  C   UNL     1     -41.505 -41.893  13.032  1.00  0.00     0.038 A 
ENDBRANCH  22  25
ENDBRANCH   4  19
TORSDOF 4
ENDMDL
MODEL 8
REMARK VINA RESULT:      -5.0     15.124     18.022
REMARK  4 active torsions:
REMARK  status: ('A' for Active; 'I' for Inactive)
REMARK    1  A    between atoms: C_2  and  C_5 
REMARK    2  A    between atoms: C_9  and  N_10 
REMARK       I    between atoms: N_10  and  C_11 
REMARK       I    between atoms: C_11  and  N_13 
REMARK    3  A    between atoms: N_13  and  C_14 
REMARK    4  A    between atoms: N_17  and  C_20 
ROOT
HETATM    1  N   UNL     1     -50.613 -51.818  -1.779  1.00  0.00    -0.306 N 
HETATM    2  C   UNL     1     -50.296 -51.428  -0.496  1.00  0.00     0.321 C 
HETATM    3  O   UNL     1     -49.690 -52.104   0.326  1.00  0.00    -0.247 OA
HETATM    4  N   UNL     1     -50.678 -50.134  -0.229  1.00  0.00    -0.338 N 
HETATM    5  H   UNL     1     -51.162 -51.182  -2.337  1.00  0.00     0.171 HD
HETATM    6  H   UNL     1     -51.460 -49.759  -0.745  1.00  0.00     0.164 HD
ENDROOT
BRANCH   1   7
HETATM    7  C   UNL     1     -50.172 -53.015  -2.394  1.00  0.00     0.067 A 
HETATM    8  C   UNL     1     -48.916 -53.219  -2.921  1.00  0.00     0.120 A 
HETATM    9  N   UNL     1     -48.528 -54.359  -3.535  1.00  0.00    -0.353 N 
HETATM   10  C   UNL     1     -49.422 -55.358  -3.617  1.00  0.00     0.088 A 
ATOM     11  HN  UNL     1     -47.589 -54.456  -3.923  1.00  0.00     0.166 HD
HETATM   12  N   UNL     1     -50.683 -55.264  -3.148  1.00  0.00    -0.353 N 
HETATM   13  C   UNL     1     -51.020 -54.097  -2.544  1.00  0.00     0.120 A 
ATOM     14  HN  UNL     1     -51.349 -56.031  -3.242  1.00  0.00     0.166 HD
BRANCH  10  15
HETATM   15  C   UNL     1     -48.981 -56.619  -4.357  1.00  0.00     0.007 C 
HETATM   16  C   UNL     1     -48.518 -57.694  -3.348  1.00  0.00     0.022 C 
HETATM   17  C   UNL     1     -47.807 -56.264  -5.284  1.00  0.00     0.022 C 
HETATM   18  C   UNL     1     -50.128 -57.216  -5.190  1.00  0.00     0.022 C 
ENDBRANCH  10  15
ENDBRANCH   1   7
BRANCH   4  19
HETATM   19  C   UNL     1     -50.368 -49.537   1.073  1.00  0.00     0.089 C 
HETATM   20  C   UNL     1     -51.423 -48.514   1.503  1.00  0.00     0.055 C 
HETATM   21  C   UNL     1     -51.300 -47.217   0.708  1.00  0.00     0.275 C 
HETATM   22  N   UNL     1     -49.955 -46.628   0.744  1.00  0.00     0.093 N 
HETATM   23  C   UNL     1     -48.933 -47.591   0.311  1.00  0.00     0.275 C 
HETATM   24  C   UNL     1     -48.974 -48.912   1.079  1.00  0.00     0.055 C 
BRANCH  22  25
HETATM   25  C   UNL     1     -49.613 -45.978   2.024  1.00  0.00     0.223 A 
HETATM   26  C   UNL     1     -50.484 -44.906   2.619  1.00  0.00     0.038 A 
HETATM   27  C   UNL     1     -49.185 -44.534   1.971  1.00  0.00     0.038 A 
ENDBRANCH  22  25
ENDBRANCH   4  19
TORSDOF 4
ENDMDL
MODEL 9
REMARK VINA RESULT:      -5.0     14.979     18.603
REMARK  4 active torsions:
REMARK  status: ('A' for Active; 'I' for Inactive)
REMARK    1  A    between atoms: C_2  and  C_5 
REMARK    2  A    between atoms: C_9  and  N_10 
REMARK       I    between atoms: N_10  and  C_11 
REMARK       I    between atoms: C_11  and  N_13 
REMARK    3  A    between atoms: N_13  and  C_14 
REMARK    4  A    between atoms: N_17  and  C_20 
ROOT
HETATM    1  N   UNL     1     -50.706 -52.752  -0.793  1.00  0.00    -0.306 N 
HETATM    2  C   UNL     1     -50.496 -51.478  -1.274  1.00  0.00     0.321 C 
HETATM    3  O   UNL     1     -50.663 -51.116  -2.432  1.00  0.00    -0.247 OA
HETATM    4  N   UNL     1     -50.132 -50.595  -0.285  1.00  0.00    -0.338 N 
HETATM    5  H   UNL     1     -50.479 -52.927   0.174  1.00  0.00     0.171 HD
HETATM    6  H   UNL     1     -49.658 -50.965   0.525  1.00  0.00     0.164 HD
ENDROOT
BRANCH   1   7
HETATM    7  C   UNL     1     -51.273 -53.815  -1.536  1.00  0.00     0.067 A 
HETATM    8  C   UNL     1     -50.635 -54.507  -2.543  1.00  0.00     0.120 A 
HETATM    9  N   UNL     1     -51.208 -55.497  -3.263  1.00  0.00    -0.353 N 
HETATM   10  C   UNL     1     -52.472 -55.835  -2.961  1.00  0.00     0.088 A 
ATOM     11  HN  UNL     1     -50.697 -55.970  -4.009  1.00  0.00     0.166 HD
HETATM   12  N   UNL     1     -53.196 -55.217  -2.005  1.00  0.00    -0.353 N 
HETATM   13  C   UNL     1     -52.573 -54.229  -1.315  1.00  0.00     0.120 A 
ATOM     14  HN  UNL     1     -54.163 -55.480  -1.810  1.00  0.00     0.166 HD
BRANCH  10  15
HETATM   15  C   UNL     1     -53.119 -56.922  -3.817  1.00  0.00     0.007 C 
HETATM   16  C   UNL     1     -54.329 -56.346  -4.585  1.00  0.00     0.022 C 
HETATM   17  C   UNL     1     -53.603 -58.054  -2.896  1.00  0.00     0.022 C 
HETATM   18  C   UNL     1     -52.131 -57.491  -4.850  1.00  0.00     0.022 C 
ENDBRANCH  10  15
ENDBRANCH   1   7
BRANCH   4  19
HETATM   19  C   UNL     1     -49.923 -49.181  -0.611  1.00  0.00     0.089 C 
HETATM   20  C   UNL     1     -48.797 -48.559   0.218  1.00  0.00     0.055 C 
HETATM   21  C   UNL     1     -49.232 -48.319   1.662  1.00  0.00     0.275 C 
HETATM   22  N   UNL     1     -50.466 -47.532   1.783  1.00  0.00     0.093 N 
HETATM   23  C   UNL     1     -51.565 -48.130   1.011  1.00  0.00     0.275 C 
HETATM   24  C   UNL     1     -51.215 -48.380  -0.457  1.00  0.00     0.055 C 
BRANCH  22  25
HETATM   25  C   UNL     1     -50.297 -46.093   1.503  1.00  0.00     0.223 A 
HETATM   26  C   UNL     1     -49.410 -45.226   2.353  1.00  0.00     0.038 A 
HETATM   27  C   UNL     1     -50.899 -45.124   2.487  1.00  0.00     0.038 A 
ENDBRANCH  22  25
ENDBRANCH   4  19
TORSDOF 4
ENDMDL
