MODEL 1
REMARK VINA RESULT:      -5.9      0.000      0.000
REMARK  5 active torsions:
REMARK  status: ('A' for Active; 'I' for Inactive)
REMARK    1  A    between atoms: C_2  and  C_4 
REMARK    2  A    between atoms: C_4  and  C_5 
REMARK       I    between atoms: C_5  and  N_7 
REMARK    3  A    between atoms: C_10  and  N_13 
REMARK       I    between atoms: N_13  and  C_14 
REMARK       I    between atoms: C_14  and  N_16 
REMARK    4  A    between atoms: N_16  and  C_17 
REMARK    5  A    between atoms: C_20  and  N_24 
ROOT
HETATM    1  N   UNL     1     -41.143 -51.770  13.290  1.00  0.00    -0.338 N 
HETATM    2  C   UNL     1     -40.609 -50.708  12.597  1.00  0.00     0.321 C 
HETATM    3  O   UNL     1     -39.587 -50.783  11.930  1.00  0.00    -0.247 OA
HETATM    4  N   UNL     1     -41.323 -49.550  12.828  1.00  0.00    -0.308 N 
HETATM    5  H   UNL     1     -42.146 -51.758  13.420  1.00  0.00     0.164 HD
HETATM    6  H   UNL     1     -41.679 -49.477  13.770  1.00  0.00     0.170 HD
ENDROOT
BRANCH   1   7
HETATM    7  C   UNL     1     -40.429 -53.048  13.344  1.00  0.00     0.089 C 
HETATM    8  C   UNL     1     -41.351 -54.244  13.091  1.00  0.00     0.045 C 
HETATM    9  C   UNL     1     -42.250 -54.569  14.280  1.00  0.00     0.127 C 
HETATM   10  N   UNL     1     -41.466 -54.676  15.503  1.00  0.00    -0.352 N 
HETATM   11  C   UNL     1     -41.702 -55.734  16.371  1.00  0.00     0.220 C 
HETATM   12  C   UNL     1     -40.650 -53.505  15.822  1.00  0.00     0.127 C 
HETATM   13  O   UNL     1     -42.668 -56.491  16.240  1.00  0.00    -0.273 OA
HETATM   14  C   UNL     1     -39.689 -53.188  14.683  1.00  0.00     0.045 C 
BRANCH  11  15
HETATM   15  C   UNL     1     -40.680 -55.928  17.480  1.00  0.00     0.106 C 
BRANCH  15  16
HETATM   16  C   UNL     1     -39.521 -56.865  17.112  1.00  0.00    -0.014 C 
HETATM   17  C   UNL     1     -38.234 -56.079  16.838  1.00  0.00     0.010 C 
HETATM   18  C   UNL     1     -39.282 -57.845  18.264  1.00  0.00     0.010 C 
ENDBRANCH  15  16
ENDBRANCH  11  15
ENDBRANCH   1   7
BRANCH   4  19
HETATM   19  C   UNL     1     -40.993 -48.343  12.181  1.00  0.00     0.051 A 
HETATM   20  C   UNL     1     -40.262 -47.382  12.860  1.00  0.00     0.035 A 
HETATM   21  C   UNL     1     -39.920 -46.193  12.205  1.00  0.00     0.050 A 
HETATM   22  C   UNL     1     -40.380 -45.921  10.912  1.00  0.00     0.102 A 
HETATM   23  N   UNL     1     -41.106 -46.861  10.264  1.00  0.00    -0.350 N 
HETATM   24  C   UNL     1     -41.369 -48.043  10.883  1.00  0.00     0.119 A 
ATOM     25  HN  UNL     1     -41.452 -46.685   9.321  1.00  0.00     0.166 HD
BRANCH  22  26
HETATM   26  N   UNL     1     -40.041 -44.748  10.239  1.00  0.00    -0.376 N 
HETATM   27  C   UNL     1     -40.255 -43.499  10.973  1.00  0.00     0.150 C 
HETATM   28  C   UNL     1     -38.895 -44.713   9.336  1.00  0.00     0.150 C 
ENDBRANCH  22  26
ENDBRANCH   4  19
TORSDOF 5
ENDMDL
MODEL 2
REMARK VINA RESULT:      -5.9      2.108      2.364
REMARK  5 active torsions:
REMARK  status: ('A' for Active; 'I' for Inactive)
REMARK    1  A    between atoms: C_2  and  C_4 
REMARK    2  A    between atoms: C_4  and  C_5 
REMARK       I    between atoms: C_5  and  N_7 
REMARK    3  A    between atoms: C_10  and  N_13 
REMARK       I    between atoms: N_13  and  C_14 
REMARK       I    between atoms: C_14  and  N_16 
REMARK    4  A    between atoms: N_16  and  C_17 
REMARK    5  A    between atoms: C_20  and  N_24 
ROOT
HETATM    1  N   UNL     1     -40.618 -52.071  13.979  1.00  0.00    -0.338 N 
HETATM    2  C   UNL     1     -41.041 -51.465  12.818  1.00  0.00     0.321 C 
HETATM    3  O   UNL     1     -41.116 -52.043  11.744  1.00  0.00    -0.247 OA
HETATM    4  N   UNL     1     -41.281 -50.120  13.014  1.00  0.00    -0.308 N 
HETATM    5  H   UNL     1     -40.996 -51.699  14.840  1.00  0.00     0.164 HD
HETATM    6  H   UNL     1     -40.641 -49.689  13.666  1.00  0.00     0.170 HD
ENDROOT
BRANCH   1   7
HETATM    7  C   UNL     1     -40.122 -53.449  13.952  1.00  0.00     0.089 C 
HETATM    8  C   UNL     1     -41.249 -54.473  13.786  1.00  0.00     0.045 C 
HETATM    9  C   UNL     1     -42.066 -54.675  15.058  1.00  0.00     0.127 C 
HETATM   10  N   UNL     1     -41.193 -54.936  16.194  1.00  0.00    -0.352 N 
HETATM   11  C   UNL     1     -41.512 -55.961  17.074  1.00  0.00     0.220 C 
HETATM   12  C   UNL     1     -40.168 -53.922  16.436  1.00  0.00     0.127 C 
HETATM   13  O   UNL     1     -42.598 -56.547  17.037  1.00  0.00    -0.273 OA
HETATM   14  C   UNL     1     -39.286 -53.739  15.208  1.00  0.00     0.045 C 
BRANCH  11  15
HETATM   15  C   UNL     1     -40.432 -56.345  18.073  1.00  0.00     0.106 C 
BRANCH  15  16
HETATM   16  C   UNL     1     -39.301 -57.199  17.480  1.00  0.00    -0.014 C 
HETATM   17  C   UNL     1     -37.927 -56.585  17.770  1.00  0.00     0.010 C 
HETATM   18  C   UNL     1     -39.367 -58.605  18.083  1.00  0.00     0.010 C 
ENDBRANCH  15  16
ENDBRANCH  11  15
ENDBRANCH   1   7
BRANCH   4  19
HETATM   19  C   UNL     1     -41.776 -49.305  11.978  1.00  0.00     0.051 A 
HETATM   20  C   UNL     1     -43.016 -48.702  12.117  1.00  0.00     0.035 A 
HETATM   21  C   UNL     1     -43.495 -47.877  11.092  1.00  0.00     0.050 A 
HETATM   22  C   UNL     1     -42.785 -47.724   9.896  1.00  0.00     0.102 A 
HETATM   23  N   UNL     1     -41.582 -48.330   9.766  1.00  0.00    -0.350 N 
HETATM   24  C   UNL     1     -41.094 -49.069  10.797  1.00  0.00     0.119 A 
ATOM     25  HN  UNL     1     -41.047 -48.232   8.904  1.00  0.00     0.166 HD
BRANCH  22  26
HETATM   26  N   UNL     1     -43.239 -46.898   8.869  1.00  0.00    -0.376 N 
HETATM   27  C   UNL     1     -43.510 -47.552   7.588  1.00  0.00     0.150 C 
HETATM   28  C   UNL     1     -44.123 -45.773   9.155  1.00  0.00     0.150 C 
ENDBRANCH  22  26
ENDBRANCH   4  19
TORSDOF 5
ENDMDL
MODEL 3
REMARK VINA RESULT:      -5.7      4.291     10.143
REMARK  5 active torsions:
REMARK  status: ('A' for Active; 'I' for Inactive)
REMARK    1  A    between atoms: C_2  and  C_4 
REMARK    2  A    between atoms: C_4  and  C_5 
REMARK       I    between atoms: C_5  and  N_7 
REMARK    3  A    between atoms: C_10  and  N_13 
REMARK       I    between atoms: N_13  and  C_14 
REMARK       I    between atoms: C_14  and  N_16 
REMARK    4  A    between atoms: N_16  and  C_17 
REMARK    5  A    between atoms: C_20  and  N_24 
ROOT
HETATM    1  N   UNL     1     -39.456 -53.766  15.232  1.00  0.00    -0.338 N 
HETATM    2  C   UNL     1     -38.769 -54.890  15.632  1.00  0.00     0.321 C 
HETATM    3  O   UNL     1     -38.492 -55.813  14.881  1.00  0.00    -0.247 OA
HETATM    4  N   UNL     1     -38.519 -54.867  16.989  1.00  0.00    -0.308 N 
HETATM    5  H   UNL     1     -39.254 -52.916  15.741  1.00  0.00     0.164 HD
HETATM    6  H   UNL     1     -39.264 -54.449  17.528  1.00  0.00     0.170 HD
ENDROOT
BRANCH   1   7
HETATM    7  C   UNL     1     -39.993 -53.677  13.872  1.00  0.00     0.089 C 
HETATM    8  C   UNL     1     -39.996 -52.242  13.338  1.00  0.00     0.045 C 
HETATM    9  C   UNL     1     -41.094 -51.378  13.948  1.00  0.00     0.127 C 
HETATM   10  N   UNL     1     -42.385 -52.044  13.853  1.00  0.00    -0.352 N 
HETATM   11  C   UNL     1     -43.495 -51.322  13.434  1.00  0.00     0.220 C 
HETATM   12  C   UNL     1     -42.439 -53.381  14.446  1.00  0.00     0.127 C 
HETATM   13  O   UNL     1     -43.472 -50.095  13.307  1.00  0.00    -0.273 OA
HETATM   14  C   UNL     1     -41.398 -54.296  13.814  1.00  0.00     0.045 C 
BRANCH  11  15
HETATM   15  C   UNL     1     -44.737 -52.136  13.109  1.00  0.00     0.106 C 
BRANCH  15  16
HETATM   16  C   UNL     1     -46.035 -51.316  13.074  1.00  0.00    -0.014 C 
HETATM   17  C   UNL     1     -46.958 -51.780  11.941  1.00  0.00     0.010 C 
HETATM   18  C   UNL     1     -46.760 -51.468  14.413  1.00  0.00     0.010 C 
ENDBRANCH  15  16
ENDBRANCH  11  15
ENDBRANCH   1   7
BRANCH   4  19
HETATM   19  C   UNL     1     -37.780 -55.889  17.616  1.00  0.00     0.051 A 
HETATM   20  C   UNL     1     -36.398 -55.807  17.653  1.00  0.00     0.035 A 
HETATM   21  C   UNL     1     -35.669 -56.816  18.295  1.00  0.00     0.050 A 
HETATM   22  C   UNL     1     -36.306 -57.947  18.817  1.00  0.00     0.102 A 
HETATM   23  N   UNL     1     -37.656 -58.023  18.762  1.00  0.00    -0.350 N 
HETATM   24  C   UNL     1     -38.358 -57.002  18.202  1.00  0.00     0.119 A 
ATOM     25  HN  UNL     1     -38.142 -58.838  19.136  1.00  0.00     0.166 HD
BRANCH  22  26
HETATM   26  N   UNL     1     -35.599 -58.956  19.470  1.00  0.00    -0.376 N 
HETATM   27  C   UNL     1     -35.615 -60.272  18.828  1.00  0.00     0.150 C 
HETATM   28  C   UNL     1     -34.357 -58.658  20.174  1.00  0.00     0.150 C 
ENDBRANCH  22  26
ENDBRANCH   4  19
TORSDOF 5
ENDMDL
MODEL 4
REMARK VINA RESULT:      -5.4      2.643      4.469
REMARK  5 active torsions:
REMARK  status: ('A' for Active; 'I' for Inactive)
REMARK    1  A    between atoms: C_2  and  C_4 
REMARK    2  A    between atoms: C_4  and  C_5 
REMARK       I    between atoms: C_5  and  N_7 
REMARK    3  A    between atoms: C_10  and  N_13 
REMARK       I    between atoms: N_13  and  C_14 
REMARK       I    between atoms: C_14  and  N_16 
REMARK    4  A    between atoms: N_16  and  C_17 
REMARK    5  A    between atoms: C_20  and  N_24 
ROOT
HETATM    1  N   UNL     1     -39.219 -48.096  12.885  1.00  0.00    -0.338 N 
HETATM    2  C   UNL     1     -39.758 -46.833  12.975  1.00  0.00     0.321 C 
HETATM    3  O   UNL     1     -39.860 -46.217  14.026  1.00  0.00    -0.247 OA
HETATM    4  N   UNL     1     -40.236 -46.404  11.754  1.00  0.00    -0.308 N 
HETATM    5  H   UNL     1     -38.775 -48.330  12.007  1.00  0.00     0.164 HD
HETATM    6  H   UNL     1     -40.643 -47.144  11.199  1.00  0.00     0.170 HD
ENDROOT
BRANCH   1   7
HETATM    7  C   UNL     1     -38.831 -48.820  14.098  1.00  0.00     0.089 C 
HETATM    8  C   UNL     1     -37.745 -49.866  13.833  1.00  0.00     0.045 C 
HETATM    9  C   UNL     1     -38.272 -51.110  13.126  1.00  0.00     0.127 C 
HETATM   10  N   UNL     1     -39.442 -51.636  13.815  1.00  0.00    -0.352 N 
HETATM   11  C   UNL     1     -39.539 -53.002  14.045  1.00  0.00     0.220 C 
HETATM   12  C   UNL     1     -40.538 -50.684  13.994  1.00  0.00     0.127 C 
HETATM   13  O   UNL     1     -38.759 -53.813  13.535  1.00  0.00    -0.273 OA
HETATM   14  C   UNL     1     -40.066 -49.453  14.758  1.00  0.00     0.045 C 
BRANCH  11  15
HETATM   15  C   UNL     1     -40.644 -53.444  14.991  1.00  0.00     0.106 C 
BRANCH  15  16
HETATM   16  C   UNL     1     -41.595 -54.495  14.401  1.00  0.00    -0.014 C 
HETATM   17  C   UNL     1     -42.635 -54.948  15.433  1.00  0.00     0.010 C 
HETATM   18  C   UNL     1     -42.311 -53.899  13.186  1.00  0.00     0.010 C 
ENDBRANCH  15  16
ENDBRANCH  11  15
ENDBRANCH   1   7
BRANCH   4  19
HETATM   19  C   UNL     1     -40.784 -45.117  11.592  1.00  0.00     0.051 A 
HETATM   20  C   UNL     1     -42.136 -44.916  11.817  1.00  0.00     0.035 A 
HETATM   21  C   UNL     1     -42.671 -43.631  11.673  1.00  0.00     0.050 A 
HETATM   22  C   UNL     1     -41.883 -42.567  11.218  1.00  0.00     0.102 A 
HETATM   23  N   UNL     1     -40.567 -42.778  10.987  1.00  0.00    -0.350 N 
HETATM   24  C   UNL     1     -40.044 -44.014  11.201  1.00  0.00     0.119 A 
ATOM     25  HN  UNL     1     -39.974 -42.018  10.655  1.00  0.00     0.166 HD
BRANCH  22  26
HETATM   26  N   UNL     1     -42.395 -41.277  11.079  1.00  0.00    -0.376 N 
HETATM   27  C   UNL     1     -43.778 -41.081  11.518  1.00  0.00     0.150 C 
HETATM   28  C   UNL     1     -41.540 -40.112  11.283  1.00  0.00     0.150 C 
ENDBRANCH  22  26
ENDBRANCH   4  19
TORSDOF 5
ENDMDL
MODEL 5
REMARK VINA RESULT:      -5.3      2.331      9.760
REMARK  5 active torsions:
REMARK  status: ('A' for Active; 'I' for Inactive)
REMARK    1  A    between atoms: C_2  and  C_4 
REMARK    2  A    between atoms: C_4  and  C_5 
REMARK       I    between atoms: C_5  and  N_7 
REMARK    3  A    between atoms: C_10  and  N_13 
REMARK       I    between atoms: N_13  and  C_14 
REMARK       I    between atoms: C_14  and  N_16 
REMARK    4  A    between atoms: N_16  and  C_17 
REMARK    5  A    between atoms: C_20  and  N_24 
ROOT
HETATM    1  N   UNL     1     -41.946 -49.225  11.194  1.00  0.00    -0.338 N 
HETATM    2  C   UNL     1     -41.861 -50.175  12.185  1.00  0.00     0.321 C 
HETATM    3  O   UNL     1     -42.641 -50.244  13.124  1.00  0.00    -0.247 OA
HETATM    4  N   UNL     1     -40.743 -50.969  12.022  1.00  0.00    -0.308 N 
HETATM    5  H   UNL     1     -41.589 -49.492  10.287  1.00  0.00     0.164 HD
HETATM    6  H   UNL     1     -39.944 -50.469  11.660  1.00  0.00     0.170 HD
ENDROOT
BRANCH   1   7
HETATM    7  C   UNL     1     -42.945 -48.156  11.283  1.00  0.00     0.089 C 
HETATM    8  C   UNL     1     -42.908 -47.219  10.073  1.00  0.00     0.045 C 
HETATM    9  C   UNL     1     -41.721 -46.263  10.091  1.00  0.00     0.127 C 
HETATM   10  N   UNL     1     -41.634 -45.575  11.372  1.00  0.00    -0.352 N 
HETATM   11  C   UNL     1     -41.400 -44.207  11.394  1.00  0.00     0.220 C 
HETATM   12  C   UNL     1     -41.567 -46.449  12.543  1.00  0.00     0.127 C 
HETATM   13  O   UNL     1     -41.087 -43.575  10.381  1.00  0.00    -0.273 OA
HETATM   14  C   UNL     1     -42.774 -47.377  12.596  1.00  0.00     0.045 C 
BRANCH  11  15
HETATM   15  C   UNL     1     -41.584 -43.519  12.738  1.00  0.00     0.106 C 
BRANCH  15  16
HETATM   16  C   UNL     1     -40.292 -42.944  13.334  1.00  0.00    -0.014 C 
HETATM   17  C   UNL     1     -39.079 -43.812  12.979  1.00  0.00     0.010 C 
HETATM   18  C   UNL     1     -40.078 -41.527  12.794  1.00  0.00     0.010 C 
ENDBRANCH  15  16
ENDBRANCH  11  15
ENDBRANCH   1   7
BRANCH   4  19
HETATM   19  C   UNL     1     -40.477 -52.048  12.888  1.00  0.00     0.051 A 
HETATM   20  C   UNL     1     -39.603 -51.872  13.949  1.00  0.00     0.035 A 
HETATM   21  C   UNL     1     -39.357 -52.942  14.817  1.00  0.00     0.050 A 
HETATM   22  C   UNL     1     -39.906 -54.207  14.580  1.00  0.00     0.102 A 
HETATM   23  N   UNL     1     -40.745 -54.370  13.531  1.00  0.00    -0.350 N 
HETATM   24  C   UNL     1     -41.035 -53.305  12.738  1.00  0.00     0.119 A 
ATOM     25  HN  UNL     1     -41.157 -55.283  13.339  1.00  0.00     0.166 HD
BRANCH  22  26
HETATM   26  N   UNL     1     -39.681 -55.282  15.439  1.00  0.00    -0.376 N 
HETATM   27  C   UNL     1     -38.297 -55.486  15.868  1.00  0.00     0.150 C 
HETATM   28  C   UNL     1     -40.672 -55.648  16.446  1.00  0.00     0.150 C 
ENDBRANCH  22  26
ENDBRANCH   4  19
TORSDOF 5
ENDMDL
MODEL 6
REMARK VINA RESULT:      -5.3      2.428     10.021
REMARK  5 active torsions:
REMARK  status: ('A' for Active; 'I' for Inactive)
REMARK    1  A    between atoms: C_2  and  C_4 
REMARK    2  A    between atoms: C_4  and  C_5 
REMARK       I    between atoms: C_5  and  N_7 
REMARK    3  A    between atoms: C_10  and  N_13 
REMARK       I    between atoms: N_13  and  C_14 
REMARK       I    between atoms: C_14  and  N_16 
REMARK    4  A    between atoms: N_16  and  C_17 
REMARK    5  A    between atoms: C_20  and  N_24 
ROOT
HETATM    1  N   UNL     1     -39.640 -51.144  13.676  1.00  0.00    -0.338 N 
HETATM    2  C   UNL     1     -39.514 -52.401  14.219  1.00  0.00     0.321 C 
HETATM    3  O   UNL     1     -39.331 -53.409  13.552  1.00  0.00    -0.247 OA
HETATM    4  N   UNL     1     -39.709 -52.378  15.586  1.00  0.00    -0.308 N 
HETATM    5  H   UNL     1     -39.344 -50.373  14.261  1.00  0.00     0.164 HD
HETATM    6  H   UNL     1     -40.408 -51.711  15.881  1.00  0.00     0.170 HD
ENDROOT
BRANCH   1   7
HETATM    7  C   UNL     1     -39.665 -50.969  12.222  1.00  0.00     0.089 C 
HETATM    8  C   UNL     1     -38.924 -49.706  11.772  1.00  0.00     0.045 C 
HETATM    9  C   UNL     1     -39.702 -48.424  12.050  1.00  0.00     0.127 C 
HETATM   10  N   UNL     1     -41.061 -48.525  11.538  1.00  0.00    -0.352 N 
HETATM   11  C   UNL     1     -41.601 -47.461  10.829  1.00  0.00     0.220 C 
HETATM   12  C   UNL     1     -41.827 -49.670  12.030  1.00  0.00     0.127 C 
HETATM   13  O   UNL     1     -41.043 -46.361  10.765  1.00  0.00    -0.273 OA
HETATM   14  C   UNL     1     -41.113 -50.977  11.710  1.00  0.00     0.045 C 
BRANCH  11  15
HETATM   15  C   UNL     1     -42.910 -47.735  10.105  1.00  0.00     0.106 C 
BRANCH  15  16
HETATM   16  C   UNL     1     -43.083 -46.949   8.797  1.00  0.00    -0.014 C 
HETATM   17  C   UNL     1     -43.518 -47.866   7.648  1.00  0.00     0.010 C 
HETATM   18  C   UNL     1     -44.138 -45.859   9.004  1.00  0.00     0.010 C 
ENDBRANCH  15  16
ENDBRANCH  11  15
ENDBRANCH   1   7
BRANCH   4  19
HETATM   19  C   UNL     1     -39.575 -53.543  16.366  1.00  0.00     0.051 A 
HETATM   20  C   UNL     1     -38.375 -53.802  17.007  1.00  0.00     0.035 A 
HETATM   21  C   UNL     1     -38.254 -54.951  17.797  1.00  0.00     0.050 A 
HETATM   22  C   UNL     1     -39.291 -55.887  17.875  1.00  0.00     0.102 A 
HETATM   23  N   UNL     1     -40.453 -55.632  17.231  1.00  0.00    -0.350 N 
HETATM   24  C   UNL     1     -40.585 -54.476  16.528  1.00  0.00     0.119 A 
ATOM     25  HN  UNL     1     -41.223 -56.299  17.274  1.00  0.00     0.166 HD
BRANCH  22  26
HETATM   26  N   UNL     1     -39.194 -57.032  18.665  1.00  0.00    -0.376 N 
HETATM   27  C   UNL     1     -39.796 -56.950  19.996  1.00  0.00     0.150 C 
HETATM   28  C   UNL     1     -39.272 -58.359  18.063  1.00  0.00     0.150 C 
ENDBRANCH  22  26
ENDBRANCH   4  19
TORSDOF 5
ENDMDL
MODEL 7
REMARK VINA RESULT:      -5.2     16.582     17.418
REMARK  5 active torsions:
REMARK  status: ('A' for Active; 'I' for Inactive)
REMARK    1  A    between atoms: C_2  and  C_4 
REMARK    2  A    between atoms: C_4  and  C_5 
REMARK       I    between atoms: C_5  and  N_7 
REMARK    3  A    between atoms: C_10  and  N_13 
REMARK       I    between atoms: N_13  and  C_14 
REMARK       I    between atoms: C_14  and  N_16 
REMARK    4  A    between atoms: N_16  and  C_17 
REMARK    5  A    between atoms: C_20  and  N_24 
ROOT
HETATM    1  N   UNL     1     -45.927 -48.165  -1.669  1.00  0.00    -0.338 N 
HETATM    2  C   UNL     1     -44.905 -47.626  -2.415  1.00  0.00     0.321 C 
HETATM    3  O   UNL     1     -45.022 -47.306  -3.589  1.00  0.00    -0.247 OA
HETATM    4  N   UNL     1     -43.729 -47.580  -1.693  1.00  0.00    -0.308 N 
HETATM    5  H   UNL     1     -45.899 -47.982  -0.675  1.00  0.00     0.164 HD
HETATM    6  H   UNL     1     -43.609 -48.365  -1.070  1.00  0.00     0.170 HD
ENDROOT
BRANCH   1   7
HETATM    7  C   UNL     1     -47.210 -48.487  -2.301  1.00  0.00     0.089 C 
HETATM    8  C   UNL     1     -48.385 -47.762  -1.641  1.00  0.00     0.045 C 
HETATM    9  C   UNL     1     -48.774 -48.357  -0.292  1.00  0.00     0.127 C 
HETATM   10  N   UNL     1     -48.955 -49.798  -0.398  1.00  0.00    -0.352 N 
HETATM   11  C   UNL     1     -50.060 -50.391   0.198  1.00  0.00     0.220 C 
HETATM   12  C   UNL     1     -47.807 -50.530  -0.934  1.00  0.00     0.127 C 
HETATM   13  O   UNL     1     -50.804 -49.774   0.966  1.00  0.00    -0.273 OA
HETATM   14  C   UNL     1     -47.429 -50.008  -2.314  1.00  0.00     0.045 C 
BRANCH  11  15
HETATM   15  C   UNL     1     -50.322 -51.842  -0.174  1.00  0.00     0.106 C 
BRANCH  15  16
HETATM   16  C   UNL     1     -51.616 -52.065  -0.970  1.00  0.00    -0.014 C 
HETATM   17  C   UNL     1     -51.439 -51.674  -2.442  1.00  0.00     0.010 C 
HETATM   18  C   UNL     1     -52.013 -53.540  -0.879  1.00  0.00     0.010 C 
ENDBRANCH  15  16
ENDBRANCH  11  15
ENDBRANCH   1   7
BRANCH   4  19
HETATM   19  C   UNL     1     -42.558 -47.015  -2.235  1.00  0.00     0.051 A 
HETATM   20  C   UNL     1     -42.366 -45.645  -2.167  1.00  0.00     0.035 A 
HETATM   21  C   UNL     1     -41.191 -45.092  -2.689  1.00  0.00     0.050 A 
HETATM   22  C   UNL     1     -40.252 -45.886  -3.357  1.00  0.00     0.102 A 
HETATM   23  N   UNL     1     -40.458 -47.221  -3.431  1.00  0.00    -0.350 N 
HETATM   24  C   UNL     1     -41.567 -47.757  -2.855  1.00  0.00     0.119 A 
ATOM     25  HN  UNL     1     -39.788 -47.820  -3.913  1.00  0.00     0.166 HD
BRANCH  22  26
HETATM   26  N   UNL     1     -39.071 -45.355  -3.874  1.00  0.00    -0.376 N 
HETATM   27  C   UNL     1     -38.708 -45.786  -5.225  1.00  0.00     0.150 C 
HETATM   28  C   UNL     1     -38.673 -43.987  -3.564  1.00  0.00     0.150 C 
ENDBRANCH  22  26
ENDBRANCH   4  19
TORSDOF 5
ENDMDL
MODEL 8
REMARK VINA RESULT:      -5.1      3.180      5.853
REMARK  5 active torsions:
REMARK  status: ('A' for Active; 'I' for Inactive)
REMARK    1  A    between atoms: C_2  and  C_4 
REMARK    2  A    between atoms: C_4  and  C_5 
REMARK       I    between atoms: C_5  and  N_7 
REMARK    3  A    between atoms: C_10  and  N_13 
REMARK       I    between atoms: N_13  and  C_14 
REMARK       I    between atoms: C_14  and  N_16 
REMARK    4  A    between atoms: N_16  and  C_17 
REMARK    5  A    between atoms: C_20  and  N_24 
ROOT
HETATM    1  N   UNL     1     -40.993 -46.369  11.968  1.00  0.00    -0.338 N 
HETATM    2  C   UNL     1     -41.178 -45.137  11.384  1.00  0.00     0.321 C 
HETATM    3  O   UNL     1     -41.015 -44.924  10.192  1.00  0.00    -0.247 OA
HETATM    4  N   UNL     1     -41.481 -44.177  12.328  1.00  0.00    -0.308 N 
HETATM    5  H   UNL     1     -41.550 -46.562  12.790  1.00  0.00     0.164 HD
HETATM    6  H   UNL     1     -41.001 -44.310  13.207  1.00  0.00     0.170 HD
ENDROOT
BRANCH   1   7
HETATM    7  C   UNL     1     -40.474 -47.488  11.178  1.00  0.00     0.089 C 
HETATM    8  C   UNL     1     -41.576 -48.457  10.740  1.00  0.00     0.045 C 
HETATM    9  C   UNL     1     -42.076 -49.345  11.874  1.00  0.00     0.127 C 
HETATM   10  N   UNL     1     -40.961 -49.989  12.554  1.00  0.00    -0.352 N 
HETATM   11  C   UNL     1     -41.040 -51.341  12.859  1.00  0.00     0.220 C 
HETATM   12  C   UNL     1     -39.940 -49.079  13.071  1.00  0.00     0.127 C 
HETATM   13  O   UNL     1     -42.087 -51.984  12.738  1.00  0.00    -0.273 OA
HETATM   14  C   UNL     1     -39.366 -48.218  11.953  1.00  0.00     0.045 C 
BRANCH  11  15
HETATM   15  C   UNL     1     -39.749 -51.998  13.323  1.00  0.00     0.106 C 
BRANCH  15  16
HETATM   16  C   UNL     1     -39.937 -53.039  14.436  1.00  0.00    -0.014 C 
HETATM   17  C   UNL     1     -39.439 -54.421  13.996  1.00  0.00     0.010 C 
HETATM   18  C   UNL     1     -39.163 -52.591  15.678  1.00  0.00     0.010 C 
ENDBRANCH  15  16
ENDBRANCH  11  15
ENDBRANCH   1   7
BRANCH   4  19
HETATM   19  C   UNL     1     -41.767 -42.848  11.958  1.00  0.00     0.051 A 
HETATM   20  C   UNL     1     -43.077 -42.477  11.700  1.00  0.00     0.035 A 
HETATM   21  C   UNL     1     -43.357 -41.151  11.351  1.00  0.00     0.050 A 
HETATM   22  C   UNL     1     -42.329 -40.219  11.170  1.00  0.00     0.102 A 
HETATM   23  N   UNL     1     -41.052 -40.597  11.409  1.00  0.00    -0.350 N 
HETATM   24  C   UNL     1     -40.800 -41.868  11.819  1.00  0.00     0.119 A 
ATOM     25  HN  UNL     1     -40.287 -39.934  11.283  1.00  0.00     0.166 HD
BRANCH  22  26
HETATM   26  N   UNL     1     -42.589 -38.891  10.833  1.00  0.00    -0.376 N 
HETATM   27  C   UNL     1     -41.797 -38.338   9.733  1.00  0.00     0.150 C 
HETATM   28  C   UNL     1     -43.943 -38.355  10.913  1.00  0.00     0.150 C 
ENDBRANCH  22  26
ENDBRANCH   4  19
TORSDOF 5
ENDMDL
MODEL 9
REMARK VINA RESULT:      -5.0      2.150      9.890
REMARK  5 active torsions:
REMARK  status: ('A' for Active; 'I' for Inactive)
REMARK    1  A    between atoms: C_2  and  C_4 
REMARK    2  A    between atoms: C_4  and  C_5 
REMARK       I    between atoms: C_5  and  N_7 
REMARK    3  A    between atoms: C_10  and  N_13 
REMARK       I    between atoms: N_13  and  C_14 
REMARK       I    between atoms: C_14  and  N_16 
REMARK    4  A    between atoms: N_16  and  C_17 
REMARK    5  A    between atoms: C_20  and  N_24 
ROOT
HETATM    1  N   UNL     1     -41.558 -50.890  13.705  1.00  0.00    -0.338 N 
HETATM    2  C   UNL     1     -41.057 -51.731  14.671  1.00  0.00     0.321 C 
HETATM    3  O   UNL     1     -40.860 -51.388  15.828  1.00  0.00    -0.247 OA
HETATM    4  N   UNL     1     -40.730 -52.963  14.142  1.00  0.00    -0.308 N 
HETATM    5  H   UNL     1     -42.088 -51.329  12.963  1.00  0.00     0.164 HD
HETATM    6  H   UNL     1     -40.362 -52.913  13.203  1.00  0.00     0.170 HD
ENDROOT
BRANCH   1   7
HETATM    7  C   UNL     1     -41.787 -49.475  14.006  1.00  0.00     0.089 C 
HETATM    8  C   UNL     1     -42.947 -48.885  13.200  1.00  0.00     0.045 C 
HETATM    9  C   UNL     1     -42.593 -48.631  11.739  1.00  0.00     0.127 C 
HETATM   10  N   UNL     1     -41.356 -47.871  11.633  1.00  0.00    -0.352 N 
HETATM   11  C   UNL     1     -41.288 -46.802  10.750  1.00  0.00     0.220 C 
HETATM   12  C   UNL     1     -40.203 -48.463  12.312  1.00  0.00     0.127 C 
HETATM   13  O   UNL     1     -42.173 -46.577   9.919  1.00  0.00    -0.273 OA
HETATM   14  C   UNL     1     -40.495 -48.671  13.793  1.00  0.00     0.045 C 
BRANCH  11  15
HETATM   15  C   UNL     1     -40.070 -45.901  10.883  1.00  0.00     0.106 C 
BRANCH  15  16
HETATM   16  C   UNL     1     -40.254 -44.735  11.864  1.00  0.00    -0.014 C 
HETATM   17  C   UNL     1     -39.063 -44.618  12.822  1.00  0.00     0.010 C 
HETATM   18  C   UNL     1     -40.399 -43.432  11.073  1.00  0.00     0.010 C 
ENDBRANCH  15  16
ENDBRANCH  11  15
ENDBRANCH   1   7
BRANCH   4  19
HETATM   19  C   UNL     1     -40.247 -54.006  14.956  1.00  0.00     0.051 A 
HETATM   20  C   UNL     1     -41.144 -54.805  15.646  1.00  0.00     0.035 A 
HETATM   21  C   UNL     1     -40.660 -55.853  16.438  1.00  0.00     0.050 A 
HETATM   22  C   UNL     1     -39.286 -56.049  16.616  1.00  0.00     0.102 A 
HETATM   23  N   UNL     1     -38.419 -55.252  15.950  1.00  0.00    -0.350 N 
HETATM   24  C   UNL     1     -38.902 -54.285  15.125  1.00  0.00     0.119 A 
ATOM     25  HN  UNL     1     -37.413 -55.376  16.064  1.00  0.00     0.166 HD
BRANCH  22  26
HETATM   26  N   UNL     1     -38.784 -57.093  17.392  1.00  0.00    -0.376 N 
HETATM   27  C   UNL     1     -37.571 -56.802  18.158  1.00  0.00     0.150 C 
HETATM   28  C   UNL     1     -39.687 -58.030  18.051  1.00  0.00     0.150 C 
ENDBRANCH  22  26
ENDBRANCH   4  19
TORSDOF 5
ENDMDL
