MODEL 1
REMARK VINA RESULT:      -5.4      0.000      0.000
REMARK  6 active torsions:
REMARK  status: ('A' for Active; 'I' for Inactive)
REMARK    1  A    between atoms: C_6  and  N_7 
REMARK    2  A    between atoms: N_7  and  C_8 
REMARK    3  A    between atoms: C_8  and  C_9 
REMARK    4  A    between atoms: C_9  and  O_10 
REMARK    5  A    between atoms: O_10  and  C_11 
REMARK    6  A    between atoms: C_11  and  C_12 
ROOT
HETATM    1  N   UNL     1     -39.801 -49.665  10.882  1.00  0.00    -0.277 NA
HETATM    2  H   UNL     1     -39.948 -50.643  11.116  1.00  0.00     0.129 HD
ENDROOT
BRANCH   1   3
HETATM    3  C   UNL     1     -41.047 -49.013  10.961  1.00  0.00     0.080 A 
HETATM    4  C   UNL     1     -41.677 -48.982  12.204  1.00  0.00     0.042 A 
HETATM    5  C   UNL     1     -42.913 -48.358  12.334  1.00  0.00     0.005 A 
HETATM    6  C   UNL     1     -43.499 -47.785  11.215  1.00  0.00     0.024 A 
HETATM    7  C   UNL     1     -42.825 -47.858  10.004  1.00  0.00     0.006 A 
HETATM    8  C   UNL     1     -43.434 -47.285   8.758  1.00  0.00     0.068 C 
HETATM    9  N   UNL     1     -41.620 -48.469   9.869  1.00  0.00    -0.351 N 
ATOM     10  HN  UNL     1     -41.158 -48.516   8.960  1.00  0.00     0.167 HD
ENDBRANCH   1   3
BRANCH   1  11
HETATM   11  C   UNL     1     -38.744 -49.063  11.694  1.00  0.00     0.120 C 
BRANCH  11  12
HETATM   12  C   UNL     1     -37.485 -49.939  11.646  1.00  0.00     0.182 C 
BRANCH  12  13
HETATM   13  O   UNL     1     -37.811 -51.263  12.065  1.00  0.00    -0.387 OA
BRANCH  13  14
HETATM   14  C   UNL     1     -38.046 -51.340  13.471  1.00  0.00     0.199 C 
BRANCH  14  15
HETATM   15  C   UNL     1     -39.340 -52.111  13.712  1.00  0.00     0.145 C 
HETATM   16  C   UNL     1     -39.116 -53.503  14.286  1.00  0.00     0.036 C 
HETATM   17  C   UNL     1     -40.250 -54.329  13.715  1.00  0.00     0.029 C 
HETATM   18  C   UNL     1     -40.978 -53.391  12.772  1.00  0.00     0.168 C 
HETATM   19  O   UNL     1     -40.068 -52.320  12.495  1.00  0.00    -0.384 OA
ENDBRANCH  14  15
ENDBRANCH  13  14
ENDBRANCH  12  13
ENDBRANCH  11  12
ENDBRANCH   1  11
TORSDOF 6
ENDMDL
MODEL 2
REMARK VINA RESULT:      -5.1      3.578      4.973
REMARK  6 active torsions:
REMARK  status: ('A' for Active; 'I' for Inactive)
REMARK    1  A    between atoms: C_6  and  N_7 
REMARK    2  A    between atoms: N_7  and  C_8 
REMARK    3  A    between atoms: C_8  and  C_9 
REMARK    4  A    between atoms: C_9  and  O_10 
REMARK    5  A    between atoms: O_10  and  C_11 
REMARK    6  A    between atoms: C_11  and  C_12 
ROOT
HETATM    1  N   UNL     1     -43.410 -53.847  12.619  1.00  0.00    -0.277 NA
HETATM    2  H   UNL     1     -43.753 -54.795  12.494  1.00  0.00     0.129 HD
ENDROOT
BRANCH   1   3
HETATM    3  C   UNL     1     -44.514 -53.028  12.925  1.00  0.00     0.080 A 
HETATM    4  C   UNL     1     -44.652 -52.605  14.246  1.00  0.00     0.042 A 
HETATM    5  C   UNL     1     -45.730 -51.802  14.602  1.00  0.00     0.005 A 
HETATM    6  C   UNL     1     -46.654 -51.444  13.632  1.00  0.00     0.024 A 
HETATM    7  C   UNL     1     -46.465 -51.906  12.336  1.00  0.00     0.006 A 
HETATM    8  C   UNL     1     -47.455 -51.576  11.258  1.00  0.00     0.068 C 
HETATM    9  N   UNL     1     -45.417 -52.694  11.982  1.00  0.00    -0.351 N 
ATOM     10  HN  UNL     1     -45.316 -53.026  11.022  1.00  0.00     0.167 HD
ENDBRANCH   1   3
BRANCH   1  11
HETATM   11  C   UNL     1     -42.317 -53.787  13.589  1.00  0.00     0.120 C 
BRANCH  11  12
HETATM   12  C   UNL     1     -40.987 -54.124  12.900  1.00  0.00     0.182 C 
BRANCH  12  13
HETATM   13  O   UNL     1     -40.495 -52.966  12.226  1.00  0.00    -0.387 OA
BRANCH  13  14
HETATM   14  C   UNL     1     -40.738 -51.769  12.965  1.00  0.00     0.199 C 
BRANCH  14  15
HETATM   15  C   UNL     1     -39.403 -51.092  13.258  1.00  0.00     0.145 C 
HETATM   16  C   UNL     1     -39.367 -49.626  12.850  1.00  0.00     0.036 C 
HETATM   17  C   UNL     1     -37.927 -49.386  12.445  1.00  0.00     0.029 C 
HETATM   18  C   UNL     1     -37.265 -50.747  12.541  1.00  0.00     0.168 C 
HETATM   19  O   UNL     1     -38.327 -51.707  12.538  1.00  0.00    -0.384 OA
ENDBRANCH  14  15
ENDBRANCH  13  14
ENDBRANCH  12  13
ENDBRANCH  11  12
ENDBRANCH   1  11
TORSDOF 6
ENDMDL
MODEL 3
REMARK VINA RESULT:      -5.1      2.654      6.021
REMARK  6 active torsions:
REMARK  status: ('A' for Active; 'I' for Inactive)
REMARK    1  A    between atoms: C_6  and  N_7 
REMARK    2  A    between atoms: N_7  and  C_8 
REMARK    3  A    between atoms: C_8  and  C_9 
REMARK    4  A    between atoms: C_9  and  O_10 
REMARK    5  A    between atoms: O_10  and  C_11 
REMARK    6  A    between atoms: C_11  and  C_12 
ROOT
HETATM    1  N   UNL     1     -40.653 -51.226  11.347  1.00  0.00    -0.277 NA
HETATM    2  H   UNL     1     -39.951 -51.723  10.805  1.00  0.00     0.129 HD
ENDROOT
BRANCH   1   3
HETATM    3  C   UNL     1     -41.428 -52.185  12.027  1.00  0.00     0.080 A 
HETATM    4  C   UNL     1     -40.748 -53.177  12.732  1.00  0.00     0.042 A 
HETATM    5  C   UNL     1     -41.467 -54.152  13.414  1.00  0.00     0.005 A 
HETATM    6  C   UNL     1     -42.853 -54.122  13.370  1.00  0.00     0.024 A 
HETATM    7  C   UNL     1     -43.470 -53.114  12.642  1.00  0.00     0.006 A 
HETATM    8  C   UNL     1     -44.966 -53.059  12.534  1.00  0.00     0.068 C 
HETATM    9  N   UNL     1     -42.775 -52.160  11.970  1.00  0.00    -0.351 N 
ATOM     10  HN  UNL     1     -43.261 -51.441  11.435  1.00  0.00     0.167 HD
ENDBRANCH   1   3
BRANCH   1  11
HETATM   11  C   UNL     1     -40.057 -50.203  12.204  1.00  0.00     0.120 C 
BRANCH  11  12
HETATM   12  C   UNL     1     -40.143 -48.832  11.520  1.00  0.00     0.182 C 
BRANCH  12  13
HETATM   13  O   UNL     1     -41.316 -48.779  10.708  1.00  0.00    -0.387 OA
BRANCH  13  14
HETATM   14  C   UNL     1     -42.249 -47.804  11.174  1.00  0.00     0.199 C 
BRANCH  14  15
HETATM   15  C   UNL     1     -43.054 -47.288   9.986  1.00  0.00     0.145 C 
HETATM   16  C   UNL     1     -44.551 -47.522  10.123  1.00  0.00     0.036 C 
HETATM   17  C   UNL     1     -45.029 -47.731   8.701  1.00  0.00     0.029 C 
HETATM   18  C   UNL     1     -43.767 -47.713   7.861  1.00  0.00     0.168 C 
HETATM   19  O   UNL     1     -42.683 -47.945   8.767  1.00  0.00    -0.384 OA
ENDBRANCH  14  15
ENDBRANCH  13  14
ENDBRANCH  12  13
ENDBRANCH  11  12
ENDBRANCH   1  11
TORSDOF 6
ENDMDL
MODEL 4
REMARK VINA RESULT:      -5.1      3.665      4.515
REMARK  6 active torsions:
REMARK  status: ('A' for Active; 'I' for Inactive)
REMARK    1  A    between atoms: C_6  and  N_7 
REMARK    2  A    between atoms: N_7  and  C_8 
REMARK    3  A    between atoms: C_8  and  C_9 
REMARK    4  A    between atoms: C_9  and  O_10 
REMARK    5  A    between atoms: O_10  and  C_11 
REMARK    6  A    between atoms: C_11  and  C_12 
ROOT
HETATM    1  N   UNL     1     -42.823 -50.430  13.982  1.00  0.00    -0.277 NA
HETATM    2  H   UNL     1     -42.648 -49.754  14.720  1.00  0.00     0.129 HD
ENDROOT
BRANCH   1   3
HETATM    3  C   UNL     1     -44.181 -50.798  14.048  1.00  0.00     0.080 A 
HETATM    4  C   UNL     1     -44.769 -50.854  15.310  1.00  0.00     0.042 A 
HETATM    5  C   UNL     1     -46.105 -51.220  15.431  1.00  0.00     0.005 A 
HETATM    6  C   UNL     1     -46.824 -51.531  14.286  1.00  0.00     0.024 A 
HETATM    7  C   UNL     1     -46.178 -51.465  13.060  1.00  0.00     0.006 A 
HETATM    8  C   UNL     1     -46.903 -51.826  11.796  1.00  0.00     0.068 C 
HETATM    9  N   UNL     1     -44.873 -51.112  12.935  1.00  0.00    -0.351 N 
ATOM     10  HN  UNL     1     -44.426 -51.086  12.018  1.00  0.00     0.167 HD
ENDBRANCH   1   3
BRANCH   1  11
HETATM   11  C   UNL     1     -42.386 -49.936  12.676  1.00  0.00     0.120 C 
BRANCH  11  12
HETATM   12  C   UNL     1     -41.346 -50.893  12.077  1.00  0.00     0.182 C 
BRANCH  12  13
HETATM   13  O   UNL     1     -40.907 -51.807  13.081  1.00  0.00    -0.387 OA
BRANCH  13  14
HETATM   14  C   UNL     1     -40.909 -53.158  12.617  1.00  0.00     0.199 C 
BRANCH  14  15
HETATM   15  C   UNL     1     -41.706 -54.013  13.597  1.00  0.00     0.145 C 
HETATM   16  C   UNL     1     -43.138 -54.268  13.150  1.00  0.00     0.036 C 
HETATM   17  C   UNL     1     -43.924 -54.356  14.442  1.00  0.00     0.029 C 
HETATM   18  C   UNL     1     -42.917 -54.037  15.530  1.00  0.00     0.168 C 
HETATM   19  O   UNL     1     -41.821 -53.383  14.880  1.00  0.00    -0.384 OA
ENDBRANCH  14  15
ENDBRANCH  13  14
ENDBRANCH  12  13
ENDBRANCH  11  12
ENDBRANCH   1  11
TORSDOF 6
ENDMDL
MODEL 5
REMARK VINA RESULT:      -5.1      2.909      3.960
REMARK  6 active torsions:
REMARK  status: ('A' for Active; 'I' for Inactive)
REMARK    1  A    between atoms: C_6  and  N_7 
REMARK    2  A    between atoms: N_7  and  C_8 
REMARK    3  A    between atoms: C_8  and  C_9 
REMARK    4  A    between atoms: C_9  and  O_10 
REMARK    5  A    between atoms: O_10  and  C_11 
REMARK    6  A    between atoms: C_11  and  C_12 
ROOT
HETATM    1  N   UNL     1     -40.484 -50.055  10.657  1.00  0.00    -0.277 NA
HETATM    2  H   UNL     1     -40.805 -50.629   9.881  1.00  0.00     0.129 HD
ENDROOT
BRANCH   1   3
HETATM    3  C   UNL     1     -41.298 -48.907  10.708  1.00  0.00     0.080 A 
HETATM    4  C   UNL     1     -41.389 -48.240  11.928  1.00  0.00     0.042 A 
HETATM    5  C   UNL     1     -42.186 -47.106  12.035  1.00  0.00     0.005 A 
HETATM    6  C   UNL     1     -42.884 -46.666  10.920  1.00  0.00     0.024 A 
HETATM    7  C   UNL     1     -42.759 -47.380   9.736  1.00  0.00     0.006 A 
HETATM    8  C   UNL     1     -43.522 -46.965   8.512  1.00  0.00     0.068 C 
HETATM    9  N   UNL     1     -41.986 -48.491   9.626  1.00  0.00    -0.351 N 
ATOM     10  HN  UNL     1     -41.926 -48.999   8.743  1.00  0.00     0.167 HD
ENDBRANCH   1   3
BRANCH   1  11
HETATM   11  C   UNL     1     -40.418 -50.814  11.905  1.00  0.00     0.120 C 
BRANCH  11  12
HETATM   12  C   UNL     1     -41.285 -52.076  11.797  1.00  0.00     0.182 C 
BRANCH  12  13
HETATM   13  O   UNL     1     -42.572 -51.816  12.357  1.00  0.00    -0.387 OA
BRANCH  13  14
HETATM   14  C   UNL     1     -43.254 -53.018  12.718  1.00  0.00     0.199 C 
BRANCH  14  15
HETATM   15  C   UNL     1     -44.745 -52.720  12.838  1.00  0.00     0.145 C 
HETATM   16  C   UNL     1     -45.042 -51.308  13.324  1.00  0.00     0.036 C 
HETATM   17  C   UNL     1     -46.325 -51.448  14.118  1.00  0.00     0.029 C 
HETATM   18  C   UNL     1     -46.615 -52.936  14.127  1.00  0.00     0.168 C 
HETATM   19  O   UNL     1     -45.384 -53.584  13.787  1.00  0.00    -0.384 OA
ENDBRANCH  14  15
ENDBRANCH  13  14
ENDBRANCH  12  13
ENDBRANCH  11  12
ENDBRANCH   1  11
TORSDOF 6
ENDMDL
MODEL 6
REMARK VINA RESULT:      -5.0      3.401      5.288
REMARK  6 active torsions:
REMARK  status: ('A' for Active; 'I' for Inactive)
REMARK    1  A    between atoms: C_6  and  N_7 
REMARK    2  A    between atoms: N_7  and  C_8 
REMARK    3  A    between atoms: C_8  and  C_9 
REMARK    4  A    between atoms: C_9  and  O_10 
REMARK    5  A    between atoms: O_10  and  C_11 
REMARK    6  A    between atoms: C_11  and  C_12 
ROOT
HETATM    1  N   UNL     1     -43.087 -52.789  11.782  1.00  0.00    -0.277 NA
HETATM    2  H   UNL     1     -42.954 -53.585  11.165  1.00  0.00     0.129 HD
ENDROOT
BRANCH   1   3
HETATM    3  C   UNL     1     -44.146 -53.096  12.658  1.00  0.00     0.080 A 
HETATM    4  C   UNL     1     -44.387 -54.443  12.925  1.00  0.00     0.042 A 
HETATM    5  C   UNL     1     -45.427 -54.800  13.776  1.00  0.00     0.005 A 
HETATM    6  C   UNL     1     -46.211 -53.804  14.338  1.00  0.00     0.024 A 
HETATM    7  C   UNL     1     -45.925 -52.482  14.025  1.00  0.00     0.006 A 
HETATM    8  C   UNL     1     -46.767 -51.370  14.579  1.00  0.00     0.068 C 
HETATM    9  N   UNL     1     -44.915 -52.125  13.191  1.00  0.00    -0.351 N 
ATOM     10  HN  UNL     1     -44.741 -51.144  12.973  1.00  0.00     0.167 HD
ENDBRANCH   1   3
BRANCH   1  11
HETATM   11  C   UNL     1     -41.843 -52.395  12.442  1.00  0.00     0.120 C 
BRANCH  11  12
HETATM   12  C   UNL     1     -40.938 -53.621  12.626  1.00  0.00     0.182 C 
BRANCH  12  13
HETATM   13  O   UNL     1     -39.682 -53.207  13.162  1.00  0.00    -0.387 OA
BRANCH  13  14
HETATM   14  C   UNL     1     -39.790 -52.001  13.917  1.00  0.00     0.199 C 
BRANCH  14  15
HETATM   15  C   UNL     1     -38.663 -51.060  13.506  1.00  0.00     0.145 C 
HETATM   16  C   UNL     1     -39.079 -49.596  13.471  1.00  0.00     0.036 C 
HETATM   17  C   UNL     1     -38.241 -48.995  12.362  1.00  0.00     0.029 C 
HETATM   18  C   UNL     1     -37.489 -50.168  11.765  1.00  0.00     0.168 C 
HETATM   19  O   UNL     1     -38.189 -51.345  12.183  1.00  0.00    -0.384 OA
ENDBRANCH  14  15
ENDBRANCH  13  14
ENDBRANCH  12  13
ENDBRANCH  11  12
ENDBRANCH   1  11
TORSDOF 6
ENDMDL
MODEL 7
REMARK VINA RESULT:      -4.9      1.375      2.842
REMARK  6 active torsions:
REMARK  status: ('A' for Active; 'I' for Inactive)
REMARK    1  A    between atoms: C_6  and  N_7 
REMARK    2  A    between atoms: N_7  and  C_8 
REMARK    3  A    between atoms: C_8  and  C_9 
REMARK    4  A    between atoms: C_9  and  O_10 
REMARK    5  A    between atoms: O_10  and  C_11 
REMARK    6  A    between atoms: C_11  and  C_12 
ROOT
HETATM    1  N   UNL     1     -40.888 -50.287  11.389  1.00  0.00    -0.277 NA
HETATM    2  H   UNL     1     -40.797 -50.799  10.516  1.00  0.00     0.129 HD
ENDROOT
BRANCH   1   3
HETATM    3  C   UNL     1     -41.103 -48.932  11.072  1.00  0.00     0.080 A 
HETATM    4  C   UNL     1     -40.157 -48.011  11.518  1.00  0.00     0.042 A 
HETATM    5  C   UNL     1     -40.327 -46.660  11.239  1.00  0.00     0.005 A 
HETATM    6  C   UNL     1     -41.445 -46.255  10.525  1.00  0.00     0.024 A 
HETATM    7  C   UNL     1     -42.356 -47.220  10.117  1.00  0.00     0.006 A 
HETATM    8  C   UNL     1     -43.599 -46.829   9.374  1.00  0.00     0.068 C 
HETATM    9  N   UNL     1     -42.198 -48.541  10.390  1.00  0.00    -0.351 N 
ATOM     10  HN  UNL     1     -42.894 -49.222  10.086  1.00  0.00     0.167 HD
ENDBRANCH   1   3
BRANCH   1  11
HETATM   11  C   UNL     1     -41.900 -50.878  12.265  1.00  0.00     0.120 C 
BRANCH  11  12
HETATM   12  C   UNL     1     -41.834 -52.409  12.182  1.00  0.00     0.182 C 
BRANCH  12  13
HETATM   13  O   UNL     1     -40.472 -52.830  12.256  1.00  0.00    -0.387 OA
BRANCH  13  14
HETATM   14  C   UNL     1     -40.024 -52.967  13.605  1.00  0.00     0.199 C 
BRANCH  14  15
HETATM   15  C   UNL     1     -38.817 -52.059  13.817  1.00  0.00     0.145 C 
HETATM   16  C   UNL     1     -39.100 -50.884  14.741  1.00  0.00     0.036 C 
HETATM   17  C   UNL     1     -38.214 -49.773  14.216  1.00  0.00     0.029 C 
HETATM   18  C   UNL     1     -37.571 -50.347  12.969  1.00  0.00     0.168 C 
HETATM   19  O   UNL     1     -38.373 -51.470  12.588  1.00  0.00    -0.384 OA
ENDBRANCH  14  15
ENDBRANCH  13  14
ENDBRANCH  12  13
ENDBRANCH  11  12
ENDBRANCH   1  11
TORSDOF 6
ENDMDL
MODEL 8
REMARK VINA RESULT:      -4.8      3.884      5.266
REMARK  6 active torsions:
REMARK  status: ('A' for Active; 'I' for Inactive)
REMARK    1  A    between atoms: C_6  and  N_7 
REMARK    2  A    between atoms: N_7  and  C_8 
REMARK    3  A    between atoms: C_8  and  C_9 
REMARK    4  A    between atoms: C_9  and  O_10 
REMARK    5  A    between atoms: O_10  and  C_11 
REMARK    6  A    between atoms: C_11  and  C_12 
ROOT
HETATM    1  N   UNL     1     -43.089 -52.640  11.687  1.00  0.00    -0.277 NA
HETATM    2  H   UNL     1     -42.858 -53.456  11.127  1.00  0.00     0.129 HD
ENDROOT
BRANCH   1   3
HETATM    3  C   UNL     1     -44.103 -53.012  12.591  1.00  0.00     0.080 A 
HETATM    4  C   UNL     1     -44.263 -54.372  12.851  1.00  0.00     0.042 A 
HETATM    5  C   UNL     1     -45.256 -54.792  13.728  1.00  0.00     0.005 A 
HETATM    6  C   UNL     1     -46.075 -53.845  14.323  1.00  0.00     0.024 A 
HETATM    7  C   UNL     1     -45.870 -52.507  14.016  1.00  0.00     0.006 A 
HETATM    8  C   UNL     1     -46.753 -51.446  14.606  1.00  0.00     0.068 C 
HETATM    9  N   UNL     1     -44.906 -52.089  13.157  1.00  0.00    -0.351 N 
ATOM     10  HN  UNL     1     -44.791 -51.097  12.944  1.00  0.00     0.167 HD
ENDBRANCH   1   3
BRANCH   1  11
HETATM   11  C   UNL     1     -41.902 -52.053  12.309  1.00  0.00     0.120 C 
BRANCH  11  12
HETATM   12  C   UNL     1     -40.794 -53.109  12.422  1.00  0.00     0.182 C 
BRANCH  12  13
HETATM   13  O   UNL     1     -40.276 -53.113  13.752  1.00  0.00    -0.387 OA
BRANCH  13  14
HETATM   14  C   UNL     1     -41.109 -52.385  14.655  1.00  0.00     0.199 C 
BRANCH  14  15
HETATM   15  C   UNL     1     -41.545 -53.317  15.782  1.00  0.00     0.145 C 
HETATM   16  C   UNL     1     -41.379 -54.791  15.444  1.00  0.00     0.036 C 
HETATM   17  C   UNL     1     -42.508 -55.475  16.188  1.00  0.00     0.029 C 
HETATM   18  C   UNL     1     -43.306 -54.344  16.807  1.00  0.00     0.168 C 
HETATM   19  O   UNL     1     -42.936 -53.159  16.093  1.00  0.00    -0.384 OA
ENDBRANCH  14  15
ENDBRANCH  13  14
ENDBRANCH  12  13
ENDBRANCH  11  12
ENDBRANCH   1  11
TORSDOF 6
ENDMDL
MODEL 9
REMARK VINA RESULT:      -4.8      3.378      5.951
REMARK  6 active torsions:
REMARK  status: ('A' for Active; 'I' for Inactive)
REMARK    1  A    between atoms: C_6  and  N_7 
REMARK    2  A    between atoms: N_7  and  C_8 
REMARK    3  A    between atoms: C_8  and  C_9 
REMARK    4  A    between atoms: C_9  and  O_10 
REMARK    5  A    between atoms: O_10  and  C_11 
REMARK    6  A    between atoms: C_11  and  C_12 
ROOT
HETATM    1  N   UNL     1     -42.351 -52.688  11.663  1.00  0.00    -0.277 NA
HETATM    2  H   UNL     1     -42.323 -53.365  10.906  1.00  0.00     0.129 HD
ENDROOT
BRANCH   1   3
HETATM    3  C   UNL     1     -43.470 -52.987  12.465  1.00  0.00     0.080 A 
HETATM    4  C   UNL     1     -43.527 -54.256  13.038  1.00  0.00     0.042 A 
HETATM    5  C   UNL     1     -44.615 -54.604  13.831  1.00  0.00     0.005 A 
HETATM    6  C   UNL     1     -45.629 -53.678  14.029  1.00  0.00     0.024 A 
HETATM    7  C   UNL     1     -45.516 -52.435  13.423  1.00  0.00     0.006 A 
HETATM    8  C   UNL     1     -46.603 -51.411  13.577  1.00  0.00     0.068 C 
HETATM    9  N   UNL     1     -44.459 -52.089  12.643  1.00  0.00    -0.351 N 
ATOM     10  HN  UNL     1     -44.415 -51.170  12.203  1.00  0.00     0.167 HD
ENDBRANCH   1   3
BRANCH   1  11
HETATM   11  C   UNL     1     -41.081 -52.625  12.385  1.00  0.00     0.120 C 
BRANCH  11  12
HETATM   12  C   UNL     1     -40.677 -51.161  12.606  1.00  0.00     0.182 C 
BRANCH  12  13
HETATM   13  O   UNL     1     -41.283 -50.345  11.603  1.00  0.00    -0.387 OA
BRANCH  13  14
HETATM   14  C   UNL     1     -40.405 -49.316  11.145  1.00  0.00     0.199 C 
BRANCH  14  15
HETATM   15  C   UNL     1     -41.110 -47.971  11.285  1.00  0.00     0.145 C 
HETATM   16  C   UNL     1     -42.325 -47.827  10.379  1.00  0.00     0.036 C 
HETATM   17  C   UNL     1     -42.366 -46.352  10.039  1.00  0.00     0.029 C 
HETATM   18  C   UNL     1     -41.119 -45.772  10.677  1.00  0.00     0.168 C 
HETATM   19  O   UNL     1     -40.249 -46.881  10.931  1.00  0.00    -0.384 OA
ENDBRANCH  14  15
ENDBRANCH  13  14
ENDBRANCH  12  13
ENDBRANCH  11  12
ENDBRANCH   1  11
TORSDOF 6
ENDMDL
