MODEL 1
REMARK VINA RESULT:      -6.0      0.000      0.000
REMARK  3 active torsions:
REMARK  status: ('A' for Active; 'I' for Inactive)
REMARK       I    between atoms: C_2  and  N_3 
REMARK       I    between atoms: C_2  and  N_10 
REMARK    1  A    between atoms: N_3  and  C_4 
REMARK    2  A    between atoms: N_10  and  C_11 
REMARK    3  A    between atoms: C_16  and  C_18 
ROOT
HETATM    1  O   UNL     1     -39.813 -51.518  12.219  1.00  0.00    -0.247 OA
HETATM    2  C   UNL     1     -41.035 -51.446  12.110  1.00  0.00     0.322 C 
HETATM    3  N   UNL     1     -41.667 -50.347  11.621  1.00  0.00    -0.337 N 
HETATM    4  N   UNL     1     -41.776 -52.529  12.444  1.00  0.00    -0.288 N 
HETATM    5  H   UNL     1     -42.678 -50.293  11.718  1.00  0.00     0.164 HD
HETATM    6  H   UNL     1     -41.242 -53.345  12.703  1.00  0.00     0.172 HD
ENDROOT
BRANCH   4   7
HETATM    7  C   UNL     1     -43.129 -52.590  12.604  1.00  0.00     0.169 A 
HETATM    8  N   UNL     1     -44.045 -53.139  11.844  1.00  0.00    -0.279 N 
HETATM    9  N   UNL     1     -45.321 -52.849  12.313  1.00  0.00    -0.296 N 
ATOM     10  HN  UNL     1     -43.848 -53.703  11.018  1.00  0.00     0.189 HD
HETATM   11  C   UNL     1     -45.291 -52.139  13.422  1.00  0.00     0.074 A 
ATOM     12  HN  UNL     1     -46.179 -53.151  11.852  1.00  0.00     0.187 HD
HETATM   13  S   UNL     1     -43.711 -51.764  13.977  1.00  0.00    -0.037 SA
BRANCH  11  14
HETATM   14  C   UNL     1     -46.544 -51.644  14.145  1.00  0.00     0.044 A 
HETATM   15  C   UNL     1     -46.450 -51.226  15.598  1.00  0.00     0.012 A 
HETATM   16  C   UNL     1     -47.111 -52.515  15.248  1.00  0.00     0.012 A 
ENDBRANCH  11  14
ENDBRANCH   4   7
BRANCH   3  17
HETATM   17  C   UNL     1     -40.938 -49.106  11.346  1.00  0.00     0.095 C 
HETATM   18  C   UNL     1     -40.645 -48.343  12.645  1.00  0.00     0.027 C 
HETATM   19  C   UNL     1     -41.915 -47.863  13.347  1.00  0.00     0.012 C 
HETATM   20  C   UNL     1     -42.704 -46.863  12.512  1.00  0.00     0.074 C 
HETATM   21  S   UNL     1     -43.253 -47.566  10.928  1.00  0.00    -0.167 SA
HETATM   22  C   UNL     1     -41.662 -48.221  10.324  1.00  0.00     0.099 C 
ENDBRANCH   3  17
TORSDOF 3
ENDMDL
MODEL 2
REMARK VINA RESULT:      -5.9      3.520      6.070
REMARK  3 active torsions:
REMARK  status: ('A' for Active; 'I' for Inactive)
REMARK       I    between atoms: C_2  and  N_3 
REMARK       I    between atoms: C_2  and  N_10 
REMARK    1  A    between atoms: N_3  and  C_4 
REMARK    2  A    between atoms: N_10  and  C_11 
REMARK    3  A    between atoms: C_16  and  C_18 
ROOT
HETATM    1  O   UNL     1     -37.022 -51.804  12.562  1.00  0.00    -0.247 OA
HETATM    2  C   UNL     1     -38.111 -51.236  12.533  1.00  0.00     0.322 C 
HETATM    3  N   UNL     1     -39.119 -51.533  13.395  1.00  0.00    -0.337 N 
HETATM    4  N   UNL     1     -38.293 -50.236  11.637  1.00  0.00    -0.288 N 
HETATM    5  H   UNL     1     -40.041 -51.146  13.204  1.00  0.00     0.164 HD
HETATM    6  H   UNL     1     -37.475 -49.998  11.097  1.00  0.00     0.172 HD
ENDROOT
BRANCH   4   7
HETATM    7  C   UNL     1     -39.467 -49.635  11.294  1.00  0.00     0.169 A 
HETATM    8  N   UNL     1     -40.352 -49.968  10.386  1.00  0.00    -0.279 N 
HETATM    9  N   UNL     1     -41.340 -48.999  10.273  1.00  0.00    -0.296 N 
ATOM     10  HN  UNL     1     -40.318 -50.826   9.834  1.00  0.00     0.189 HD
HETATM   11  C   UNL     1     -41.169 -48.015  11.132  1.00  0.00     0.074 A 
ATOM     12  HN  UNL     1     -42.109 -49.043   9.603  1.00  0.00     0.187 HD
HETATM   13  S   UNL     1     -39.790 -48.190  12.139  1.00  0.00    -0.037 SA
BRANCH  11  14
HETATM   14  C   UNL     1     -42.082 -46.791  11.214  1.00  0.00     0.044 A 
HETATM   15  C   UNL     1     -42.860 -46.358   9.988  1.00  0.00     0.012 A 
HETATM   16  C   UNL     1     -41.681 -45.559  10.427  1.00  0.00     0.012 A 
ENDBRANCH  11  14
ENDBRANCH   4   7
BRANCH   3  17
HETATM   17  C   UNL     1     -39.030 -52.672  14.312  1.00  0.00     0.095 C 
HETATM   18  C   UNL     1     -39.648 -53.930  13.685  1.00  0.00     0.027 C 
HETATM   19  C   UNL     1     -41.150 -53.788  13.436  1.00  0.00     0.012 C 
HETATM   20  C   UNL     1     -41.941 -53.601  14.723  1.00  0.00     0.074 C 
HETATM   21  S   UNL     1     -41.449 -52.101  15.626  1.00  0.00    -0.167 SA
HETATM   22  C   UNL     1     -39.646 -52.365  15.682  1.00  0.00     0.099 C 
ENDBRANCH   3  17
TORSDOF 3
ENDMDL
MODEL 3
REMARK VINA RESULT:      -5.9      1.613      1.869
REMARK  3 active torsions:
REMARK  status: ('A' for Active; 'I' for Inactive)
REMARK       I    between atoms: C_2  and  N_3 
REMARK       I    between atoms: C_2  and  N_10 
REMARK    1  A    between atoms: N_3  and  C_4 
REMARK    2  A    between atoms: N_10  and  C_11 
REMARK    3  A    between atoms: C_16  and  C_18 
ROOT
HETATM    1  O   UNL     1     -39.647 -53.764  13.244  1.00  0.00    -0.247 OA
HETATM    2  C   UNL     1     -40.688 -53.178  12.953  1.00  0.00     0.322 C 
HETATM    3  N   UNL     1     -40.716 -51.876  12.565  1.00  0.00    -0.337 N 
HETATM    4  N   UNL     1     -41.848 -53.877  12.970  1.00  0.00    -0.288 N 
HETATM    5  H   UNL     1     -41.619 -51.413  12.506  1.00  0.00     0.164 HD
HETATM    6  H   UNL     1     -41.746 -54.861  13.168  1.00  0.00     0.172 HD
ENDROOT
BRANCH   4   7
HETATM    7  C   UNL     1     -43.116 -53.381  12.898  1.00  0.00     0.169 A 
HETATM    8  N   UNL     1     -43.908 -53.237  11.863  1.00  0.00    -0.279 N 
HETATM    9  N   UNL     1     -45.069 -52.561  12.214  1.00  0.00    -0.296 N 
ATOM     10  HN  UNL     1     -43.699 -53.577  10.924  1.00  0.00     0.189 HD
HETATM   11  C   UNL     1     -45.106 -52.274  13.500  1.00  0.00     0.074 A 
ATOM     12  HN  UNL     1     -45.807 -52.314  11.554  1.00  0.00     0.187 HD
HETATM   13  S   UNL     1     -43.728 -52.801  14.379  1.00  0.00    -0.037 SA
BRANCH  11  14
HETATM   14  C   UNL     1     -46.246 -51.503  14.164  1.00  0.00     0.044 A 
HETATM   15  C   UNL     1     -46.164 -51.175  15.641  1.00  0.00     0.012 A 
HETATM   16  C   UNL     1     -47.099 -52.240  15.178  1.00  0.00     0.012 A 
ENDBRANCH  11  14
ENDBRANCH   4   7
BRANCH   3  17
HETATM   17  C   UNL     1     -39.518 -51.034  12.630  1.00  0.00     0.095 C 
HETATM   18  C   UNL     1     -39.399 -50.355  14.002  1.00  0.00     0.027 C 
HETATM   19  C   UNL     1     -40.540 -49.375  14.276  1.00  0.00     0.012 C 
HETATM   20  C   UNL     1     -40.558 -48.209  13.296  1.00  0.00     0.074 C 
HETATM   21  S   UNL     1     -40.781 -48.754  11.576  1.00  0.00    -0.167 SA
HETATM   22  C   UNL     1     -39.464 -50.012  11.488  1.00  0.00     0.099 C 
ENDBRANCH   3  17
TORSDOF 3
ENDMDL
MODEL 4
REMARK VINA RESULT:      -5.8      3.055      6.289
REMARK  3 active torsions:
REMARK  status: ('A' for Active; 'I' for Inactive)
REMARK       I    between atoms: C_2  and  N_3 
REMARK       I    between atoms: C_2  and  N_10 
REMARK    1  A    between atoms: N_3  and  C_4 
REMARK    2  A    between atoms: N_10  and  C_11 
REMARK    3  A    between atoms: C_16  and  C_18 
ROOT
HETATM    1  O   UNL     1     -44.735 -54.422  12.321  1.00  0.00    -0.247 OA
HETATM    2  C   UNL     1     -44.018 -53.513  12.734  1.00  0.00     0.322 C 
HETATM    3  N   UNL     1     -44.370 -52.712  13.773  1.00  0.00    -0.337 N 
HETATM    4  N   UNL     1     -42.803 -53.339  12.159  1.00  0.00    -0.288 N 
HETATM    5  H   UNL     1     -43.810 -51.881  13.948  1.00  0.00     0.164 HD
HETATM    6  H   UNL     1     -42.561 -54.028  11.463  1.00  0.00     0.172 HD
ENDROOT
BRANCH   4   7
HETATM    7  C   UNL     1     -41.959 -52.279  12.311  1.00  0.00     0.169 A 
HETATM    8  N   UNL     1     -42.073 -51.043  11.888  1.00  0.00    -0.279 N 
HETATM    9  N   UNL     1     -40.915 -50.320  12.145  1.00  0.00    -0.296 N 
ATOM     10  HN  UNL     1     -42.901 -50.663  11.430  1.00  0.00     0.189 HD
HETATM   11  C   UNL     1     -40.015 -51.038  12.786  1.00  0.00     0.074 A 
ATOM     12  HN  UNL     1     -40.778 -49.347  11.870  1.00  0.00     0.187 HD
HETATM   13  S   UNL     1     -40.506 -52.648  13.120  1.00  0.00    -0.037 SA
BRANCH  11  14
HETATM   14  C   UNL     1     -38.631 -50.515  13.172  1.00  0.00     0.044 A 
HETATM   15  C   UNL     1     -38.029 -49.359  12.399  1.00  0.00     0.012 A 
HETATM   16  C   UNL     1     -37.496 -50.736  12.190  1.00  0.00     0.012 A 
ENDBRANCH  11  14
ENDBRANCH   4   7
BRANCH   3  17
HETATM   17  C   UNL     1     -45.708 -52.773  14.366  1.00  0.00     0.095 C 
HETATM   18  C   UNL     1     -46.179 -51.379  14.803  1.00  0.00     0.027 C 
HETATM   19  C   UNL     1     -45.319 -50.790  15.923  1.00  0.00     0.012 C 
HETATM   20  C   UNL     1     -45.384 -51.611  17.203  1.00  0.00     0.074 C 
HETATM   21  S   UNL     1     -44.786 -53.312  16.967  1.00  0.00    -0.167 SA
HETATM   22  C   UNL     1     -45.789 -53.782  15.518  1.00  0.00     0.099 C 
ENDBRANCH   3  17
TORSDOF 3
ENDMDL
MODEL 5
REMARK VINA RESULT:      -5.6      2.956      6.308
REMARK  3 active torsions:
REMARK  status: ('A' for Active; 'I' for Inactive)
REMARK       I    between atoms: C_2  and  N_3 
REMARK       I    between atoms: C_2  and  N_10 
REMARK    1  A    between atoms: N_3  and  C_4 
REMARK    2  A    between atoms: N_10  and  C_11 
REMARK    3  A    between atoms: C_16  and  C_18 
ROOT
HETATM    1  O   UNL     1     -43.370 -55.636  15.017  1.00  0.00    -0.247 OA
HETATM    2  C   UNL     1     -43.157 -54.554  14.474  1.00  0.00     0.322 C 
HETATM    3  N   UNL     1     -44.128 -53.624  14.280  1.00  0.00    -0.337 N 
HETATM    4  N   UNL     1     -41.889 -54.259  14.102  1.00  0.00    -0.288 N 
HETATM    5  H   UNL     1     -43.919 -52.831  13.678  1.00  0.00     0.164 HD
HETATM    6  H   UNL     1     -41.199 -54.947  14.363  1.00  0.00     0.172 HD
ENDROOT
BRANCH   4   7
HETATM    7  C   UNL     1     -41.477 -53.232  13.304  1.00  0.00     0.169 A 
HETATM    8  N   UNL     1     -41.557 -53.090  12.003  1.00  0.00    -0.279 N 
HETATM    9  N   UNL     1     -40.888 -51.946  11.585  1.00  0.00    -0.296 N 
ATOM     10  HN  UNL     1     -42.045 -53.734  11.381  1.00  0.00     0.189 HD
HETATM   11  C   UNL     1     -40.384 -51.270  12.597  1.00  0.00     0.074 A 
ATOM     12  HN  UNL     1     -40.799 -51.663  10.609  1.00  0.00     0.187 HD
HETATM   13  S   UNL     1     -40.678 -51.976  14.133  1.00  0.00    -0.037 SA
BRANCH  11  14
HETATM   14  C   UNL     1     -39.566 -49.988  12.436  1.00  0.00     0.044 A 
HETATM   15  C   UNL     1     -38.409 -49.959  11.459  1.00  0.00     0.012 A 
HETATM   16  C   UNL     1     -38.130 -50.003  12.922  1.00  0.00     0.012 A 
ENDBRANCH  11  14
ENDBRANCH   4   7
BRANCH   3  17
HETATM   17  C   UNL     1     -45.537 -53.920  14.558  1.00  0.00     0.095 C 
HETATM   18  C   UNL     1     -46.460 -53.002  13.745  1.00  0.00     0.027 C 
HETATM   19  C   UNL     1     -46.322 -51.530  14.134  1.00  0.00     0.012 C 
HETATM   20  C   UNL     1     -46.730 -51.266  15.577  1.00  0.00     0.074 C 
HETATM   21  S   UNL     1     -45.707 -52.188  16.765  1.00  0.00    -0.167 SA
HETATM   22  C   UNL     1     -45.859 -53.860  16.055  1.00  0.00     0.099 C 
ENDBRANCH   3  17
TORSDOF 3
ENDMDL
MODEL 6
REMARK VINA RESULT:      -5.6      1.786      2.354
REMARK  3 active torsions:
REMARK  status: ('A' for Active; 'I' for Inactive)
REMARK       I    between atoms: C_2  and  N_3 
REMARK       I    between atoms: C_2  and  N_10 
REMARK    1  A    between atoms: N_3  and  C_4 
REMARK    2  A    between atoms: N_10  and  C_11 
REMARK    3  A    between atoms: C_16  and  C_18 
ROOT
HETATM    1  O   UNL     1     -38.003 -49.574  12.774  1.00  0.00    -0.247 OA
HETATM    2  C   UNL     1     -39.144 -49.901  12.457  1.00  0.00     0.322 C 
HETATM    3  N   UNL     1     -40.094 -48.999  12.093  1.00  0.00    -0.337 N 
HETATM    4  N   UNL     1     -39.450 -51.220  12.419  1.00  0.00    -0.288 N 
HETATM    5  H   UNL     1     -41.055 -49.323  12.010  1.00  0.00     0.164 HD
HETATM    6  H   UNL     1     -38.676 -51.840  12.602  1.00  0.00     0.172 HD
ENDROOT
BRANCH   4   7
HETATM    7  C   UNL     1     -40.689 -51.781  12.310  1.00  0.00     0.169 A 
HETATM    8  N   UNL     1     -41.297 -52.286  11.265  1.00  0.00    -0.279 N 
HETATM    9  N   UNL     1     -42.609 -52.628  11.568  1.00  0.00    -0.296 N 
ATOM     10  HN  UNL     1     -40.864 -52.411  10.350  1.00  0.00     0.189 HD
HETATM   11  C   UNL     1     -42.899 -52.403  12.833  1.00  0.00     0.074 A 
ATOM     12  HN  UNL     1     -43.270 -53.008  10.890  1.00  0.00     0.187 HD
HETATM   13  S   UNL     1     -41.601 -51.754  13.750  1.00  0.00    -0.037 SA
BRANCH  11  14
HETATM   14  C   UNL     1     -44.278 -52.651  13.444  1.00  0.00     0.044 A 
HETATM   15  C   UNL     1     -45.488 -52.753  12.537  1.00  0.00     0.012 A 
HETATM   16  C   UNL     1     -45.295 -51.529  13.366  1.00  0.00     0.012 A 
ENDBRANCH  11  14
ENDBRANCH   4   7
BRANCH   3  17
HETATM   17  C   UNL     1     -39.865 -47.557  12.217  1.00  0.00     0.095 C 
HETATM   18  C   UNL     1     -40.473 -47.015  13.519  1.00  0.00     0.027 C 
HETATM   19  C   UNL     1     -41.996 -47.140  13.555  1.00  0.00     0.012 C 
HETATM   20  C   UNL     1     -42.676 -46.317  12.470  1.00  0.00     0.074 C 
HETATM   21  S   UNL     1     -42.181 -46.833  10.798  1.00  0.00    -0.167 SA
HETATM   22  C   UNL     1     -40.369 -46.782  10.995  1.00  0.00     0.099 C 
ENDBRANCH   3  17
TORSDOF 3
ENDMDL
MODEL 7
REMARK VINA RESULT:      -5.5      2.192      5.685
REMARK  3 active torsions:
REMARK  status: ('A' for Active; 'I' for Inactive)
REMARK       I    between atoms: C_2  and  N_3 
REMARK       I    between atoms: C_2  and  N_10 
REMARK    1  A    between atoms: N_3  and  C_4 
REMARK    2  A    between atoms: N_10  and  C_11 
REMARK    3  A    between atoms: C_16  and  C_18 
ROOT
HETATM    1  O   UNL     1     -40.151 -53.099  14.806  1.00  0.00    -0.247 OA
HETATM    2  C   UNL     1     -40.708 -52.283  14.075  1.00  0.00     0.322 C 
HETATM    3  N   UNL     1     -42.059 -52.161  14.002  1.00  0.00    -0.337 N 
HETATM    4  N   UNL     1     -39.938 -51.435  13.352  1.00  0.00    -0.288 N 
HETATM    5  H   UNL     1     -42.449 -51.589  13.257  1.00  0.00     0.164 HD
HETATM    6  H   UNL     1     -38.947 -51.509  13.527  1.00  0.00     0.172 HD
ENDROOT
BRANCH   4   7
HETATM    7  C   UNL     1     -40.335 -50.618  12.335  1.00  0.00     0.169 A 
HETATM    8  N   UNL     1     -40.408 -50.849  11.046  1.00  0.00    -0.279 N 
HETATM    9  N   UNL     1     -40.735 -49.692  10.350  1.00  0.00    -0.296 N 
ATOM     10  HN  UNL     1     -40.247 -51.758  10.613  1.00  0.00     0.189 HD
HETATM   11  C   UNL     1     -40.932 -48.669  11.155  1.00  0.00     0.074 A 
ATOM     12  HN  UNL     1     -40.812 -49.642   9.334  1.00  0.00     0.187 HD
HETATM   13  S   UNL     1     -40.731 -49.033  12.821  1.00  0.00    -0.037 SA
BRANCH  11  14
HETATM   14  C   UNL     1     -41.270 -47.260  10.668  1.00  0.00     0.044 A 
HETATM   15  C   UNL     1     -42.104 -46.347  11.545  1.00  0.00     0.012 A 
HETATM   16  C   UNL     1     -42.718 -46.958  10.332  1.00  0.00     0.012 A 
ENDBRANCH  11  14
ENDBRANCH   4   7
BRANCH   3  17
HETATM   17  C   UNL     1     -42.949 -53.115  14.670  1.00  0.00     0.095 C 
HETATM   18  C   UNL     1     -43.407 -54.211  13.697  1.00  0.00     0.027 C 
HETATM   19  C   UNL     1     -44.262 -53.665  12.554  1.00  0.00     0.012 C 
HETATM   20  C   UNL     1     -45.566 -53.048  13.041  1.00  0.00     0.074 C 
HETATM   21  S   UNL     1     -45.290 -51.643  14.162  1.00  0.00    -0.167 SA
HETATM   22  C   UNL     1     -44.141 -52.425  15.342  1.00  0.00     0.099 C 
ENDBRANCH   3  17
TORSDOF 3
ENDMDL
MODEL 8
REMARK VINA RESULT:      -5.2      2.822      3.751
REMARK  3 active torsions:
REMARK  status: ('A' for Active; 'I' for Inactive)
REMARK       I    between atoms: C_2  and  N_3 
REMARK       I    between atoms: C_2  and  N_10 
REMARK    1  A    between atoms: N_3  and  C_4 
REMARK    2  A    between atoms: N_10  and  C_11 
REMARK    3  A    between atoms: C_16  and  C_18 
ROOT
HETATM    1  O   UNL     1     -41.115 -48.244  11.018  1.00  0.00    -0.247 OA
HETATM    2  C   UNL     1     -41.124 -49.261  11.707  1.00  0.00     0.322 C 
HETATM    3  N   UNL     1     -40.066 -49.643  12.471  1.00  0.00    -0.337 N 
HETATM    4  N   UNL     1     -42.257 -50.003  11.747  1.00  0.00    -0.288 N 
HETATM    5  H   UNL     1     -40.081 -50.576  12.877  1.00  0.00     0.164 HD
HETATM    6  H   UNL     1     -43.036 -49.612  11.239  1.00  0.00     0.172 HD
ENDROOT
BRANCH   4   7
HETATM    7  C   UNL     1     -42.409 -51.257  12.260  1.00  0.00     0.169 A 
HETATM    8  N   UNL     1     -42.191 -52.426  11.709  1.00  0.00    -0.279 N 
HETATM    9  N   UNL     1     -42.608 -53.456  12.544  1.00  0.00    -0.296 N 
ATOM     10  HN  UNL     1     -41.771 -52.562  10.790  1.00  0.00     0.189 HD
HETATM   11  C   UNL     1     -43.073 -53.006  13.691  1.00  0.00     0.074 A 
ATOM     12  HN  UNL     1     -42.559 -54.445  12.297  1.00  0.00     0.187 HD
HETATM   13  S   UNL     1     -43.045 -51.296  13.841  1.00  0.00    -0.037 SA
BRANCH  11  14
HETATM   14  C   UNL     1     -43.635 -53.907  14.791  1.00  0.00     0.044 A 
HETATM   15  C   UNL     1     -44.184 -55.272  14.428  1.00  0.00     0.012 A 
HETATM   16  C   UNL     1     -45.127 -54.175  14.789  1.00  0.00     0.012 A 
ENDBRANCH  11  14
ENDBRANCH   4   7
BRANCH   3  17
HETATM   17  C   UNL     1     -38.777 -48.951  12.391  1.00  0.00     0.095 C 
HETATM   18  C   UNL     1     -37.631 -49.949  12.175  1.00  0.00     0.027 C 
HETATM   19  C   UNL     1     -37.451 -50.905  13.354  1.00  0.00     0.012 C 
HETATM   20  C   UNL     1     -37.064 -50.184  14.638  1.00  0.00     0.074 C 
HETATM   21  S   UNL     1     -38.325 -48.984  15.165  1.00  0.00    -0.167 SA
HETATM   22  C   UNL     1     -38.522 -48.055  13.609  1.00  0.00     0.099 C 
ENDBRANCH   3  17
TORSDOF 3
ENDMDL
MODEL 9
REMARK VINA RESULT:      -4.8      3.287      4.497
REMARK  3 active torsions:
REMARK  status: ('A' for Active; 'I' for Inactive)
REMARK       I    between atoms: C_2  and  N_3 
REMARK       I    between atoms: C_2  and  N_10 
REMARK    1  A    between atoms: N_3  and  C_4 
REMARK    2  A    between atoms: N_10  and  C_11 
REMARK    3  A    between atoms: C_16  and  C_18 
ROOT
HETATM    1  O   UNL     1     -42.557 -46.852  12.085  1.00  0.00    -0.247 OA
HETATM    2  C   UNL     1     -42.034 -47.912  12.419  1.00  0.00     0.322 C 
HETATM    3  N   UNL     1     -41.061 -47.988  13.365  1.00  0.00    -0.337 N 
HETATM    4  N   UNL     1     -42.485 -49.059  11.857  1.00  0.00    -0.288 N 
HETATM    5  H   UNL     1     -40.559 -48.867  13.467  1.00  0.00     0.164 HD
HETATM    6  H   UNL     1     -43.275 -48.945  11.239  1.00  0.00     0.172 HD
ENDROOT
BRANCH   4   7
HETATM    7  C   UNL     1     -41.911 -50.294  11.918  1.00  0.00     0.169 A 
HETATM    8  N   UNL     1     -40.937 -50.808  11.207  1.00  0.00    -0.279 N 
HETATM    9  N   UNL     1     -40.755 -52.152  11.508  1.00  0.00    -0.296 N 
ATOM     10  HN  UNL     1     -40.385 -50.290  10.524  1.00  0.00     0.189 HD
HETATM   11  C   UNL     1     -41.571 -52.561  12.459  1.00  0.00     0.074 A 
ATOM     12  HN  UNL     1     -40.071 -52.752  11.048  1.00  0.00     0.187 HD
HETATM   13  S   UNL     1     -42.625 -51.344  13.055  1.00  0.00    -0.037 SA
BRANCH  11  14
HETATM   14  C   UNL     1     -41.622 -54.001  12.971  1.00  0.00     0.044 A 
HETATM   15  C   UNL     1     -42.458 -54.329  14.191  1.00  0.00     0.012 A 
HETATM   16  C   UNL     1     -40.973 -54.296  14.309  1.00  0.00     0.012 A 
ENDBRANCH  11  14
ENDBRANCH   4   7
BRANCH   3  17
HETATM   17  C   UNL     1     -40.452 -46.782  13.932  1.00  0.00     0.095 C 
HETATM   18  C   UNL     1     -38.961 -46.701  13.575  1.00  0.00     0.027 C 
HETATM   19  C   UNL     1     -38.144 -47.837  14.192  1.00  0.00     0.012 C 
HETATM   20  C   UNL     1     -38.153 -47.805  15.714  1.00  0.00     0.074 C 
HETATM   21  S   UNL     1     -39.828 -47.975  16.400  1.00  0.00    -0.167 SA
HETATM   22  C   UNL     1     -40.675 -46.673  15.445  1.00  0.00     0.099 C 
ENDBRANCH   3  17
TORSDOF 3
ENDMDL
