MODEL 1
REMARK VINA RESULT:      -6.6      0.000      0.000
REMARK  5 active torsions:
REMARK  status: ('A' for Active; 'I' for Inactive)
REMARK       I    between atoms: N_2  and  C_3 
REMARK    1  A    between atoms: C_3  and  C_5 
REMARK    2  A    between atoms: C_5  and  N_6 
REMARK    3  A    between atoms: C_9  and  N_12 
REMARK       I    between atoms: N_12  and  C_13 
REMARK       I    between atoms: C_13  and  N_15 
REMARK    4  A    between atoms: N_15  and  C_16 
REMARK    5  A    between atoms: C_22  and  O_23 
ROOT
HETATM    1  N   UNL     1     -42.826 -49.826  12.116  1.00  0.00    -0.338 N 
HETATM    2  C   UNL     1     -43.270 -50.787  12.997  1.00  0.00     0.321 C 
HETATM    3  O   UNL     1     -43.635 -50.521  14.134  1.00  0.00    -0.247 OA
HETATM    4  N   UNL     1     -43.231 -52.056  12.453  1.00  0.00    -0.305 N 
HETATM    5  H   UNL     1     -43.061 -50.007  11.150  1.00  0.00     0.164 HD
HETATM    6  H   UNL     1     -42.416 -52.261  11.884  1.00  0.00     0.171 HD
ENDROOT
BRANCH   1   7
HETATM    7  C   UNL     1     -42.715 -48.427  12.549  1.00  0.00     0.089 C 
HETATM    8  C   UNL     1     -43.137 -47.414  11.477  1.00  0.00     0.055 C 
HETATM    9  C   UNL     1     -42.082 -47.253  10.382  1.00  0.00     0.275 C 
HETATM   10  N   UNL     1     -40.719 -46.959  10.861  1.00  0.00     0.097 N 
HETATM   11  C   UNL     1     -40.314 -47.935  11.889  1.00  0.00     0.275 C 
HETATM   12  C   UNL     1     -41.305 -48.110  13.043  1.00  0.00     0.055 C 
BRANCH  10  13
HETATM   13  C   UNL     1     -40.564 -45.566  11.364  1.00  0.00     0.374 C 
BRANCH  13  14
HETATM   14  C   UNL     1     -39.929 -44.629  10.330  1.00  0.00     0.245 C 
HETATM   15  N   UNL     1     -39.008 -45.233   9.495  1.00  0.00    -0.364 N 
HETATM   16  C   UNL     1     -38.405 -44.512   8.405  1.00  0.00     0.149 C 
HETATM   17  H   UNL     1     -39.036 -46.248   9.483  1.00  0.00     0.161 HD
HETATM   18  O   UNL     1     -40.173 -43.426  10.301  1.00  0.00    -0.272 OA
ENDBRANCH  13  14
ENDBRANCH  10  13
ENDBRANCH   1   7
BRANCH   4  19
HETATM   19  C   UNL     1     -43.826 -53.173  13.093  1.00  0.00     0.087 A 
HETATM   20  C   UNL     1     -43.096 -53.959  13.985  1.00  0.00     0.035 A 
HETATM   21  C   UNL     1     -43.698 -55.050  14.612  1.00  0.00     0.019 A 
HETATM   22  C   UNL     1     -45.020 -55.321  14.322  1.00  0.00     0.090 A 
HETATM   23  N   UNL     1     -45.769 -54.583  13.477  1.00  0.00    -0.345 N 
HETATM   24  C   UNL     1     -45.163 -53.526  12.879  1.00  0.00     0.169 A 
ATOM     25  HN  UNL     1     -46.747 -54.809  13.296  1.00  0.00     0.167 HD
BRANCH  24  26
HETATM   26  O   UNL     1     -45.899 -52.770  11.978  1.00  0.00    -0.339 OA
HETATM   27  C   UNL     1     -46.751 -51.828  12.637  1.00  0.00     0.211 C 
ENDBRANCH  24  26
ENDBRANCH   4  19
TORSDOF 5
ENDMDL
MODEL 2
REMARK VINA RESULT:      -6.6      1.363      2.118
REMARK  5 active torsions:
REMARK  status: ('A' for Active; 'I' for Inactive)
REMARK       I    between atoms: N_2  and  C_3 
REMARK    1  A    between atoms: C_3  and  C_5 
REMARK    2  A    between atoms: C_5  and  N_6 
REMARK    3  A    between atoms: C_9  and  N_12 
REMARK       I    between atoms: N_12  and  C_13 
REMARK       I    between atoms: C_13  and  N_15 
REMARK    4  A    between atoms: N_15  and  C_16 
REMARK    5  A    between atoms: C_22  and  O_23 
ROOT
HETATM    1  N   UNL     1     -43.206 -49.500  12.241  1.00  0.00    -0.338 N 
HETATM    2  C   UNL     1     -43.673 -50.497  13.067  1.00  0.00     0.321 C 
HETATM    3  O   UNL     1     -43.000 -50.973  13.972  1.00  0.00    -0.247 OA
HETATM    4  N   UNL     1     -44.956 -50.893  12.740  1.00  0.00    -0.305 N 
HETATM    5  H   UNL     1     -43.913 -48.844  11.940  1.00  0.00     0.164 HD
HETATM    6  H   UNL     1     -45.151 -50.958  11.746  1.00  0.00     0.171 HD
ENDROOT
BRANCH   1   7
HETATM    7  C   UNL     1     -41.829 -49.012  12.384  1.00  0.00     0.089 C 
HETATM    8  C   UNL     1     -41.694 -47.812  13.331  1.00  0.00     0.055 C 
HETATM    9  C   UNL     1     -42.185 -46.511  12.695  1.00  0.00     0.275 C 
HETATM   10  N   UNL     1     -41.601 -46.196  11.378  1.00  0.00     0.097 N 
HETATM   11  C   UNL     1     -41.734 -47.348  10.468  1.00  0.00     0.275 C 
HETATM   12  C   UNL     1     -41.215 -48.677  11.025  1.00  0.00     0.055 C 
BRANCH  10  13
HETATM   13  C   UNL     1     -40.184 -45.746  11.460  1.00  0.00     0.374 C 
BRANCH  13  14
HETATM   14  C   UNL     1     -39.806 -44.769  10.340  1.00  0.00     0.245 C 
HETATM   15  N   UNL     1     -38.832 -45.234   9.476  1.00  0.00    -0.364 N 
HETATM   16  C   UNL     1     -38.445 -44.478   8.314  1.00  0.00     0.149 C 
HETATM   17  H   UNL     1     -38.661 -46.234   9.516  1.00  0.00     0.161 HD
HETATM   18  O   UNL     1     -40.283 -43.640  10.269  1.00  0.00    -0.272 OA
ENDBRANCH  13  14
ENDBRANCH  10  13
ENDBRANCH   1   7
BRANCH   4  19
HETATM   19  C   UNL     1     -45.717 -51.755  13.570  1.00  0.00     0.087 A 
HETATM   20  C   UNL     1     -46.474 -51.245  14.626  1.00  0.00     0.035 A 
HETATM   21  C   UNL     1     -47.223 -52.104  15.430  1.00  0.00     0.019 A 
HETATM   22  C   UNL     1     -47.188 -53.455  15.149  1.00  0.00     0.090 A 
HETATM   23  N   UNL     1     -46.482 -53.993  14.132  1.00  0.00    -0.345 N 
HETATM   24  C   UNL     1     -45.761 -53.137  13.363  1.00  0.00     0.169 A 
ATOM     25  HN  UNL     1     -46.490 -54.996  13.951  1.00  0.00     0.167 HD
BRANCH  24  26
HETATM   26  O   UNL     1     -44.997 -53.666  12.333  1.00  0.00    -0.339 OA
HETATM   27  C   UNL     1     -43.776 -54.239  12.810  1.00  0.00     0.211 C 
ENDBRANCH  24  26
ENDBRANCH   4  19
TORSDOF 5
ENDMDL
MODEL 3
REMARK VINA RESULT:      -5.9      1.771      2.151
REMARK  5 active torsions:
REMARK  status: ('A' for Active; 'I' for Inactive)
REMARK       I    between atoms: N_2  and  C_3 
REMARK    1  A    between atoms: C_3  and  C_5 
REMARK    2  A    between atoms: C_5  and  N_6 
REMARK    3  A    between atoms: C_9  and  N_12 
REMARK       I    between atoms: N_12  and  C_13 
REMARK       I    between atoms: C_13  and  N_15 
REMARK    4  A    between atoms: N_15  and  C_16 
REMARK    5  A    between atoms: C_22  and  O_23 
ROOT
HETATM    1  N   UNL     1     -42.340 -49.941  12.164  1.00  0.00    -0.338 N 
HETATM    2  C   UNL     1     -42.796 -50.911  13.030  1.00  0.00     0.321 C 
HETATM    3  O   UNL     1     -42.943 -50.708  14.228  1.00  0.00    -0.247 OA
HETATM    4  N   UNL     1     -43.038 -52.112  12.392  1.00  0.00    -0.305 N 
HETATM    5  H   UNL     1     -42.741 -49.990  11.238  1.00  0.00     0.164 HD
HETATM    6  H   UNL     1     -42.358 -52.375  11.686  1.00  0.00     0.171 HD
ENDROOT
BRANCH   1   7
HETATM    7  C   UNL     1     -41.949 -48.623  12.677  1.00  0.00     0.089 C 
HETATM    8  C   UNL     1     -43.103 -47.615  12.738  1.00  0.00     0.055 C 
HETATM    9  C   UNL     1     -43.471 -47.068  11.358  1.00  0.00     0.275 C 
HETATM   10  N   UNL     1     -42.347 -46.517  10.581  1.00  0.00     0.097 N 
HETATM   11  C   UNL     1     -41.239 -47.487  10.520  1.00  0.00     0.275 C 
HETATM   12  C   UNL     1     -40.786 -48.039  11.875  1.00  0.00     0.055 C 
BRANCH  10  13
HETATM   13  C   UNL     1     -41.872 -45.202  11.093  1.00  0.00     0.374 C 
BRANCH  13  14
HETATM   14  C   UNL     1     -42.824 -44.051  10.747  1.00  0.00     0.245 C 
HETATM   15  N   UNL     1     -42.958 -43.098  11.739  1.00  0.00    -0.364 N 
HETATM   16  C   UNL     1     -43.731 -41.903  11.525  1.00  0.00     0.149 C 
HETATM   17  H   UNL     1     -42.243 -43.122  12.460  1.00  0.00     0.161 HD
HETATM   18  O   UNL     1     -43.466 -44.025   9.701  1.00  0.00    -0.272 OA
ENDBRANCH  13  14
ENDBRANCH  10  13
ENDBRANCH   1   7
BRANCH   4  19
HETATM   19  C   UNL     1     -43.701 -53.189  13.034  1.00  0.00     0.087 A 
HETATM   20  C   UNL     1     -43.013 -54.036  13.905  1.00  0.00     0.035 A 
HETATM   21  C   UNL     1     -43.681 -55.087  14.533  1.00  0.00     0.019 A 
HETATM   22  C   UNL     1     -45.025 -55.257  14.266  1.00  0.00     0.090 A 
HETATM   23  N   UNL     1     -45.734 -54.458  13.443  1.00  0.00    -0.345 N 
HETATM   24  C   UNL     1     -45.064 -53.442  12.843  1.00  0.00     0.169 A 
ATOM     25  HN  UNL     1     -46.729 -54.611  13.279  1.00  0.00     0.167 HD
BRANCH  24  26
HETATM   26  O   UNL     1     -45.760 -52.625  11.963  1.00  0.00    -0.339 OA
HETATM   27  C   UNL     1     -46.673 -51.758  12.643  1.00  0.00     0.211 C 
ENDBRANCH  24  26
ENDBRANCH   4  19
TORSDOF 5
ENDMDL
MODEL 4
REMARK VINA RESULT:      -5.7      2.913      8.662
REMARK  5 active torsions:
REMARK  status: ('A' for Active; 'I' for Inactive)
REMARK       I    between atoms: N_2  and  C_3 
REMARK    1  A    between atoms: C_3  and  C_5 
REMARK    2  A    between atoms: C_5  and  N_6 
REMARK    3  A    between atoms: C_9  and  N_12 
REMARK       I    between atoms: N_12  and  C_13 
REMARK       I    between atoms: C_13  and  N_15 
REMARK    4  A    between atoms: N_15  and  C_16 
REMARK    5  A    between atoms: C_22  and  O_23 
ROOT
HETATM    1  N   UNL     1     -42.373 -51.240  12.214  1.00  0.00    -0.338 N 
HETATM    2  C   UNL     1     -42.410 -49.870  12.081  1.00  0.00     0.321 C 
HETATM    3  O   UNL     1     -43.108 -49.158  12.790  1.00  0.00    -0.247 OA
HETATM    4  N   UNL     1     -41.596 -49.420  11.059  1.00  0.00    -0.305 N 
HETATM    5  H   UNL     1     -41.471 -51.652  12.020  1.00  0.00     0.164 HD
HETATM    6  H   UNL     1     -41.599 -49.987  10.218  1.00  0.00     0.171 HD
ENDROOT
BRANCH   1   7
HETATM    7  C   UNL     1     -43.239 -51.907  13.193  1.00  0.00     0.089 C 
HETATM    8  C   UNL     1     -42.786 -51.723  14.647  1.00  0.00     0.055 C 
HETATM    9  C   UNL     1     -41.575 -52.591  14.993  1.00  0.00     0.275 C 
HETATM   10  N   UNL     1     -41.718 -54.024  14.675  1.00  0.00     0.097 N 
HETATM   11  C   UNL     1     -42.151 -54.200  13.277  1.00  0.00     0.275 C 
HETATM   12  C   UNL     1     -43.391 -53.395  12.877  1.00  0.00     0.055 C 
BRANCH  10  13
HETATM   13  C   UNL     1     -42.632 -54.740  15.607  1.00  0.00     0.374 C 
BRANCH  13  14
HETATM   14  C   UNL     1     -41.930 -55.863  16.381  1.00  0.00     0.245 C 
HETATM   15  N   UNL     1     -40.551 -55.789  16.376  1.00  0.00    -0.364 N 
HETATM   16  C   UNL     1     -39.752 -56.708  17.145  1.00  0.00     0.149 C 
HETATM   17  H   UNL     1     -40.166 -54.893  16.091  1.00  0.00     0.161 HD
HETATM   18  O   UNL     1     -42.551 -56.788  16.898  1.00  0.00    -0.272 OA
ENDBRANCH  13  14
ENDBRANCH  10  13
ENDBRANCH   1   7
BRANCH   4  19
HETATM   19  C   UNL     1     -41.315 -48.042  10.867  1.00  0.00     0.087 A 
HETATM   20  C   UNL     1     -40.227 -47.440  11.501  1.00  0.00     0.035 A 
HETATM   21  C   UNL     1     -39.960 -46.086  11.297  1.00  0.00     0.019 A 
HETATM   22  C   UNL     1     -40.797 -45.376  10.461  1.00  0.00     0.090 A 
HETATM   23  N   UNL     1     -41.852 -45.917   9.817  1.00  0.00    -0.345 N 
HETATM   24  C   UNL     1     -42.092 -47.236  10.030  1.00  0.00     0.169 A 
ATOM     25  HN  UNL     1     -42.441 -45.360   9.199  1.00  0.00     0.167 HD
BRANCH  24  26
HETATM   26  O   UNL     1     -43.192 -47.810   9.409  1.00  0.00    -0.339 OA
HETATM   27  C   UNL     1     -43.632 -47.047   8.281  1.00  0.00     0.211 C 
ENDBRANCH  24  26
ENDBRANCH   4  19
TORSDOF 5
ENDMDL
MODEL 5
REMARK VINA RESULT:      -5.6      3.434      8.436
REMARK  5 active torsions:
REMARK  status: ('A' for Active; 'I' for Inactive)
REMARK       I    between atoms: N_2  and  C_3 
REMARK    1  A    between atoms: C_3  and  C_5 
REMARK    2  A    between atoms: C_5  and  N_6 
REMARK    3  A    between atoms: C_9  and  N_12 
REMARK       I    between atoms: N_12  and  C_13 
REMARK       I    between atoms: C_13  and  N_15 
REMARK    4  A    between atoms: N_15  and  C_16 
REMARK    5  A    between atoms: C_22  and  O_23 
ROOT
HETATM    1  N   UNL     1     -41.775 -50.367  12.228  1.00  0.00    -0.338 N 
HETATM    2  C   UNL     1     -41.852 -49.254  11.420  1.00  0.00     0.321 C 
HETATM    3  O   UNL     1     -40.981 -48.963  10.612  1.00  0.00    -0.247 OA
HETATM    4  N   UNL     1     -42.999 -48.518  11.650  1.00  0.00    -0.305 N 
HETATM    5  H   UNL     1     -42.665 -50.801  12.423  1.00  0.00     0.164 HD
HETATM    6  H   UNL     1     -43.272 -48.429  12.623  1.00  0.00     0.171 HD
ENDROOT
BRANCH   1   7
HETATM    7  C   UNL     1     -40.583 -51.224  12.185  1.00  0.00     0.089 C 
HETATM    8  C   UNL     1     -40.899 -52.710  11.979  1.00  0.00     0.055 C 
HETATM    9  C   UNL     1     -41.439 -53.371  13.248  1.00  0.00     0.275 C 
HETATM   10  N   UNL     1     -40.615 -53.182  14.455  1.00  0.00     0.097 N 
HETATM   11  C   UNL     1     -40.315 -51.752  14.654  1.00  0.00     0.275 C 
HETATM   12  C   UNL     1     -39.723 -51.039  13.434  1.00  0.00     0.055 C 
BRANCH  10  13
HETATM   13  C   UNL     1     -39.364 -53.989  14.440  1.00  0.00     0.374 C 
BRANCH  13  14
HETATM   14  C   UNL     1     -39.397 -55.156  15.434  1.00  0.00     0.245 C 
HETATM   15  N   UNL     1     -40.545 -55.226  16.200  1.00  0.00    -0.364 N 
HETATM   16  C   UNL     1     -40.774 -56.324  17.102  1.00  0.00     0.149 C 
HETATM   17  H   UNL     1     -41.327 -54.673  15.859  1.00  0.00     0.161 HD
HETATM   18  O   UNL     1     -38.446 -55.919  15.580  1.00  0.00    -0.272 OA
ENDBRANCH  13  14
ENDBRANCH  10  13
ENDBRANCH   1   7
BRANCH   4  19
HETATM   19  C   UNL     1     -43.395 -47.450  10.803  1.00  0.00     0.087 A 
HETATM   20  C   UNL     1     -44.331 -47.653   9.788  1.00  0.00     0.035 A 
HETATM   21  C   UNL     1     -44.715 -46.592   8.968  1.00  0.00     0.019 A 
HETATM   22  C   UNL     1     -44.145 -45.356   9.193  1.00  0.00     0.090 A 
HETATM   23  N   UNL     1     -43.247 -45.108  10.168  1.00  0.00    -0.345 N 
HETATM   24  C   UNL     1     -42.888 -46.156  10.954  1.00  0.00     0.169 A 
ATOM     25  HN  UNL     1     -42.855 -44.177  10.309  1.00  0.00     0.167 HD
BRANCH  24  26
HETATM   26  O   UNL     1     -41.939 -45.939  11.943  1.00  0.00    -0.339 OA
HETATM   27  C   UNL     1     -41.030 -44.891  11.594  1.00  0.00     0.211 C 
ENDBRANCH  24  26
ENDBRANCH   4  19
TORSDOF 5
ENDMDL
MODEL 6
REMARK VINA RESULT:      -5.4      3.650      8.687
REMARK  5 active torsions:
REMARK  status: ('A' for Active; 'I' for Inactive)
REMARK       I    between atoms: N_2  and  C_3 
REMARK    1  A    between atoms: C_3  and  C_5 
REMARK    2  A    between atoms: C_5  and  N_6 
REMARK    3  A    between atoms: C_9  and  N_12 
REMARK       I    between atoms: N_12  and  C_13 
REMARK       I    between atoms: C_13  and  N_15 
REMARK    4  A    between atoms: N_15  and  C_16 
REMARK    5  A    between atoms: C_22  and  O_23 
ROOT
HETATM    1  N   UNL     1     -41.380 -51.217  12.498  1.00  0.00    -0.338 N 
HETATM    2  C   UNL     1     -41.938 -49.983  12.247  1.00  0.00     0.321 C 
HETATM    3  O   UNL     1     -42.680 -49.421  13.042  1.00  0.00    -0.247 OA
HETATM    4  N   UNL     1     -41.579 -49.486  11.009  1.00  0.00    -0.305 N 
HETATM    5  H   UNL     1     -40.453 -51.339  12.115  1.00  0.00     0.164 HD
HETATM    6  H   UNL     1     -41.553 -50.166  10.257  1.00  0.00     0.171 HD
ENDROOT
BRANCH   1   7
HETATM    7  C   UNL     1     -41.719 -51.940  13.729  1.00  0.00     0.089 C 
HETATM    8  C   UNL     1     -40.647 -51.837  14.821  1.00  0.00     0.055 C 
HETATM    9  C   UNL     1     -39.433 -52.720  14.530  1.00  0.00     0.275 C 
HETATM   10  N   UNL     1     -39.739 -54.133  14.240  1.00  0.00     0.097 N 
HETATM   11  C   UNL     1     -40.767 -54.231  13.188  1.00  0.00     0.275 C 
HETATM   12  C   UNL     1     -42.034 -53.408  13.441  1.00  0.00     0.055 C 
BRANCH  10  13
HETATM   13  C   UNL     1     -40.142 -54.903  15.448  1.00  0.00     0.374 C 
BRANCH  13  14
HETATM   14  C   UNL     1     -38.955 -55.578  16.147  1.00  0.00     0.245 C 
HETATM   15  N   UNL     1     -38.979 -55.498  17.526  1.00  0.00    -0.364 N 
HETATM   16  C   UNL     1     -37.993 -56.172  18.329  1.00  0.00     0.149 C 
HETATM   17  H   UNL     1     -39.874 -55.237  17.929  1.00  0.00     0.161 HD
HETATM   18  O   UNL     1     -38.028 -56.083  15.519  1.00  0.00    -0.272 OA
ENDBRANCH  13  14
ENDBRANCH  10  13
ENDBRANCH   1   7
BRANCH   4  19
HETATM   19  C   UNL     1     -41.862 -48.152  10.618  1.00  0.00     0.087 A 
HETATM   20  C   UNL     1     -43.064 -47.833   9.984  1.00  0.00     0.035 A 
HETATM   21  C   UNL     1     -43.331 -46.516   9.611  1.00  0.00     0.019 A 
HETATM   22  C   UNL     1     -42.379 -45.555   9.887  1.00  0.00     0.090 A 
HETATM   23  N   UNL     1     -41.210 -45.813  10.509  1.00  0.00    -0.345 N 
HETATM   24  C   UNL     1     -40.972 -47.101  10.863  1.00  0.00     0.169 A 
ATOM     25  HN  UNL     1     -40.536 -45.072  10.704  1.00  0.00     0.167 HD
BRANCH  24  26
HETATM   26  O   UNL     1     -39.762 -47.402  11.471  1.00  0.00    -0.339 OA
HETATM   27  C   UNL     1     -39.703 -46.918  12.817  1.00  0.00     0.211 C 
ENDBRANCH  24  26
ENDBRANCH   4  19
TORSDOF 5
ENDMDL
MODEL 7
REMARK VINA RESULT:      -5.3      2.753      3.538
REMARK  5 active torsions:
REMARK  status: ('A' for Active; 'I' for Inactive)
REMARK       I    between atoms: N_2  and  C_3 
REMARK    1  A    between atoms: C_3  and  C_5 
REMARK    2  A    between atoms: C_5  and  N_6 
REMARK    3  A    between atoms: C_9  and  N_12 
REMARK       I    between atoms: N_12  and  C_13 
REMARK       I    between atoms: C_13  and  N_15 
REMARK    4  A    between atoms: N_15  and  C_16 
REMARK    5  A    between atoms: C_22  and  O_23 
ROOT
HETATM    1  N   UNL     1     -41.658 -48.330  12.101  1.00  0.00    -0.338 N 
HETATM    2  C   UNL     1     -41.219 -49.628  11.958  1.00  0.00     0.321 C 
HETATM    3  O   UNL     1     -40.508 -49.985  11.029  1.00  0.00    -0.247 OA
HETATM    4  N   UNL     1     -41.690 -50.455  12.960  1.00  0.00    -0.305 N 
HETATM    5  H   UNL     1     -41.741 -48.023  13.060  1.00  0.00     0.164 HD
HETATM    6  H   UNL     1     -42.654 -50.297  13.237  1.00  0.00     0.171 HD
ENDROOT
BRANCH   1   7
HETATM    7  C   UNL     1     -41.327 -47.327  11.082  1.00  0.00     0.089 C 
HETATM    8  C   UNL     1     -39.942 -46.695  11.263  1.00  0.00     0.055 C 
HETATM    9  C   UNL     1     -39.911 -45.677  12.404  1.00  0.00     0.275 C 
HETATM   10  N   UNL     1     -40.950 -44.632  12.342  1.00  0.00     0.097 N 
HETATM   11  C   UNL     1     -42.282 -45.241  12.171  1.00  0.00     0.275 C 
HETATM   12  C   UNL     1     -42.395 -46.236  11.012  1.00  0.00     0.055 C 
BRANCH  10  13
HETATM   13  C   UNL     1     -40.693 -43.615  11.285  1.00  0.00     0.374 C 
BRANCH  13  14
HETATM   14  C   UNL     1     -40.470 -42.209  11.856  1.00  0.00     0.245 C 
HETATM   15  N   UNL     1     -41.125 -41.202  11.174  1.00  0.00    -0.364 N 
HETATM   16  C   UNL     1     -41.102 -39.843  11.649  1.00  0.00     0.149 C 
HETATM   17  H   UNL     1     -41.863 -41.512  10.549  1.00  0.00     0.161 HD
HETATM   18  O   UNL     1     -39.711 -41.999  12.798  1.00  0.00    -0.272 OA
ENDBRANCH  13  14
ENDBRANCH  10  13
ENDBRANCH   1   7
BRANCH   4  19
HETATM   19  C   UNL     1     -41.211 -51.778  13.138  1.00  0.00     0.087 A 
HETATM   20  C   UNL     1     -39.971 -52.014  13.734  1.00  0.00     0.035 A 
HETATM   21  C   UNL     1     -39.516 -53.321  13.907  1.00  0.00     0.019 A 
HETATM   22  C   UNL     1     -40.322 -54.355  13.475  1.00  0.00     0.090 A 
HETATM   23  N   UNL     1     -41.532 -54.176  12.905  1.00  0.00    -0.345 N 
HETATM   24  C   UNL     1     -41.954 -52.896  12.747  1.00  0.00     0.169 A 
ATOM     25  HN  UNL     1     -42.103 -54.967  12.607  1.00  0.00     0.167 HD
BRANCH  24  26
HETATM   26  O   UNL     1     -43.179 -52.680  12.131  1.00  0.00    -0.339 OA
HETATM   27  C   UNL     1     -44.150 -53.661  12.510  1.00  0.00     0.211 C 
ENDBRANCH  24  26
ENDBRANCH   4  19
TORSDOF 5
ENDMDL
MODEL 8
REMARK VINA RESULT:      -5.3      4.500      7.714
REMARK  5 active torsions:
REMARK  status: ('A' for Active; 'I' for Inactive)
REMARK       I    between atoms: N_2  and  C_3 
REMARK    1  A    between atoms: C_3  and  C_5 
REMARK    2  A    between atoms: C_5  and  N_6 
REMARK    3  A    between atoms: C_9  and  N_12 
REMARK       I    between atoms: N_12  and  C_13 
REMARK       I    between atoms: C_13  and  N_15 
REMARK    4  A    between atoms: N_15  and  C_16 
REMARK    5  A    between atoms: C_22  and  O_23 
ROOT
HETATM    1  N   UNL     1     -40.068 -48.812  12.201  1.00  0.00    -0.338 N 
HETATM    2  C   UNL     1     -41.299 -48.428  11.717  1.00  0.00     0.321 C 
HETATM    3  O   UNL     1     -42.346 -48.691  12.293  1.00  0.00    -0.247 OA
HETATM    4  N   UNL     1     -41.202 -47.743  10.521  1.00  0.00    -0.305 N 
HETATM    5  H   UNL     1     -39.324 -48.155  12.014  1.00  0.00     0.164 HD
HETATM    6  H   UNL     1     -40.517 -48.105   9.867  1.00  0.00     0.171 HD
ENDROOT
BRANCH   1   7
HETATM    7  C   UNL     1     -39.980 -49.626  13.421  1.00  0.00     0.089 C 
HETATM    8  C   UNL     1     -39.680 -48.812  14.685  1.00  0.00     0.055 C 
HETATM    9  C   UNL     1     -38.216 -48.376  14.763  1.00  0.00     0.275 C 
HETATM   10  N   UNL     1     -37.228 -49.458  14.599  1.00  0.00     0.097 N 
HETATM   11  C   UNL     1     -37.516 -50.237  13.381  1.00  0.00     0.275 C 
HETATM   12  C   UNL     1     -38.955 -50.749  13.265  1.00  0.00     0.055 C 
BRANCH  10  13
HETATM   13  C   UNL     1     -37.136 -50.349  15.789  1.00  0.00     0.374 C 
BRANCH  13  14
HETATM   14  C   UNL     1     -35.925 -50.032  16.675  1.00  0.00     0.245 C 
HETATM   15  N   UNL     1     -36.070 -50.402  17.999  1.00  0.00    -0.364 N 
HETATM   16  C   UNL     1     -34.983 -50.269  18.933  1.00  0.00     0.149 C 
HETATM   17  H   UNL     1     -36.828 -51.051  18.186  1.00  0.00     0.161 HD
HETATM   18  O   UNL     1     -34.941 -49.434  16.249  1.00  0.00    -0.272 OA
ENDBRANCH  13  14
ENDBRANCH  10  13
ENDBRANCH   1   7
BRANCH   4  19
HETATM   19  C   UNL     1     -42.310 -47.074   9.940  1.00  0.00     0.087 A 
HETATM   20  C   UNL     1     -43.134 -47.723   9.019  1.00  0.00     0.035 A 
HETATM   21  C   UNL     1     -44.223 -47.054   8.461  1.00  0.00     0.019 A 
HETATM   22  C   UNL     1     -44.452 -45.749   8.846  1.00  0.00     0.090 A 
HETATM   23  N   UNL     1     -43.692 -45.084   9.741  1.00  0.00    -0.345 N 
HETATM   24  C   UNL     1     -42.638 -45.756  10.271  1.00  0.00     0.169 A 
ATOM     25  HN  UNL     1     -43.900 -44.122  10.006  1.00  0.00     0.167 HD
BRANCH  24  26
HETATM   26  O   UNL     1     -41.817 -45.086  11.167  1.00  0.00    -0.339 OA
HETATM   27  C   UNL     1     -42.244 -43.736  11.380  1.00  0.00     0.211 C 
ENDBRANCH  24  26
ENDBRANCH   4  19
TORSDOF 5
ENDMDL
MODEL 9
REMARK VINA RESULT:      -5.1      2.712      8.801
REMARK  5 active torsions:
REMARK  status: ('A' for Active; 'I' for Inactive)
REMARK       I    between atoms: N_2  and  C_3 
REMARK    1  A    between atoms: C_3  and  C_5 
REMARK    2  A    between atoms: C_5  and  N_6 
REMARK    3  A    between atoms: C_9  and  N_12 
REMARK       I    between atoms: N_12  and  C_13 
REMARK       I    between atoms: C_13  and  N_15 
REMARK    4  A    between atoms: N_15  and  C_16 
REMARK    5  A    between atoms: C_22  and  O_23 
ROOT
HETATM    1  N   UNL     1     -43.920 -50.259  12.900  1.00  0.00    -0.338 N 
HETATM    2  C   UNL     1     -42.744 -49.614  12.591  1.00  0.00     0.321 C 
HETATM    3  O   UNL     1     -41.673 -50.201  12.504  1.00  0.00    -0.247 OA
HETATM    4  N   UNL     1     -42.920 -48.255  12.416  1.00  0.00    -0.305 N 
HETATM    5  H   UNL     1     -44.737 -49.874  12.446  1.00  0.00     0.164 HD
HETATM    6  H   UNL     1     -43.557 -47.811  13.068  1.00  0.00     0.171 HD
ENDROOT
BRANCH   1   7
HETATM    7  C   UNL     1     -43.913 -51.695  13.206  1.00  0.00     0.089 C 
HETATM    8  C   UNL     1     -45.213 -52.414  12.826  1.00  0.00     0.055 C 
HETATM    9  C   UNL     1     -46.349 -52.119  13.807  1.00  0.00     0.275 C 
HETATM   10  N   UNL     1     -46.028 -52.350  15.227  1.00  0.00     0.097 N 
HETATM   11  C   UNL     1     -44.780 -51.656  15.592  1.00  0.00     0.275 C 
HETATM   12  C   UNL     1     -43.586 -51.946  14.678  1.00  0.00     0.055 C 
BRANCH  10  13
HETATM   13  C   UNL     1     -45.954 -53.795  15.582  1.00  0.00     0.374 C 
BRANCH  13  14
HETATM   14  C   UNL     1     -45.589 -54.027  17.053  1.00  0.00     0.245 C 
HETATM   15  N   UNL     1     -46.426 -53.405  17.958  1.00  0.00    -0.364 N 
HETATM   16  C   UNL     1     -46.280 -53.614  19.375  1.00  0.00     0.149 C 
HETATM   17  H   UNL     1     -47.312 -53.084  17.579  1.00  0.00     0.161 HD
HETATM   18  O   UNL     1     -44.589 -54.657  17.387  1.00  0.00    -0.272 OA
ENDBRANCH  13  14
ENDBRANCH  10  13
ENDBRANCH   1   7
BRANCH   4  19
HETATM   19  C   UNL     1     -41.898 -47.420  11.894  1.00  0.00     0.087 A 
HETATM   20  C   UNL     1     -40.919 -46.881  12.730  1.00  0.00     0.035 A 
HETATM   21  C   UNL     1     -39.917 -46.067  12.201  1.00  0.00     0.019 A 
HETATM   22  C   UNL     1     -39.930 -45.818  10.843  1.00  0.00     0.090 A 
HETATM   23  N   UNL     1     -40.848 -46.325   9.995  1.00  0.00    -0.345 N 
HETATM   24  C   UNL     1     -41.812 -47.115  10.532  1.00  0.00     0.169 A 
ATOM     25  HN  UNL     1     -40.817 -46.125   8.995  1.00  0.00     0.167 HD
BRANCH  24  26
HETATM   26  O   UNL     1     -42.790 -47.622   9.688  1.00  0.00    -0.339 OA
HETATM   27  C   UNL     1     -43.534 -46.583   9.043  1.00  0.00     0.211 C 
ENDBRANCH  24  26
ENDBRANCH   4  19
TORSDOF 5
ENDMDL
