MODEL 1
REMARK VINA RESULT:      -6.1      0.000      0.000
REMARK  5 active torsions:
REMARK  status: ('A' for Active; 'I' for Inactive)
REMARK    1  A    between atoms: N_7  and  C_8 
REMARK    2  A    between atoms: C_8  and  C_9 
REMARK       I    between atoms: C_9  and  N_11 
REMARK    3  A    between atoms: N_11  and  C_12 
REMARK    4  A    between atoms: C_12  and  C_13 
REMARK    5  A    between atoms: C_13  and  C_14 
ROOT
HETATM    1  C   UNL     1     -42.043 -49.494  11.848  1.00  0.00     0.237 C 
HETATM    2  O   UNL     1     -42.793 -49.068  12.721  1.00  0.00    -0.272 OA
HETATM    3  N   UNL     1     -41.729 -50.843  11.777  1.00  0.00    -0.359 N 
HETATM    4  H   UNL     1     -41.142 -51.225  11.045  1.00  0.00     0.162 HD
ENDROOT
BRANCH   1   5
HETATM    5  C   UNL     1     -41.493 -48.578  10.777  1.00  0.00     0.253 C 
BRANCH   5   6
HETATM    6  N   UNL     1     -42.468 -47.649  10.230  1.00  0.00    -0.271 N 
HETATM    7  C   UNL     1     -42.488 -46.272  10.203  1.00  0.00     0.096 A 
HETATM    8  N   UNL     1     -43.660 -45.871   9.757  1.00  0.00    -0.334 N 
HETATM    9  C   UNL     1     -41.406 -45.351  10.617  1.00  0.00     0.091 C 
HETATM   10  C   UNL     1     -44.348 -47.026   9.547  1.00  0.00     0.093 A 
ATOM     11  HN  UNL     1     -43.979 -44.914   9.605  1.00  0.00     0.168 HD
HETATM   12  C   UNL     1     -45.743 -47.014   9.062  1.00  0.00     0.090 C 
HETATM   13  N   UNL     1     -43.669 -48.142   9.830  1.00  0.00    -0.285 N 
ATOM     14  HN  UNL     1     -43.974 -49.114   9.763  1.00  0.00     0.188 HD
ENDBRANCH   5   6
ENDBRANCH   1   5
BRANCH   3  15
HETATM   15  C   UNL     1     -42.263 -51.715  12.813  1.00  0.00     0.127 C 
BRANCH  15  16
HETATM   16  C   UNL     1     -43.334 -52.723  12.389  1.00  0.00     0.053 C 
BRANCH  16  17
HETATM   17  C   UNL     1     -44.623 -52.727  13.186  1.00  0.00    -0.082 A 
HETATM   18  C   UNL     1     -45.287 -51.584  13.407  1.00  0.00    -0.024 A 
HETATM   19  C   UNL     1     -46.504 -51.449  14.254  1.00  0.00     0.027 A 
HETATM   20  C   UNL     1     -47.071 -52.724  14.865  1.00  0.00     0.004 A 
HETATM   21  C   UNL     1     -46.329 -54.038  14.634  1.00  0.00     0.005 A 
HETATM   22  C   UNL     1     -45.045 -54.030  13.804  1.00  0.00     0.034 A 
ENDBRANCH  16  17
ENDBRANCH  15  16
ENDBRANCH   3  15
TORSDOF 5
ENDMDL
MODEL 2
REMARK VINA RESULT:      -6.0      1.751      2.320
REMARK  5 active torsions:
REMARK  status: ('A' for Active; 'I' for Inactive)
REMARK    1  A    between atoms: N_7  and  C_8 
REMARK    2  A    between atoms: C_8  and  C_9 
REMARK       I    between atoms: C_9  and  N_11 
REMARK    3  A    between atoms: N_11  and  C_12 
REMARK    4  A    between atoms: C_12  and  C_13 
REMARK    5  A    between atoms: C_13  and  C_14 
ROOT
HETATM    1  C   UNL     1     -41.238 -50.055  11.854  1.00  0.00     0.237 C 
HETATM    2  O   UNL     1     -42.360 -50.216  12.326  1.00  0.00    -0.272 OA
HETATM    3  N   UNL     1     -40.500 -51.134  11.393  1.00  0.00    -0.359 N 
HETATM    4  H   UNL     1     -39.587 -51.022  10.967  1.00  0.00     0.162 HD
ENDROOT
BRANCH   1   5
HETATM    5  C   UNL     1     -40.652 -48.669  11.693  1.00  0.00     0.253 C 
BRANCH   5   6
HETATM    6  N   UNL     1     -41.347 -47.838  10.723  1.00  0.00    -0.271 N 
HETATM    7  C   UNL     1     -41.257 -46.489  10.461  1.00  0.00     0.096 A 
HETATM    8  N   UNL     1     -42.209 -46.155   9.614  1.00  0.00    -0.334 N 
HETATM    9  C   UNL     1     -40.287 -45.527  11.030  1.00  0.00     0.091 C 
HETATM   10  C   UNL     1     -42.883 -47.317   9.396  1.00  0.00     0.093 A 
ATOM     11  HN  UNL     1     -42.396 -45.236   9.213  1.00  0.00     0.168 HD
HETATM   12  C   UNL     1     -44.061 -47.369   8.509  1.00  0.00     0.090 C 
HETATM   13  N   UNL     1     -42.404 -48.375  10.059  1.00  0.00    -0.285 N 
ATOM     14  HN  UNL     1     -42.744 -49.337  10.064  1.00  0.00     0.188 HD
ENDBRANCH   5   6
ENDBRANCH   1   5
BRANCH   3  15
HETATM   15  C   UNL     1     -41.072 -52.462  11.555  1.00  0.00     0.127 C 
BRANCH  15  16
HETATM   16  C   UNL     1     -40.973 -53.097  12.944  1.00  0.00     0.053 C 
BRANCH  16  17
HETATM   17  C   UNL     1     -42.228 -53.750  13.488  1.00  0.00    -0.082 A 
HETATM   18  C   UNL     1     -42.165 -54.551  14.561  1.00  0.00    -0.024 A 
HETATM   19  C   UNL     1     -43.308 -55.321  15.124  1.00  0.00     0.027 A 
HETATM   20  C   UNL     1     -44.667 -55.132  14.464  1.00  0.00     0.004 A 
HETATM   21  C   UNL     1     -44.764 -54.231  13.236  1.00  0.00     0.005 A 
HETATM   22  C   UNL     1     -43.498 -53.552  12.711  1.00  0.00     0.034 A 
ENDBRANCH  16  17
ENDBRANCH  15  16
ENDBRANCH   3  15
TORSDOF 5
ENDMDL
MODEL 3
REMARK VINA RESULT:      -5.9      1.454      2.035
REMARK  5 active torsions:
REMARK  status: ('A' for Active; 'I' for Inactive)
REMARK    1  A    between atoms: N_7  and  C_8 
REMARK    2  A    between atoms: C_8  and  C_9 
REMARK       I    between atoms: C_9  and  N_11 
REMARK    3  A    between atoms: N_11  and  C_12 
REMARK    4  A    between atoms: C_12  and  C_13 
REMARK    5  A    between atoms: C_13  and  C_14 
ROOT
HETATM    1  C   UNL     1     -41.073 -50.643  12.364  1.00  0.00     0.237 C 
HETATM    2  O   UNL     1     -40.789 -50.749  13.554  1.00  0.00    -0.272 OA
HETATM    3  N   UNL     1     -41.921 -51.552  11.752  1.00  0.00    -0.359 N 
HETATM    4  H   UNL     1     -42.199 -51.465  10.781  1.00  0.00     0.162 HD
ENDROOT
BRANCH   1   5
HETATM    5  C   UNL     1     -40.565 -49.478  11.543  1.00  0.00     0.253 C 
BRANCH   5   6
HETATM    6  N   UNL     1     -41.609 -48.586  11.066  1.00  0.00    -0.271 N 
HETATM    7  C   UNL     1     -42.623 -47.941  11.740  1.00  0.00     0.096 A 
HETATM    8  N   UNL     1     -43.429 -47.381  10.862  1.00  0.00    -0.334 N 
HETATM    9  C   UNL     1     -42.828 -47.878  13.204  1.00  0.00     0.091 C 
HETATM   10  C   UNL     1     -42.899 -47.725   9.657  1.00  0.00     0.093 A 
ATOM     11  HN  UNL     1     -44.260 -46.818  11.044  1.00  0.00     0.168 HD
HETATM   12  C   UNL     1     -43.532 -47.310   8.390  1.00  0.00     0.090 C 
HETATM   13  N   UNL     1     -41.791 -48.471   9.725  1.00  0.00    -0.285 N 
ATOM     14  HN  UNL     1     -41.228 -48.854   8.966  1.00  0.00     0.188 HD
ENDBRANCH   5   6
ENDBRANCH   1   5
BRANCH   3  15
HETATM   15  C   UNL     1     -42.403 -52.669  12.552  1.00  0.00     0.127 C 
BRANCH  15  16
HETATM   16  C   UNL     1     -43.789 -53.221  12.210  1.00  0.00     0.053 C 
BRANCH  16  17
HETATM   17  C   UNL     1     -44.888 -52.985  13.227  1.00  0.00    -0.082 A 
HETATM   18  C   UNL     1     -45.439 -54.018  13.881  1.00  0.00    -0.024 A 
HETATM   19  C   UNL     1     -46.586 -53.921  14.825  1.00  0.00     0.027 A 
HETATM   20  C   UNL     1     -47.132 -52.529  15.115  1.00  0.00     0.004 A 
HETATM   21  C   UNL     1     -46.527 -51.337  14.378  1.00  0.00     0.005 A 
HETATM   22  C   UNL     1     -45.398 -51.581  13.375  1.00  0.00     0.034 A 
ENDBRANCH  16  17
ENDBRANCH  15  16
ENDBRANCH   3  15
TORSDOF 5
ENDMDL
MODEL 4
REMARK VINA RESULT:      -5.8      2.186      3.576
REMARK  5 active torsions:
REMARK  status: ('A' for Active; 'I' for Inactive)
REMARK    1  A    between atoms: N_7  and  C_8 
REMARK    2  A    between atoms: C_8  and  C_9 
REMARK       I    between atoms: C_9  and  N_11 
REMARK    3  A    between atoms: N_11  and  C_12 
REMARK    4  A    between atoms: C_12  and  C_13 
REMARK    5  A    between atoms: C_13  and  C_14 
ROOT
HETATM    1  C   UNL     1     -42.098 -52.089  12.661  1.00  0.00     0.237 C 
HETATM    2  O   UNL     1     -42.074 -51.738  13.838  1.00  0.00    -0.272 OA
HETATM    3  N   UNL     1     -43.242 -52.644  12.109  1.00  0.00    -0.359 N 
HETATM    4  H   UNL     1     -43.298 -52.907  11.132  1.00  0.00     0.162 HD
ENDROOT
BRANCH   1   5
HETATM    5  C   UNL     1     -40.908 -51.861  11.756  1.00  0.00     0.253 C 
BRANCH   5   6
HETATM    6  N   UNL     1     -40.655 -50.463  11.445  1.00  0.00    -0.271 N 
HETATM    7  C   UNL     1     -39.499 -49.718  11.514  1.00  0.00     0.096 A 
HETATM    8  N   UNL     1     -39.794 -48.453  11.301  1.00  0.00    -0.334 N 
HETATM    9  C   UNL     1     -38.131 -50.207  11.800  1.00  0.00     0.091 C 
HETATM   10  C   UNL     1     -41.144 -48.450  11.133  1.00  0.00     0.093 A 
ATOM     11  HN  UNL     1     -39.157 -47.657  11.269  1.00  0.00     0.168 HD
HETATM   12  C   UNL     1     -41.889 -47.199  10.893  1.00  0.00     0.090 C 
HETATM   13  N   UNL     1     -41.722 -49.653  11.222  1.00  0.00    -0.285 N 
ATOM     14  HN  UNL     1     -42.709 -49.899  11.142  1.00  0.00     0.188 HD
ENDBRANCH   5   6
ENDBRANCH   1   5
BRANCH   3  15
HETATM   15  C   UNL     1     -44.381 -52.859  12.989  1.00  0.00     0.127 C 
BRANCH  15  16
HETATM   16  C   UNL     1     -45.345 -51.685  13.177  1.00  0.00     0.053 C 
BRANCH  16  17
HETATM   17  C   UNL     1     -45.772 -51.373  14.597  1.00  0.00    -0.082 A 
HETATM   18  C   UNL     1     -47.019 -51.645  15.006  1.00  0.00    -0.024 A 
HETATM   19  C   UNL     1     -47.581 -51.295  16.340  1.00  0.00     0.027 A 
HETATM   20  C   UNL     1     -46.641 -50.631  17.337  1.00  0.00     0.004 A 
HETATM   21  C   UNL     1     -45.217 -50.303  16.894  1.00  0.00     0.005 A 
HETATM   22  C   UNL     1     -44.785 -50.649  15.468  1.00  0.00     0.034 A 
ENDBRANCH  16  17
ENDBRANCH  15  16
ENDBRANCH   3  15
TORSDOF 5
ENDMDL
MODEL 5
REMARK VINA RESULT:      -5.7      2.369      3.471
REMARK  5 active torsions:
REMARK  status: ('A' for Active; 'I' for Inactive)
REMARK    1  A    between atoms: N_7  and  C_8 
REMARK    2  A    between atoms: C_8  and  C_9 
REMARK       I    between atoms: C_9  and  N_11 
REMARK    3  A    between atoms: N_11  and  C_12 
REMARK    4  A    between atoms: C_12  and  C_13 
REMARK    5  A    between atoms: C_13  and  C_14 
ROOT
HETATM    1  C   UNL     1     -42.054 -49.982  12.062  1.00  0.00     0.237 C 
HETATM    2  O   UNL     1     -42.889 -49.369  12.723  1.00  0.00    -0.272 OA
HETATM    3  N   UNL     1     -42.070 -51.367  12.006  1.00  0.00    -0.359 N 
HETATM    4  H   UNL     1     -41.415 -51.893  11.439  1.00  0.00     0.162 HD
ENDROOT
BRANCH   1   5
HETATM    5  C   UNL     1     -41.026 -49.247  11.231  1.00  0.00     0.253 C 
BRANCH   5   6
HETATM    6  N   UNL     1     -41.547 -48.083  10.532  1.00  0.00    -0.271 N 
HETATM    7  C   UNL     1     -41.144 -46.766  10.547  1.00  0.00     0.096 A 
HETATM    8  N   UNL     1     -42.029 -46.042   9.892  1.00  0.00    -0.334 N 
HETATM    9  C   UNL     1     -39.939 -46.203  11.197  1.00  0.00     0.091 C 
HETATM   10  C   UNL     1     -42.977 -46.941   9.512  1.00  0.00     0.093 A 
ATOM     11  HN  UNL     1     -42.007 -45.039   9.711  1.00  0.00     0.168 HD
HETATM   12  C   UNL     1     -44.179 -46.523   8.763  1.00  0.00     0.090 C 
HETATM   13  N   UNL     1     -42.737 -48.201   9.888  1.00  0.00    -0.285 N 
ATOM     14  HN  UNL     1     -43.301 -49.037   9.730  1.00  0.00     0.188 HD
ENDBRANCH   5   6
ENDBRANCH   1   5
BRANCH   3  15
HETATM   15  C   UNL     1     -43.063 -52.064  12.810  1.00  0.00     0.127 C 
BRANCH  15  16
HETATM   16  C   UNL     1     -42.948 -53.588  12.888  1.00  0.00     0.053 C 
BRANCH  16  17
HETATM   17  C   UNL     1     -41.834 -54.146  13.750  1.00  0.00    -0.082 A 
HETATM   18  C   UNL     1     -42.092 -54.587  14.989  1.00  0.00    -0.024 A 
HETATM   19  C   UNL     1     -41.068 -55.063  15.961  1.00  0.00     0.027 A 
HETATM   20  C   UNL     1     -39.623 -55.109  15.481  1.00  0.00     0.004 A 
HETATM   21  C   UNL     1     -39.302 -54.605  14.077  1.00  0.00     0.005 A 
HETATM   22  C   UNL     1     -40.437 -54.070  13.202  1.00  0.00     0.034 A 
ENDBRANCH  16  17
ENDBRANCH  15  16
ENDBRANCH   3  15
TORSDOF 5
ENDMDL
MODEL 6
REMARK VINA RESULT:      -5.7      2.295      3.408
REMARK  5 active torsions:
REMARK  status: ('A' for Active; 'I' for Inactive)
REMARK    1  A    between atoms: N_7  and  C_8 
REMARK    2  A    between atoms: C_8  and  C_9 
REMARK       I    between atoms: C_9  and  N_11 
REMARK    3  A    between atoms: N_11  and  C_12 
REMARK    4  A    between atoms: C_12  and  C_13 
REMARK    5  A    between atoms: C_13  and  C_14 
ROOT
HETATM    1  C   UNL     1     -41.286 -52.632  13.332  1.00  0.00     0.237 C 
HETATM    2  O   UNL     1     -41.755 -51.810  14.115  1.00  0.00    -0.272 OA
HETATM    3  N   UNL     1     -41.586 -53.980  13.453  1.00  0.00    -0.359 N 
HETATM    4  H   UNL     1     -41.241 -54.672  12.798  1.00  0.00     0.162 HD
ENDROOT
BRANCH   1   5
HETATM    5  C   UNL     1     -40.423 -52.196  12.169  1.00  0.00     0.253 C 
BRANCH   5   6
HETATM    6  N   UNL     1     -40.649 -50.824  11.741  1.00  0.00    -0.271 N 
HETATM    7  C   UNL     1     -39.767 -49.790  11.522  1.00  0.00     0.096 A 
HETATM    8  N   UNL     1     -40.450 -48.683  11.315  1.00  0.00    -0.334 N 
HETATM    9  C   UNL     1     -38.288 -49.854  11.531  1.00  0.00     0.091 C 
HETATM   10  C   UNL     1     -41.750 -49.067  11.442  1.00  0.00     0.093 A 
ATOM     11  HN  UNL     1     -40.089 -47.753  11.107  1.00  0.00     0.168 HD
HETATM   12  C   UNL     1     -42.856 -48.099  11.306  1.00  0.00     0.090 C 
HETATM   13  N   UNL     1     -41.927 -50.364  11.713  1.00  0.00    -0.285 N 
ATOM     14  HN  UNL     1     -42.797 -50.876  11.860  1.00  0.00     0.188 HD
ENDBRANCH   5   6
ENDBRANCH   1   5
BRANCH   3  15
HETATM   15  C   UNL     1     -42.416 -54.388  14.577  1.00  0.00     0.127 C 
BRANCH  15  16
HETATM   16  C   UNL     1     -43.883 -54.707  14.277  1.00  0.00     0.053 C 
BRANCH  16  17
HETATM   17  C   UNL     1     -44.846 -53.536  14.254  1.00  0.00    -0.082 A 
HETATM   18  C   UNL     1     -45.285 -52.996  15.399  1.00  0.00    -0.024 A 
HETATM   19  C   UNL     1     -46.302 -51.914  15.503  1.00  0.00     0.027 A 
HETATM   20  C   UNL     1     -46.836 -51.334  14.199  1.00  0.00     0.004 A 
HETATM   21  C   UNL     1     -46.357 -51.936  12.881  1.00  0.00     0.005 A 
HETATM   22  C   UNL     1     -45.363 -53.098  12.913  1.00  0.00     0.034 A 
ENDBRANCH  16  17
ENDBRANCH  15  16
ENDBRANCH   3  15
TORSDOF 5
ENDMDL
MODEL 7
REMARK VINA RESULT:      -5.5      1.728      2.936
REMARK  5 active torsions:
REMARK  status: ('A' for Active; 'I' for Inactive)
REMARK    1  A    between atoms: N_7  and  C_8 
REMARK    2  A    between atoms: C_8  and  C_9 
REMARK       I    between atoms: C_9  and  N_11 
REMARK    3  A    between atoms: N_11  and  C_12 
REMARK    4  A    between atoms: C_12  and  C_13 
REMARK    5  A    between atoms: C_13  and  C_14 
ROOT
HETATM    1  C   UNL     1     -42.364 -49.348  12.511  1.00  0.00     0.237 C 
HETATM    2  O   UNL     1     -42.057 -49.202  13.691  1.00  0.00    -0.272 OA
HETATM    3  N   UNL     1     -41.914 -50.443  11.791  1.00  0.00    -0.359 N 
HETATM    4  H   UNL     1     -42.183 -50.606  10.827  1.00  0.00     0.162 HD
ENDROOT
BRANCH   1   5
HETATM    5  C   UNL     1     -43.302 -48.380  11.824  1.00  0.00     0.253 C 
BRANCH   5   6
HETATM    6  N   UNL     1     -42.630 -47.353  11.044  1.00  0.00    -0.271 N 
HETATM    7  C   UNL     1     -42.832 -46.925   9.751  1.00  0.00     0.096 A 
HETATM    8  N   UNL     1     -41.865 -46.093   9.421  1.00  0.00    -0.334 N 
HETATM    9  C   UNL     1     -43.924 -47.322   8.834  1.00  0.00     0.091 C 
HETATM   10  C   UNL     1     -41.070 -46.054  10.525  1.00  0.00     0.093 A 
ATOM     11  HN  UNL     1     -41.742 -45.593   8.541  1.00  0.00     0.168 HD
HETATM   12  C   UNL     1     -39.838 -45.241  10.558  1.00  0.00     0.090 C 
HETATM   13  N   UNL     1     -41.486 -46.815  11.543  1.00  0.00    -0.285 N 
ATOM     14  HN  UNL     1     -41.057 -46.954  12.457  1.00  0.00     0.188 HD
ENDBRANCH   5   6
ENDBRANCH   1   5
BRANCH   3  15
HETATM   15  C   UNL     1     -41.012 -51.368  12.461  1.00  0.00     0.127 C 
BRANCH  15  16
HETATM   16  C   UNL     1     -41.228 -52.861  12.203  1.00  0.00     0.053 C 
BRANCH  16  17
HETATM   17  C   UNL     1     -42.322 -53.541  13.002  1.00  0.00    -0.082 A 
HETATM   18  C   UNL     1     -42.019 -54.254  14.096  1.00  0.00    -0.024 A 
HETATM   19  C   UNL     1     -42.991 -55.044  14.901  1.00  0.00     0.027 A 
HETATM   20  C   UNL     1     -44.454 -54.982  14.482  1.00  0.00     0.004 A 
HETATM   21  C   UNL     1     -44.824 -54.182  13.236  1.00  0.00     0.005 A 
HETATM   22  C   UNL     1     -43.718 -53.475  12.452  1.00  0.00     0.034 A 
ENDBRANCH  16  17
ENDBRANCH  15  16
ENDBRANCH   3  15
TORSDOF 5
ENDMDL
MODEL 8
REMARK VINA RESULT:      -5.5      3.679      4.695
REMARK  5 active torsions:
REMARK  status: ('A' for Active; 'I' for Inactive)
REMARK    1  A    between atoms: N_7  and  C_8 
REMARK    2  A    between atoms: C_8  and  C_9 
REMARK       I    between atoms: C_9  and  N_11 
REMARK    3  A    between atoms: N_11  and  C_12 
REMARK    4  A    between atoms: C_12  and  C_13 
REMARK    5  A    between atoms: C_13  and  C_14 
ROOT
HETATM    1  C   UNL     1     -40.267 -52.561  13.334  1.00  0.00     0.237 C 
HETATM    2  O   UNL     1     -40.368 -52.783  12.130  1.00  0.00    -0.272 OA
HETATM    3  N   UNL     1     -41.036 -53.259  14.252  1.00  0.00    -0.359 N 
HETATM    4  H   UNL     1     -40.944 -53.120  15.251  1.00  0.00     0.162 HD
ENDROOT
BRANCH   1   5
HETATM    5  C   UNL     1     -39.250 -51.573  13.861  1.00  0.00     0.253 C 
BRANCH   5   6
HETATM    6  N   UNL     1     -38.741 -50.651  12.858  1.00  0.00    -0.271 N 
HETATM    7  C   UNL     1     -39.199 -49.416  12.453  1.00  0.00     0.096 A 
HETATM    8  N   UNL     1     -38.515 -49.036  11.393  1.00  0.00    -0.334 N 
HETATM    9  C   UNL     1     -40.289 -48.620  13.059  1.00  0.00     0.091 C 
HETATM   10  C   UNL     1     -37.666 -50.072  11.156  1.00  0.00     0.093 A 
ATOM     11  HN  UNL     1     -38.603 -48.165  10.870  1.00  0.00     0.168 HD
HETATM   12  C   UNL     1     -36.727 -50.054  10.017  1.00  0.00     0.090 C 
HETATM   13  N   UNL     1     -37.770 -51.090  12.017  1.00  0.00    -0.285 N 
ATOM     14  HN  UNL     1     -37.253 -51.969  12.037  1.00  0.00     0.188 HD
ENDBRANCH   5   6
ENDBRANCH   1   5
BRANCH   3  15
HETATM   15  C   UNL     1     -42.012 -54.206  13.733  1.00  0.00     0.127 C 
BRANCH  15  16
HETATM   16  C   UNL     1     -43.309 -54.374  14.529  1.00  0.00     0.053 C 
BRANCH  16  17
HETATM   17  C   UNL     1     -44.448 -53.436  14.184  1.00  0.00    -0.082 A 
HETATM   18  C   UNL     1     -44.974 -53.433  12.951  1.00  0.00    -0.024 A 
HETATM   19  C   UNL     1     -46.023 -52.494  12.468  1.00  0.00     0.027 A 
HETATM   20  C   UNL     1     -46.584 -51.500  13.477  1.00  0.00     0.004 A 
HETATM   21  C   UNL     1     -45.997 -51.478  14.886  1.00  0.00     0.005 A 
HETATM   22  C   UNL     1     -44.867 -52.448  15.235  1.00  0.00     0.034 A 
ENDBRANCH  16  17
ENDBRANCH  15  16
ENDBRANCH   3  15
TORSDOF 5
ENDMDL
MODEL 9
REMARK VINA RESULT:      -5.4      3.327      5.407
REMARK  5 active torsions:
REMARK  status: ('A' for Active; 'I' for Inactive)
REMARK    1  A    between atoms: N_7  and  C_8 
REMARK    2  A    between atoms: C_8  and  C_9 
REMARK       I    between atoms: C_9  and  N_11 
REMARK    3  A    between atoms: N_11  and  C_12 
REMARK    4  A    between atoms: C_12  and  C_13 
REMARK    5  A    between atoms: C_13  and  C_14 
ROOT
HETATM    1  C   UNL     1     -44.053 -53.805  13.193  1.00  0.00     0.237 C 
HETATM    2  O   UNL     1     -44.657 -53.839  12.125  1.00  0.00    -0.272 OA
HETATM    3  N   UNL     1     -44.731 -53.618  14.388  1.00  0.00    -0.359 N 
HETATM    4  H   UNL     1     -44.260 -53.623  15.285  1.00  0.00     0.162 HD
ENDROOT
BRANCH   1   5
HETATM    5  C   UNL     1     -42.559 -54.037  13.252  1.00  0.00     0.253 C 
BRANCH   5   6
HETATM    6  N   UNL     1     -41.761 -52.876  12.889  1.00  0.00    -0.271 N 
HETATM    7  C   UNL     1     -40.474 -52.523  13.230  1.00  0.00     0.096 A 
HETATM    8  N   UNL     1     -40.242 -51.298  12.807  1.00  0.00    -0.334 N 
HETATM    9  C   UNL     1     -39.485 -53.341  13.968  1.00  0.00     0.091 C 
HETATM   10  C   UNL     1     -41.417 -50.915  12.237  1.00  0.00     0.093 A 
ATOM     11  HN  UNL     1     -39.380 -50.759  12.889  1.00  0.00     0.168 HD
HETATM   12  C   UNL     1     -41.588 -49.570  11.653  1.00  0.00     0.090 C 
HETATM   13  N   UNL     1     -42.383 -51.840  12.269  1.00  0.00    -0.285 N 
ATOM     14  HN  UNL     1     -43.339 -51.781  11.919  1.00  0.00     0.188 HD
ENDBRANCH   5   6
ENDBRANCH   1   5
BRANCH   3  15
HETATM   15  C   UNL     1     -46.168 -53.395  14.319  1.00  0.00     0.127 C 
BRANCH  15  16
HETATM   16  C   UNL     1     -46.649 -51.943  14.387  1.00  0.00     0.053 C 
BRANCH  16  17
HETATM   17  C   UNL     1     -46.706 -51.306  15.761  1.00  0.00    -0.082 A 
HETATM   18  C   UNL     1     -47.856 -51.278  16.448  1.00  0.00    -0.024 A 
HETATM   19  C   UNL     1     -48.057 -50.597  17.757  1.00  0.00     0.027 A 
HETATM   20  C   UNL     1     -46.841 -49.934  18.390  1.00  0.00     0.004 A 
HETATM   21  C   UNL     1     -45.521 -49.945  17.624  1.00  0.00     0.005 A 
HETATM   22  C   UNL     1     -45.465 -50.616  16.251  1.00  0.00     0.034 A 
ENDBRANCH  16  17
ENDBRANCH  15  16
ENDBRANCH   3  15
TORSDOF 5
ENDMDL
