MODEL 1
REMARK VINA RESULT:      -5.7      0.000      0.000
REMARK  3 active torsions:
REMARK  status: ('A' for Active; 'I' for Inactive)
REMARK    1  A    between atoms: C_2  and  C_3 
REMARK    2  A    between atoms: C_3  and  C_4 
REMARK    3  A    between atoms: C_8  and  C_11 
ROOT
HETATM    1  C   UNL     1     -43.853 -47.595   9.488  1.00  0.00     0.097 A 
HETATM    2  N   UNL     1     -42.880 -47.893   8.619  1.00  0.00    -0.287 N 
ATOM      3  HN  UNL     1     -42.871 -47.805   7.603  1.00  0.00     0.188 HD
HETATM    4  N   UNL     1     -41.917 -48.338   9.442  1.00  0.00    -0.285 N 
HETATM    5  C   UNL     1     -42.313 -48.295  10.750  1.00  0.00     0.128 A 
HETATM    6  N   UNL     1     -43.545 -47.828  10.803  1.00  0.00    -0.331 N 
ATOM      7  HN  UNL     1     -44.129 -47.677  11.625  1.00  0.00     0.168 HD
HETATM    8  H   UNL     1     -41.021 -48.643   9.071  1.00  0.00     0.188 HD
ENDROOT
BRANCH   5   9
HETATM    9  C   UNL     1     -41.419 -48.679  11.885  1.00  0.00     0.218 C 
HETATM   10  C   UNL     1     -40.275 -49.634  11.475  1.00  0.00     0.309 C 
HETATM   11  N   UNL     1     -40.761 -50.995  11.138  1.00  0.00     0.088 N 
HETATM   12  C   UNL     1     -41.525 -51.506  12.294  1.00  0.00     0.295 C 
HETATM   13  H   UNL     1     -39.950 -51.602  10.994  1.00  0.00     0.316 HD
HETATM   14  C   UNL     1     -42.666 -50.561  12.700  1.00  0.00     0.198 C 
HETATM   15  O   UNL     1     -42.202 -49.232  12.960  1.00  0.00    -0.375 OA
ENDBRANCH   5   9
BRANCH   1  16
HETATM   16  C   UNL     1     -45.155 -47.011   9.079  1.00  0.00     0.077 C 
BRANCH  16  17
HETATM   17  C   UNL     1     -46.289 -48.033   9.199  1.00  0.00     0.003 C 
HETATM   18  C   UNL     1     -46.442 -48.862   7.936  1.00  0.00     0.005 C 
ENDBRANCH  16  17
ENDBRANCH   1  16
TORSDOF 3
ENDMDL
MODEL 2
REMARK VINA RESULT:      -5.5      1.162      1.553
REMARK  3 active torsions:
REMARK  status: ('A' for Active; 'I' for Inactive)
REMARK    1  A    between atoms: C_2  and  C_3 
REMARK    2  A    between atoms: C_3  and  C_4 
REMARK    3  A    between atoms: C_8  and  C_11 
ROOT
HETATM    1  C   UNL     1     -42.848 -47.992  10.406  1.00  0.00     0.097 A 
HETATM    2  N   UNL     1     -41.799 -48.268   9.623  1.00  0.00    -0.287 N 
ATOM      3  HN  UNL     1     -41.576 -47.915   8.692  1.00  0.00     0.188 HD
HETATM    4  N   UNL     1     -41.117 -49.134  10.390  1.00  0.00    -0.285 N 
HETATM    5  C   UNL     1     -41.744 -49.350  11.585  1.00  0.00     0.128 A 
HETATM    6  N   UNL     1     -42.852 -48.635  11.616  1.00  0.00    -0.331 N 
ATOM      7  HN  UNL     1     -43.546 -48.575  12.361  1.00  0.00     0.168 HD
HETATM    8  H   UNL     1     -40.240 -49.533  10.065  1.00  0.00     0.188 HD
ENDROOT
BRANCH   5   9
HETATM    9  C   UNL     1     -41.179 -50.227  12.656  1.00  0.00     0.218 C 
HETATM   10  C   UNL     1     -40.367 -51.424  12.111  1.00  0.00     0.309 C 
HETATM   11  N   UNL     1     -41.224 -52.442  11.455  1.00  0.00     0.088 N 
HETATM   12  C   UNL     1     -42.255 -52.864  12.426  1.00  0.00     0.295 C 
HETATM   13  H   UNL     1     -40.645 -53.255  11.227  1.00  0.00     0.316 HD
HETATM   14  C   UNL     1     -43.066 -51.677  12.965  1.00  0.00     0.198 C 
HETATM   15  O   UNL     1     -42.230 -50.665  13.538  1.00  0.00    -0.375 OA
ENDBRANCH   5   9
BRANCH   1  16
HETATM   16  C   UNL     1     -43.911 -47.026  10.027  1.00  0.00     0.077 C 
BRANCH  16  17
HETATM   17  C   UNL     1     -44.657 -47.481   8.770  1.00  0.00     0.003 C 
HETATM   18  C   UNL     1     -46.096 -47.861   9.070  1.00  0.00     0.005 C 
ENDBRANCH  16  17
ENDBRANCH   1  16
TORSDOF 3
ENDMDL
MODEL 3
REMARK VINA RESULT:      -5.3      1.842      2.454
REMARK  3 active torsions:
REMARK  status: ('A' for Active; 'I' for Inactive)
REMARK    1  A    between atoms: C_2  and  C_3 
REMARK    2  A    between atoms: C_3  and  C_4 
REMARK    3  A    between atoms: C_8  and  C_11 
ROOT
HETATM    1  C   UNL     1     -44.792 -47.138   9.185  1.00  0.00     0.097 A 
HETATM    2  N   UNL     1     -44.009 -46.424   8.369  1.00  0.00    -0.287 N 
ATOM      3  HN  UNL     1     -44.269 -45.781   7.621  1.00  0.00     0.188 HD
HETATM    4  N   UNL     1     -42.787 -46.779   8.797  1.00  0.00    -0.285 N 
HETATM    5  C   UNL     1     -42.855 -47.667   9.835  1.00  0.00     0.128 A 
HETATM    6  N   UNL     1     -44.124 -47.913  10.096  1.00  0.00    -0.331 N 
ATOM      7  HN  UNL     1     -44.515 -48.532  10.807  1.00  0.00     0.168 HD
HETATM    8  H   UNL     1     -41.954 -46.388   8.365  1.00  0.00     0.188 HD
ENDROOT
BRANCH   5   9
HETATM    9  C   UNL     1     -41.646 -48.188  10.543  1.00  0.00     0.218 C 
HETATM   10  C   UNL     1     -41.978 -49.020  11.803  1.00  0.00     0.309 C 
HETATM   11  N   UNL     1     -42.512 -48.190  12.910  1.00  0.00     0.088 N 
HETATM   12  C   UNL     1     -41.532 -47.121  13.191  1.00  0.00     0.295 C 
HETATM   13  H   UNL     1     -42.595 -48.777  13.744  1.00  0.00     0.316 HD
HETATM   14  C   UNL     1     -41.204 -46.289  11.942  1.00  0.00     0.198 C 
HETATM   15  O   UNL     1     -40.753 -47.102  10.853  1.00  0.00    -0.375 OA
ENDBRANCH   5   9
BRANCH   1  16
HETATM   16  C   UNL     1     -46.275 -47.070   9.150  1.00  0.00     0.077 C 
BRANCH  16  17
HETATM   17  C   UNL     1     -46.895 -48.458   8.963  1.00  0.00     0.003 C 
HETATM   18  C   UNL     1     -46.496 -49.082   7.637  1.00  0.00     0.005 C 
ENDBRANCH  16  17
ENDBRANCH   1  16
TORSDOF 3
ENDMDL
MODEL 4
REMARK VINA RESULT:      -5.2      4.407      5.386
REMARK  3 active torsions:
REMARK  status: ('A' for Active; 'I' for Inactive)
REMARK    1  A    between atoms: C_2  and  C_3 
REMARK    2  A    between atoms: C_3  and  C_4 
REMARK    3  A    between atoms: C_8  and  C_11 
ROOT
HETATM    1  C   UNL     1     -41.923 -52.958  12.774  1.00  0.00     0.097 A 
HETATM    2  N   UNL     1     -41.818 -52.759  11.455  1.00  0.00    -0.287 N 
ATOM      3  HN  UNL     1     -42.220 -53.295  10.687  1.00  0.00     0.188 HD
HETATM    4  N   UNL     1     -41.041 -51.665  11.414  1.00  0.00    -0.285 N 
HETATM    5  C   UNL     1     -40.710 -51.234  12.669  1.00  0.00     0.128 A 
HETATM    6  N   UNL     1     -41.259 -52.046  13.551  1.00  0.00    -0.331 N 
ATOM      7  HN  UNL     1     -41.202 -52.005  14.569  1.00  0.00     0.168 HD
HETATM    8  H   UNL     1     -40.779 -51.250  10.523  1.00  0.00     0.188 HD
ENDROOT
BRANCH   5   9
HETATM    9  C   UNL     1     -39.900 -50.004  12.921  1.00  0.00     0.218 C 
HETATM   10  C   UNL     1     -39.570 -49.207  11.638  1.00  0.00     0.309 C 
HETATM   11  N   UNL     1     -38.597 -49.908  10.765  1.00  0.00     0.088 N 
HETATM   12  C   UNL     1     -37.390 -50.196  11.567  1.00  0.00     0.295 C 
HETATM   13  H   UNL     1     -38.334 -49.278  10.002  1.00  0.00     0.316 HD
HETATM   14  C   UNL     1     -37.714 -50.993  12.839  1.00  0.00     0.198 C 
HETATM   15  O   UNL     1     -38.703 -50.345  13.647  1.00  0.00    -0.375 OA
ENDBRANCH   5   9
BRANCH   1  16
HETATM   16  C   UNL     1     -42.735 -54.050  13.368  1.00  0.00     0.077 C 
BRANCH  16  17
HETATM   17  C   UNL     1     -44.187 -53.993  12.886  1.00  0.00     0.003 C 
HETATM   18  C   UNL     1     -45.091 -54.901  13.702  1.00  0.00     0.005 C 
ENDBRANCH  16  17
ENDBRANCH   1  16
TORSDOF 3
ENDMDL
MODEL 5
REMARK VINA RESULT:      -5.1      2.863      4.066
REMARK  3 active torsions:
REMARK  status: ('A' for Active; 'I' for Inactive)
REMARK    1  A    between atoms: C_2  and  C_3 
REMARK    2  A    between atoms: C_3  and  C_4 
REMARK    3  A    between atoms: C_8  and  C_11 
ROOT
HETATM    1  C   UNL     1     -43.351 -47.479   9.408  1.00  0.00     0.097 A 
HETATM    2  N   UNL     1     -42.275 -48.266   9.291  1.00  0.00    -0.287 N 
ATOM      3  HN  UNL     1     -42.098 -49.025   8.633  1.00  0.00     0.188 HD
HETATM    4  N   UNL     1     -41.490 -47.789  10.271  1.00  0.00    -0.285 N 
HETATM    5  C   UNL     1     -42.086 -46.752  10.933  1.00  0.00     0.128 A 
HETATM    6  N   UNL     1     -43.274 -46.540  10.403  1.00  0.00    -0.331 N 
ATOM      7  HN  UNL     1     -43.971 -45.843  10.669  1.00  0.00     0.168 HD
HETATM    8  H   UNL     1     -40.571 -48.189  10.437  1.00  0.00     0.188 HD
ENDROOT
BRANCH   5   9
HETATM    9  C   UNL     1     -41.415 -45.996  12.035  1.00  0.00     0.218 C 
HETATM   10  C   UNL     1     -42.095 -44.647  12.362  1.00  0.00     0.309 C 
HETATM   11  N   UNL     1     -41.909 -43.640  11.290  1.00  0.00     0.088 N 
HETATM   12  C   UNL     1     -40.458 -43.489  11.053  1.00  0.00     0.295 C 
HETATM   13  H   UNL     1     -42.275 -42.743  11.620  1.00  0.00     0.316 HD
HETATM   14  C   UNL     1     -39.781 -44.827  10.722  1.00  0.00     0.198 C 
HETATM   15  O   UNL     1     -40.019 -45.818  11.728  1.00  0.00    -0.375 OA
ENDBRANCH   5   9
BRANCH   1  16
HETATM   16  C   UNL     1     -44.526 -47.572   8.505  1.00  0.00     0.077 C 
BRANCH  16  17
HETATM   17  C   UNL     1     -45.838 -47.392   9.274  1.00  0.00     0.003 C 
HETATM   18  C   UNL     1     -46.819 -48.516   8.992  1.00  0.00     0.005 C 
ENDBRANCH  16  17
ENDBRANCH   1  16
TORSDOF 3
ENDMDL
MODEL 6
REMARK VINA RESULT:      -5.1      4.591      5.244
REMARK  3 active torsions:
REMARK  status: ('A' for Active; 'I' for Inactive)
REMARK    1  A    between atoms: C_2  and  C_3 
REMARK    2  A    between atoms: C_3  and  C_4 
REMARK    3  A    between atoms: C_8  and  C_11 
ROOT
HETATM    1  C   UNL     1     -45.240 -51.957  13.183  1.00  0.00     0.097 A 
HETATM    2  N   UNL     1     -45.086 -52.815  12.169  1.00  0.00    -0.287 N 
ATOM      3  HN  UNL     1     -45.794 -53.320  11.636  1.00  0.00     0.188 HD
HETATM    4  N   UNL     1     -43.749 -52.835  12.039  1.00  0.00    -0.285 N 
HETATM    5  C   UNL     1     -43.144 -52.008  12.944  1.00  0.00     0.128 A 
HETATM    6  N   UNL     1     -44.074 -51.441  13.686  1.00  0.00    -0.331 N 
ATOM      7  HN  UNL     1     -43.955 -50.777  14.452  1.00  0.00     0.168 HD
HETATM    8  H   UNL     1     -43.308 -53.407  11.324  1.00  0.00     0.188 HD
ENDROOT
BRANCH   5   9
HETATM    9  C   UNL     1     -41.665 -51.792  12.988  1.00  0.00     0.218 C 
HETATM   10  C   UNL     1     -40.882 -52.671  11.987  1.00  0.00     0.309 C 
HETATM   11  N   UNL     1     -40.882 -54.105  12.365  1.00  0.00     0.088 N 
HETATM   12  C   UNL     1     -40.349 -54.215  13.738  1.00  0.00     0.295 C 
HETATM   13  H   UNL     1     -40.252 -54.607  11.734  1.00  0.00     0.316 HD
HETATM   14  C   UNL     1     -41.129 -53.347  14.736  1.00  0.00     0.198 C 
HETATM   15  O   UNL     1     -41.183 -51.974  14.333  1.00  0.00    -0.375 OA
ENDBRANCH   5   9
BRANCH   1  16
HETATM   16  C   UNL     1     -46.568 -51.547  13.705  1.00  0.00     0.077 C 
BRANCH  16  17
HETATM   17  C   UNL     1     -46.906 -52.273  15.010  1.00  0.00     0.003 C 
HETATM   18  C   UNL     1     -47.234 -51.302  16.131  1.00  0.00     0.005 C 
ENDBRANCH  16  17
ENDBRANCH   1  16
TORSDOF 3
ENDMDL
MODEL 7
REMARK VINA RESULT:      -5.0      1.451      1.716
REMARK  3 active torsions:
REMARK  status: ('A' for Active; 'I' for Inactive)
REMARK    1  A    between atoms: C_2  and  C_3 
REMARK    2  A    between atoms: C_3  and  C_4 
REMARK    3  A    between atoms: C_8  and  C_11 
ROOT
HETATM    1  C   UNL     1     -42.943 -47.193   9.514  1.00  0.00     0.097 A 
HETATM    2  N   UNL     1     -41.944 -46.305   9.564  1.00  0.00    -0.287 N 
ATOM      3  HN  UNL     1     -41.877 -45.382   9.134  1.00  0.00     0.188 HD
HETATM    4  N   UNL     1     -41.052 -46.953  10.330  1.00  0.00    -0.285 N 
HETATM    5  C   UNL     1     -41.519 -48.176  10.722  1.00  0.00     0.128 A 
HETATM    6  N   UNL     1     -42.721 -48.352  10.210  1.00  0.00    -0.331 N 
ATOM      7  HN  UNL     1     -43.339 -49.159  10.308  1.00  0.00     0.168 HD
HETATM    8  H   UNL     1     -40.161 -46.521  10.563  1.00  0.00     0.188 HD
ENDROOT
BRANCH   5   9
HETATM    9  C   UNL     1     -40.756 -49.088  11.628  1.00  0.00     0.218 C 
HETATM   10  C   UNL     1     -41.384 -50.495  11.762  1.00  0.00     0.309 C 
HETATM   11  N   UNL     1     -42.657 -50.481  12.523  1.00  0.00     0.088 N 
HETATM   12  C   UNL     1     -42.395 -49.862  13.838  1.00  0.00     0.295 C 
HETATM   13  H   UNL     1     -42.953 -51.449  12.676  1.00  0.00     0.316 HD
HETATM   14  C   UNL     1     -41.776 -48.462  13.709  1.00  0.00     0.198 C 
HETATM   15  O   UNL     1     -40.583 -48.468  12.917  1.00  0.00    -0.375 OA
ENDBRANCH   5   9
BRANCH   1  16
HETATM   16  C   UNL     1     -44.222 -46.937   8.804  1.00  0.00     0.077 C 
BRANCH  16  17
HETATM   17  C   UNL     1     -45.395 -47.638   9.493  1.00  0.00     0.003 C 
HETATM   18  C   UNL     1     -46.730 -47.033   9.095  1.00  0.00     0.005 C 
ENDBRANCH  16  17
ENDBRANCH   1  16
TORSDOF 3
ENDMDL
MODEL 8
REMARK VINA RESULT:      -5.0      2.051      4.851
REMARK  3 active torsions:
REMARK  status: ('A' for Active; 'I' for Inactive)
REMARK    1  A    between atoms: C_2  and  C_3 
REMARK    2  A    between atoms: C_3  and  C_4 
REMARK    3  A    between atoms: C_8  and  C_11 
ROOT
HETATM    1  C   UNL     1     -42.122 -49.144  11.573  1.00  0.00     0.097 A 
HETATM    2  N   UNL     1     -41.155 -49.122  10.649  1.00  0.00    -0.287 N 
ATOM      3  HN  UNL     1     -40.264 -49.620  10.634  1.00  0.00     0.188 HD
HETATM    4  N   UNL     1     -41.669 -48.272   9.747  1.00  0.00    -0.285 N 
HETATM    5  C   UNL     1     -42.901 -47.817  10.128  1.00  0.00     0.128 A 
HETATM    6  N   UNL     1     -43.208 -48.357  11.292  1.00  0.00    -0.331 N 
ATOM      7  HN  UNL     1     -44.052 -48.222  11.849  1.00  0.00     0.168 HD
HETATM    8  H   UNL     1     -41.157 -48.047   8.898  1.00  0.00     0.188 HD
ENDROOT
BRANCH   5   9
HETATM    9  C   UNL     1     -43.729 -46.901   9.286  1.00  0.00     0.218 C 
HETATM   10  C   UNL     1     -45.248 -47.031   9.540  1.00  0.00     0.309 C 
HETATM   11  N   UNL     1     -45.802 -48.312   9.040  1.00  0.00     0.088 N 
HETATM   12  C   UNL     1     -45.466 -48.426   7.606  1.00  0.00     0.295 C 
HETATM   13  H   UNL     1     -46.821 -48.282   9.130  1.00  0.00     0.316 HD
HETATM   14  C   UNL     1     -43.957 -48.303   7.351  1.00  0.00     0.198 C 
HETATM   15  O   UNL     1     -43.412 -47.095   7.894  1.00  0.00    -0.375 OA
ENDBRANCH   5   9
BRANCH   1  16
HETATM   16  C   UNL     1     -42.060 -49.988  12.793  1.00  0.00     0.077 C 
BRANCH  16  17
HETATM   17  C   UNL     1     -43.245 -49.715  13.723  1.00  0.00     0.003 C 
HETATM   18  C   UNL     1     -44.219 -50.881  13.757  1.00  0.00     0.005 C 
ENDBRANCH  16  17
ENDBRANCH   1  16
TORSDOF 3
ENDMDL
MODEL 9
REMARK VINA RESULT:      -5.0      4.225      5.942
REMARK  3 active torsions:
REMARK  status: ('A' for Active; 'I' for Inactive)
REMARK    1  A    between atoms: C_2  and  C_3 
REMARK    2  A    between atoms: C_3  and  C_4 
REMARK    3  A    between atoms: C_8  and  C_11 
ROOT
HETATM    1  C   UNL     1     -40.709 -51.792  12.476  1.00  0.00     0.097 A 
HETATM    2  N   UNL     1     -41.178 -52.182  11.286  1.00  0.00    -0.287 N 
ATOM      3  HN  UNL     1     -40.749 -52.101  10.364  1.00  0.00     0.188 HD
HETATM    4  N   UNL     1     -42.365 -52.709  11.628  1.00  0.00    -0.285 N 
HETATM    5  C   UNL     1     -42.577 -52.635  12.977  1.00  0.00     0.128 A 
HETATM    6  N   UNL     1     -41.536 -52.052  13.537  1.00  0.00    -0.331 N 
ATOM      7  HN  UNL     1     -41.383 -51.842  14.524  1.00  0.00     0.168 HD
HETATM    8  H   UNL     1     -42.976 -53.108  10.921  1.00  0.00     0.188 HD
ENDROOT
BRANCH   5   9
HETATM    9  C   UNL     1     -43.793 -53.196  13.642  1.00  0.00     0.218 C 
HETATM   10  C   UNL     1     -44.927 -53.555  12.656  1.00  0.00     0.309 C 
HETATM   11  N   UNL     1     -45.565 -52.356  12.059  1.00  0.00     0.088 N 
HETATM   12  C   UNL     1     -46.039 -51.495  13.162  1.00  0.00     0.295 C 
HETATM   13  H   UNL     1     -46.378 -52.658  11.515  1.00  0.00     0.316 HD
HETATM   14  C   UNL     1     -44.912 -51.133  14.141  1.00  0.00     0.198 C 
HETATM   15  O   UNL     1     -44.254 -52.292  14.664  1.00  0.00    -0.375 OA
ENDBRANCH   5   9
BRANCH   1  16
HETATM   16  C   UNL     1     -39.373 -51.169  12.657  1.00  0.00     0.077 C 
BRANCH  16  17
HETATM   17  C   UNL     1     -39.152 -50.023  11.666  1.00  0.00     0.003 C 
HETATM   18  C   UNL     1     -37.680 -49.832  11.340  1.00  0.00     0.005 C 
ENDBRANCH  16  17
ENDBRANCH   1  16
TORSDOF 3
ENDMDL
