MODEL 1
REMARK VINA RESULT:      -6.1      0.000      0.000
REMARK  3 active torsions:
REMARK  status: ('A' for Active; 'I' for Inactive)
REMARK    1  A    between atoms: O_2  and  C_3 
REMARK    2  A    between atoms: C_6  and  N_7 
REMARK       I    between atoms: N_7  and  C_8 
REMARK       I    between atoms: C_8  and  N_10 
REMARK    3  A    between atoms: N_10  and  C_11 
ROOT
HETATM    1  N   UNL     1     -43.787 -50.278  12.487  1.00  0.00    -0.337 N 
HETATM    2  C   UNL     1     -42.883 -49.230  12.497  1.00  0.00     0.322 C 
HETATM    3  O   UNL     1     -42.513 -48.714  13.545  1.00  0.00    -0.247 OA
HETATM    4  N   UNL     1     -42.553 -48.845  11.221  1.00  0.00    -0.289 N 
HETATM    5  H   UNL     1     -43.669 -50.933  11.728  1.00  0.00     0.164 HD
HETATM    6  H   UNL     1     -43.119 -49.153  10.449  1.00  0.00     0.172 HD
ENDROOT
BRANCH   1   7
HETATM    7  C   UNL     1     -44.386 -50.758  13.765  1.00  0.00     0.099 C 
HETATM    8  C   UNL     1     -43.676 -51.993  14.359  1.00  0.00     0.064 C 
HETATM    9  C   UNL     1     -44.770 -52.915  13.740  1.00  0.00     0.067 C 
HETATM   10  C   UNL     1     -44.254 -53.563  12.450  1.00  0.00     0.047 C 
HETATM   11  C   UNL     1     -45.689 -51.622  13.635  1.00  0.00     0.004 C 
HETATM   12  C   UNL     1     -46.513 -51.519  12.350  1.00  0.00     0.020 C 
HETATM   13  C   UNL     1     -46.604 -51.371  14.850  1.00  0.00     0.020 C 
BRANCH   9  14
HETATM   14  O   UNL     1     -45.238 -53.949  14.648  1.00  0.00    -0.384 OA
HETATM   15  C   UNL     1     -45.675 -55.181  14.085  1.00  0.00     0.202 C 
ENDBRANCH   9  14
ENDBRANCH   1   7
BRANCH   4  16
HETATM   16  C   UNL     1     -41.735 -47.771  10.999  1.00  0.00     0.152 A 
HETATM   17  N   UNL     1     -40.441 -47.672  11.152  1.00  0.00    -0.346 N 
HETATM   18  C   UNL     1     -40.042 -46.383  10.875  1.00  0.00     0.097 A 
ATOM     19  HN  UNL     1     -39.822 -48.432  11.434  1.00  0.00     0.167 HD
HETATM   20  C   UNL     1     -41.048 -45.521  10.492  1.00  0.00     0.070 A 
HETATM   21  S   UNL     1     -42.543 -46.366  10.458  1.00  0.00    -0.064 SA
ENDBRANCH   4  16
TORSDOF 3
ENDMDL
MODEL 2
REMARK VINA RESULT:      -5.4      1.129      1.701
REMARK  3 active torsions:
REMARK  status: ('A' for Active; 'I' for Inactive)
REMARK    1  A    between atoms: O_2  and  C_3 
REMARK    2  A    between atoms: C_6  and  N_7 
REMARK       I    between atoms: N_7  and  C_8 
REMARK       I    between atoms: C_8  and  N_10 
REMARK    3  A    between atoms: N_10  and  C_11 
ROOT
HETATM    1  N   UNL     1     -42.653 -51.004  12.186  1.00  0.00    -0.337 N 
HETATM    2  C   UNL     1     -41.797 -49.920  12.101  1.00  0.00     0.322 C 
HETATM    3  O   UNL     1     -40.861 -49.782  12.879  1.00  0.00    -0.247 OA
HETATM    4  N   UNL     1     -42.192 -49.048  11.115  1.00  0.00    -0.289 N 
HETATM    5  H   UNL     1     -43.041 -51.309  11.305  1.00  0.00     0.164 HD
HETATM    6  H   UNL     1     -43.117 -49.124  10.729  1.00  0.00     0.172 HD
ENDROOT
BRANCH   1   7
HETATM    7  C   UNL     1     -42.490 -51.999  13.283  1.00  0.00     0.099 C 
HETATM    8  C   UNL     1     -42.957 -53.421  12.907  1.00  0.00     0.064 C 
HETATM    9  C   UNL     1     -44.316 -53.160  13.626  1.00  0.00     0.067 C 
HETATM   10  C   UNL     1     -45.403 -52.814  12.602  1.00  0.00     0.047 C 
HETATM   11  C   UNL     1     -43.589 -51.980  14.403  1.00  0.00     0.004 C 
HETATM   12  C   UNL     1     -44.428 -50.714  14.585  1.00  0.00     0.020 C 
HETATM   13  C   UNL     1     -42.963 -52.376  15.754  1.00  0.00     0.020 C 
BRANCH   9  14
HETATM   14  O   UNL     1     -44.760 -54.276  14.445  1.00  0.00    -0.384 OA
HETATM   15  C   UNL     1     -46.160 -54.518  14.537  1.00  0.00     0.202 C 
ENDBRANCH   9  14
ENDBRANCH   1   7
BRANCH   4  16
HETATM   16  C   UNL     1     -41.532 -47.867  10.914  1.00  0.00     0.152 A 
HETATM   17  N   UNL     1     -40.256 -47.605  11.016  1.00  0.00    -0.346 N 
HETATM   18  C   UNL     1     -40.042 -46.264  10.789  1.00  0.00     0.097 A 
ATOM     19  HN  UNL     1     -39.530 -48.290  11.230  1.00  0.00     0.167 HD
HETATM   20  C   UNL     1     -41.169 -45.525  10.496  1.00  0.00     0.070 A 
HETATM   21  S   UNL     1     -42.542 -46.558  10.484  1.00  0.00    -0.064 SA
ENDBRANCH   4  16
TORSDOF 3
ENDMDL
MODEL 3
REMARK VINA RESULT:      -5.4      2.825      3.523
REMARK  3 active torsions:
REMARK  status: ('A' for Active; 'I' for Inactive)
REMARK    1  A    between atoms: O_2  and  C_3 
REMARK    2  A    between atoms: C_6  and  N_7 
REMARK       I    between atoms: N_7  and  C_8 
REMARK       I    between atoms: C_8  and  N_10 
REMARK    3  A    between atoms: N_10  and  C_11 
ROOT
HETATM    1  N   UNL     1     -42.680 -51.807  12.184  1.00  0.00    -0.337 N 
HETATM    2  C   UNL     1     -41.301 -51.710  12.116  1.00  0.00     0.322 C 
HETATM    3  O   UNL     1     -40.580 -52.678  12.322  1.00  0.00    -0.247 OA
HETATM    4  N   UNL     1     -40.905 -50.418  11.868  1.00  0.00    -0.289 N 
HETATM    5  H   UNL     1     -43.181 -51.187  11.565  1.00  0.00     0.164 HD
HETATM    6  H   UNL     1     -41.563 -49.667  11.987  1.00  0.00     0.172 HD
ENDROOT
BRANCH   1   7
HETATM    7  C   UNL     1     -43.318 -53.093  12.584  1.00  0.00     0.099 C 
HETATM    8  C   UNL     1     -44.832 -53.154  12.294  1.00  0.00     0.064 C 
HETATM    9  C   UNL     1     -45.126 -52.784  13.780  1.00  0.00     0.067 C 
HETATM   10  C   UNL     1     -45.473 -51.296  13.902  1.00  0.00     0.047 C 
HETATM   11  C   UNL     1     -43.645 -53.258  14.109  1.00  0.00     0.004 C 
HETATM   12  C   UNL     1     -42.898 -52.384  15.118  1.00  0.00     0.020 C 
HETATM   13  C   UNL     1     -43.508 -54.738  14.516  1.00  0.00     0.020 C 
BRANCH   9  14
HETATM   14  O   UNL     1     -46.190 -53.579  14.374  1.00  0.00    -0.384 OA
HETATM   15  C   UNL     1     -47.106 -52.921  15.241  1.00  0.00     0.202 C 
ENDBRANCH   9  14
ENDBRANCH   1   7
BRANCH   4  16
HETATM   16  C   UNL     1     -39.579 -50.081  11.841  1.00  0.00     0.152 A 
HETATM   17  N   UNL     1     -38.722 -50.178  10.860  1.00  0.00    -0.346 N 
HETATM   18  C   UNL     1     -37.476 -49.785  11.297  1.00  0.00     0.097 A 
ATOM     19  HN  UNL     1     -38.941 -50.497   9.916  1.00  0.00     0.167 HD
HETATM   20  C   UNL     1     -37.412 -49.372  12.611  1.00  0.00     0.070 A 
HETATM   21  S   UNL     1     -38.977 -49.460  13.315  1.00  0.00    -0.064 SA
ENDBRANCH   4  16
TORSDOF 3
ENDMDL
MODEL 4
REMARK VINA RESULT:      -5.3      2.337      3.134
REMARK  3 active torsions:
REMARK  status: ('A' for Active; 'I' for Inactive)
REMARK    1  A    between atoms: O_2  and  C_3 
REMARK    2  A    between atoms: C_6  and  N_7 
REMARK       I    between atoms: N_7  and  C_8 
REMARK       I    between atoms: C_8  and  N_10 
REMARK    3  A    between atoms: N_10  and  C_11 
ROOT
HETATM    1  N   UNL     1     -41.401 -51.263  11.805  1.00  0.00    -0.337 N 
HETATM    2  C   UNL     1     -40.973 -49.957  11.646  1.00  0.00     0.322 C 
HETATM    3  O   UNL     1     -39.953 -49.548  12.185  1.00  0.00    -0.247 OA
HETATM    4  N   UNL     1     -41.865 -49.228  10.897  1.00  0.00    -0.289 N 
HETATM    5  H   UNL     1     -41.897 -51.647  11.013  1.00  0.00     0.164 HD
HETATM    6  H   UNL     1     -42.790 -49.588  10.740  1.00  0.00     0.172 HD
ENDROOT
BRANCH   1   7
HETATM    7  C   UNL     1     -40.654 -52.189  12.702  1.00  0.00     0.099 C 
HETATM    8  C   UNL     1     -40.995 -53.678  12.483  1.00  0.00     0.064 C 
HETATM    9  C   UNL     1     -41.976 -53.627  13.694  1.00  0.00     0.067 C 
HETATM   10  C   UNL     1     -43.423 -53.492  13.205  1.00  0.00     0.047 C 
HETATM   11  C   UNL     1     -41.200 -52.322  14.167  1.00  0.00     0.004 C 
HETATM   12  C   UNL     1     -42.090 -51.209  14.722  1.00  0.00     0.020 C 
HETATM   13  C   UNL     1     -40.031 -52.575  15.138  1.00  0.00     0.020 C 
BRANCH   9  14
HETATM   14  O   UNL     1     -41.869 -54.779  14.575  1.00  0.00    -0.384 OA
HETATM   15  C   UNL     1     -43.064 -55.282  15.161  1.00  0.00     0.202 C 
ENDBRANCH   9  14
ENDBRANCH   1   7
BRANCH   4  16
HETATM   16  C   UNL     1     -41.678 -47.889  10.685  1.00  0.00     0.152 A 
HETATM   17  N   UNL     1     -40.562 -47.214  10.602  1.00  0.00    -0.346 N 
HETATM   18  C   UNL     1     -40.845 -45.875  10.449  1.00  0.00     0.097 A 
ATOM     19  HN  UNL     1     -39.626 -47.617  10.645  1.00  0.00     0.167 HD
HETATM   20  C   UNL     1     -42.186 -45.555  10.398  1.00  0.00     0.070 A 
HETATM   21  S   UNL     1     -43.121 -46.990  10.524  1.00  0.00    -0.064 SA
ENDBRANCH   4  16
TORSDOF 3
ENDMDL
MODEL 5
REMARK VINA RESULT:      -5.2      4.474      6.012
REMARK  3 active torsions:
REMARK  status: ('A' for Active; 'I' for Inactive)
REMARK    1  A    between atoms: O_2  and  C_3 
REMARK    2  A    between atoms: C_6  and  N_7 
REMARK       I    between atoms: N_7  and  C_8 
REMARK       I    between atoms: C_8  and  N_10 
REMARK    3  A    between atoms: N_10  and  C_11 
ROOT
HETATM    1  N   UNL     1     -39.984 -48.856  12.319  1.00  0.00    -0.337 N 
HETATM    2  C   UNL     1     -41.196 -48.662  11.679  1.00  0.00     0.322 C 
HETATM    3  O   UNL     1     -42.191 -49.308  11.982  1.00  0.00    -0.247 OA
HETATM    4  N   UNL     1     -41.083 -47.739  10.667  1.00  0.00    -0.289 N 
HETATM    5  H   UNL     1     -39.403 -48.034  12.387  1.00  0.00     0.164 HD
HETATM    6  H   UNL     1     -40.171 -47.479  10.334  1.00  0.00     0.172 HD
ENDROOT
BRANCH   1   7
HETATM    7  C   UNL     1     -39.850 -49.919  13.354  1.00  0.00     0.099 C 
HETATM    8  C   UNL     1     -39.605 -49.373  14.777  1.00  0.00     0.064 C 
HETATM    9  C   UNL     1     -38.077 -49.634  14.609  1.00  0.00     0.067 C 
HETATM   10  C   UNL     1     -37.348 -48.330  14.264  1.00  0.00     0.047 C 
HETATM   11  C   UNL     1     -38.456 -50.635  13.434  1.00  0.00     0.004 C 
HETATM   12  C   UNL     1     -37.533 -50.580  12.216  1.00  0.00     0.020 C 
HETATM   13  C   UNL     1     -38.648 -52.102  13.863  1.00  0.00     0.020 C 
BRANCH   9  14
HETATM   14  O   UNL     1     -37.461 -50.238  15.779  1.00  0.00    -0.384 OA
HETATM   15  C   UNL     1     -36.143 -49.827  16.123  1.00  0.00     0.202 C 
ENDBRANCH   9  14
ENDBRANCH   1   7
BRANCH   4  16
HETATM   16  C   UNL     1     -42.144 -47.455   9.851  1.00  0.00     0.152 A 
HETATM   17  N   UNL     1     -42.698 -48.196   8.929  1.00  0.00    -0.346 N 
HETATM   18  C   UNL     1     -43.699 -47.484   8.306  1.00  0.00     0.097 A 
ATOM     19  HN  UNL     1     -42.430 -49.155   8.704  1.00  0.00     0.167 HD
HETATM   20  C   UNL     1     -43.903 -46.207   8.785  1.00  0.00     0.070 A 
HETATM   21  S   UNL     1     -42.814 -45.900  10.078  1.00  0.00    -0.064 SA
ENDBRANCH   4  16
TORSDOF 3
ENDMDL
MODEL 6
REMARK VINA RESULT:      -4.9      4.536      5.831
REMARK  3 active torsions:
REMARK  status: ('A' for Active; 'I' for Inactive)
REMARK    1  A    between atoms: O_2  and  C_3 
REMARK    2  A    between atoms: C_6  and  N_7 
REMARK       I    between atoms: N_7  and  C_8 
REMARK       I    between atoms: C_8  and  N_10 
REMARK    3  A    between atoms: N_10  and  C_11 
ROOT
HETATM    1  N   UNL     1     -39.959 -47.311  12.342  1.00  0.00    -0.337 N 
HETATM    2  C   UNL     1     -40.697 -46.365  11.652  1.00  0.00     0.322 C 
HETATM    3  O   UNL     1     -40.984 -46.515  10.471  1.00  0.00    -0.247 OA
HETATM    4  N   UNL     1     -40.968 -45.272  12.439  1.00  0.00    -0.289 N 
HETATM    5  H   UNL     1     -40.174 -47.382  13.326  1.00  0.00     0.164 HD
HETATM    6  H   UNL     1     -40.455 -45.139  13.294  1.00  0.00     0.172 HD
ENDROOT
BRANCH   1   7
HETATM    7  C   UNL     1     -39.436 -48.512  11.632  1.00  0.00     0.099 C 
HETATM    8  C   UNL     1     -40.409 -49.711  11.637  1.00  0.00     0.064 C 
HETATM    9  C   UNL     1     -39.626 -50.333  12.834  1.00  0.00     0.067 C 
HETATM   10  C   UNL     1     -40.363 -50.063  14.152  1.00  0.00     0.047 C 
HETATM   11  C   UNL     1     -38.411 -49.393  12.428  1.00  0.00     0.004 C 
HETATM   12  C   UNL     1     -37.660 -48.765  13.603  1.00  0.00     0.020 C 
HETATM   13  C   UNL     1     -37.397 -50.023  11.452  1.00  0.00     0.020 C 
BRANCH   9  14
HETATM   14  O   UNL     1     -39.394 -51.762  12.694  1.00  0.00    -0.384 OA
HETATM   15  C   UNL     1     -39.493 -52.570  13.861  1.00  0.00     0.202 C 
ENDBRANCH   9  14
ENDBRANCH   1   7
BRANCH   4  16
HETATM   16  C   UNL     1     -41.617 -44.181  11.931  1.00  0.00     0.152 A 
HETATM   17  N   UNL     1     -42.847 -44.076  11.503  1.00  0.00    -0.346 N 
HETATM   18  C   UNL     1     -43.058 -42.807  11.014  1.00  0.00     0.097 A 
ATOM     19  HN  UNL     1     -43.544 -44.821  11.528  1.00  0.00     0.167 HD
HETATM   20  C   UNL     1     -41.978 -41.953  11.097  1.00  0.00     0.070 A 
HETATM   21  S   UNL     1     -40.660 -42.769  11.837  1.00  0.00    -0.064 SA
ENDBRANCH   4  16
TORSDOF 3
ENDMDL
MODEL 7
REMARK VINA RESULT:      -4.8      2.743      7.142
REMARK  3 active torsions:
REMARK  status: ('A' for Active; 'I' for Inactive)
REMARK    1  A    between atoms: O_2  and  C_3 
REMARK    2  A    between atoms: C_6  and  N_7 
REMARK       I    between atoms: N_7  and  C_8 
REMARK       I    between atoms: C_8  and  N_10 
REMARK    3  A    between atoms: N_10  and  C_11 
ROOT
HETATM    1  N   UNL     1     -43.337 -49.688  12.528  1.00  0.00    -0.337 N 
HETATM    2  C   UNL     1     -44.016 -50.565  13.356  1.00  0.00     0.322 C 
HETATM    3  O   UNL     1     -44.022 -50.423  14.572  1.00  0.00    -0.247 OA
HETATM    4  N   UNL     1     -44.580 -51.591  12.638  1.00  0.00    -0.289 N 
HETATM    5  H   UNL     1     -43.749 -49.560  11.616  1.00  0.00     0.164 HD
HETATM    6  H   UNL     1     -44.285 -51.754  11.691  1.00  0.00     0.172 HD
ENDROOT
BRANCH   1   7
HETATM    7  C   UNL     1     -42.532 -48.580  13.116  1.00  0.00     0.099 C 
HETATM    8  C   UNL     1     -43.003 -47.174  12.689  1.00  0.00     0.064 C 
HETATM    9  C   UNL     1     -41.883 -47.135  11.604  1.00  0.00     0.067 C 
HETATM   10  C   UNL     1     -42.465 -47.465  10.224  1.00  0.00     0.047 C 
HETATM   11  C   UNL     1     -41.155 -48.284  12.425  1.00  0.00     0.004 C 
HETATM   12  C   UNL     1     -40.512 -49.378  11.571  1.00  0.00     0.020 C 
HETATM   13  C   UNL     1     -40.140 -47.793  13.475  1.00  0.00     0.020 C 
BRANCH   9  14
HETATM   14  O   UNL     1     -41.183 -45.862  11.541  1.00  0.00    -0.384 OA
HETATM   15  C   UNL     1     -40.409 -45.585  10.380  1.00  0.00     0.202 C 
ENDBRANCH   9  14
ENDBRANCH   1   7
BRANCH   4  16
HETATM   16  C   UNL     1     -45.231 -52.617  13.268  1.00  0.00     0.152 A 
HETATM   17  N   UNL     1     -46.307 -52.582  14.008  1.00  0.00    -0.346 N 
HETATM   18  C   UNL     1     -46.572 -53.842  14.495  1.00  0.00     0.097 A 
ATOM     19  HN  UNL     1     -46.864 -51.748  14.197  1.00  0.00     0.167 HD
HETATM   20  C   UNL     1     -45.695 -54.828  14.096  1.00  0.00     0.070 A 
HETATM   21  S   UNL     1     -44.509 -54.150  13.053  1.00  0.00    -0.064 SA
ENDBRANCH   4  16
TORSDOF 3
ENDMDL
MODEL 8
REMARK VINA RESULT:      -4.7      4.249      7.428
REMARK  3 active torsions:
REMARK  status: ('A' for Active; 'I' for Inactive)
REMARK    1  A    between atoms: O_2  and  C_3 
REMARK    2  A    between atoms: C_6  and  N_7 
REMARK       I    between atoms: N_7  and  C_8 
REMARK       I    between atoms: C_8  and  N_10 
REMARK    3  A    between atoms: N_10  and  C_11 
ROOT
HETATM    1  N   UNL     1     -39.764 -51.012  12.769  1.00  0.00    -0.337 N 
HETATM    2  C   UNL     1     -41.093 -51.368  12.618  1.00  0.00     0.322 C 
HETATM    3  O   UNL     1     -41.945 -50.543  12.316  1.00  0.00    -0.247 OA
HETATM    4  N   UNL     1     -41.290 -52.694  12.918  1.00  0.00    -0.289 N 
HETATM    5  H   UNL     1     -39.101 -51.735  12.530  1.00  0.00     0.164 HD
HETATM    6  H   UNL     1     -40.577 -53.201  13.413  1.00  0.00     0.172 HD
ENDROOT
BRANCH   1   7
HETATM    7  C   UNL     1     -39.353 -49.586  12.631  1.00  0.00     0.099 C 
HETATM    8  C   UNL     1     -37.825 -49.381  12.579  1.00  0.00     0.064 C 
HETATM    9  C   UNL     1     -37.827 -49.019  14.096  1.00  0.00     0.067 C 
HETATM   10  C   UNL     1     -37.375 -50.222  14.933  1.00  0.00     0.047 C 
HETATM   11  C   UNL     1     -39.382 -48.729  13.945  1.00  0.00     0.004 C 
HETATM   12  C   UNL     1     -40.244 -49.207  15.115  1.00  0.00     0.020 C 
HETATM   13  C   UNL     1     -39.744 -47.269  13.607  1.00  0.00     0.020 C 
BRANCH   9  14
HETATM   14  O   UNL     1     -36.998 -47.868  14.417  1.00  0.00    -0.384 OA
HETATM   15  C   UNL     1     -36.377 -47.831  15.697  1.00  0.00     0.202 C 
ENDBRANCH   9  14
ENDBRANCH   1   7
BRANCH   4  16
HETATM   16  C   UNL     1     -42.546 -53.237  12.914  1.00  0.00     0.152 A 
HETATM   17  N   UNL     1     -43.508 -53.086  12.043  1.00  0.00    -0.346 N 
HETATM   18  C   UNL     1     -44.627 -53.766  12.471  1.00  0.00     0.097 A 
ATOM     19  HN  UNL     1     -43.441 -52.548  11.179  1.00  0.00     0.167 HD
HETATM   20  C   UNL     1     -44.488 -54.445  13.663  1.00  0.00     0.070 A 
HETATM   21  S   UNL     1     -42.887 -54.240  14.254  1.00  0.00    -0.064 SA
ENDBRANCH   4  16
TORSDOF 3
ENDMDL
MODEL 9
REMARK VINA RESULT:      -4.6      3.046      3.843
REMARK  3 active torsions:
REMARK  status: ('A' for Active; 'I' for Inactive)
REMARK    1  A    between atoms: O_2  and  C_3 
REMARK    2  A    between atoms: C_6  and  N_7 
REMARK       I    between atoms: N_7  and  C_8 
REMARK       I    between atoms: C_8  and  N_10 
REMARK    3  A    between atoms: N_10  and  C_11 
ROOT
HETATM    1  N   UNL     1     -41.164 -51.412  13.748  1.00  0.00    -0.337 N 
HETATM    2  C   UNL     1     -41.842 -50.398  13.094  1.00  0.00     0.322 C 
HETATM    3  O   UNL     1     -43.051 -50.250  13.221  1.00  0.00    -0.247 OA
HETATM    4  N   UNL     1     -41.000 -49.682  12.277  1.00  0.00    -0.289 N 
HETATM    5  H   UNL     1     -40.210 -51.194  13.996  1.00  0.00     0.164 HD
HETATM    6  H   UNL     1     -40.097 -50.059  12.045  1.00  0.00     0.172 HD
ENDROOT
BRANCH   1   7
HETATM    7  C   UNL     1     -41.915 -52.397  14.575  1.00  0.00     0.099 C 
HETATM    8  C   UNL     1     -41.295 -52.642  15.967  1.00  0.00     0.064 C 
HETATM    9  C   UNL     1     -40.605 -53.932  15.427  1.00  0.00     0.067 C 
HETATM   10  C   UNL     1     -39.132 -53.656  15.106  1.00  0.00     0.047 C 
HETATM   11  C   UNL     1     -41.666 -53.911  14.244  1.00  0.00     0.004 C 
HETATM   12  C   UNL     1     -41.106 -54.278  12.869  1.00  0.00     0.020 C 
HETATM   13  C   UNL     1     -42.951 -54.720  14.504  1.00  0.00     0.020 C 
BRANCH   9  14
HETATM   14  O   UNL     1     -40.698 -55.063  16.337  1.00  0.00    -0.384 OA
HETATM   15  C   UNL     1     -39.586 -55.947  16.416  1.00  0.00     0.202 C 
ENDBRANCH   9  14
ENDBRANCH   1   7
BRANCH   4  16
HETATM   16  C   UNL     1     -41.479 -48.683  11.474  1.00  0.00     0.152 A 
HETATM   17  N   UNL     1     -42.504 -48.694  10.665  1.00  0.00    -0.346 N 
HETATM   18  C   UNL     1     -42.580 -47.489  10.002  1.00  0.00     0.097 A 
ATOM     19  HN  UNL     1     -43.149 -49.475  10.542  1.00  0.00     0.167 HD
HETATM   20  C   UNL     1     -41.612 -46.566  10.338  1.00  0.00     0.070 A 
HETATM   21  S   UNL     1     -40.585 -47.229  11.545  1.00  0.00    -0.064 SA
ENDBRANCH   4  16
TORSDOF 3
ENDMDL
