MODEL 1
REMARK VINA RESULT:      -4.5      0.000      0.000
REMARK  4 active torsions:
REMARK  status: ('A' for Active; 'I' for Inactive)
REMARK    1  A    between atoms: N_1  and  C_2 
REMARK    2  A    between atoms: C_2  and  C_3 
REMARK    3  A    between atoms: C_3  and  C_4 
REMARK    4  A    between atoms: C_7  and  C_10 
ROOT
HETATM    1  C   UNL     1     -42.649 -47.717  10.946  1.00  0.00     0.052 A 
HETATM    2  N   UNL     1     -43.751 -48.168  10.379  1.00  0.00    -0.356 N 
ATOM      3  HN  UNL     1     -44.215 -49.046  10.613  1.00  0.00     0.166 HD
HETATM    4  C   UNL     1     -44.183 -47.269   9.422  1.00  0.00     0.020 A 
HETATM    5  C   UNL     1     -43.390 -46.155   9.251  1.00  0.00     0.076 A 
HETATM    6  S   UNL     1     -42.056 -46.224  10.320  1.00  0.00    -0.087 SA
ENDROOT
BRANCH   1   7
HETATM    7  C   UNL     1     -41.931 -48.385  12.080  1.00  0.00     0.094 C 
BRANCH   7   8
HETATM    8  C   UNL     1     -41.465 -49.796  11.712  1.00  0.00     0.273 C 
BRANCH   8   9
HETATM    9  N   UNL     1     -40.564 -49.774  10.555  1.00  0.00     0.078 N 
HETATM   10  H   UNL     1     -39.627 -50.046  10.852  1.00  0.00     0.312 HD
HETATM   11  H   UNL     1     -40.482 -48.820  10.203  1.00  0.00     0.312 HD
ENDBRANCH   8   9
ENDBRANCH   7   8
ENDBRANCH   1   7
BRANCH   4  12
HETATM   12  C   UNL     1     -45.446 -47.476   8.593  1.00  0.00     0.036 A 
HETATM   13  C   UNL     1     -46.775 -47.001   9.139  1.00  0.00     0.011 A 
HETATM   14  C   UNL     1     -46.479 -48.460   9.095  1.00  0.00     0.011 A 
ENDBRANCH   4  12
TORSDOF 4
ENDMDL
MODEL 2
REMARK VINA RESULT:      -4.4      1.754      2.488
REMARK  4 active torsions:
REMARK  status: ('A' for Active; 'I' for Inactive)
REMARK    1  A    between atoms: N_1  and  C_2 
REMARK    2  A    between atoms: C_2  and  C_3 
REMARK    3  A    between atoms: C_3  and  C_4 
REMARK    4  A    between atoms: C_7  and  C_10 
ROOT
HETATM    1  C   UNL     1     -41.231 -49.105  11.152  1.00  0.00     0.052 A 
HETATM    2  N   UNL     1     -41.564 -48.622   9.971  1.00  0.00    -0.356 N 
ATOM      3  HN  UNL     1     -41.056 -48.791   9.103  1.00  0.00     0.166 HD
HETATM    4  C   UNL     1     -42.705 -47.851  10.088  1.00  0.00     0.020 A 
HETATM    5  C   UNL     1     -43.216 -47.735  11.364  1.00  0.00     0.076 A 
HETATM    6  S   UNL     1     -42.242 -48.616  12.460  1.00  0.00    -0.087 SA
ENDROOT
BRANCH   1   7
HETATM    7  C   UNL     1     -40.092 -50.046  11.405  1.00  0.00     0.094 C 
BRANCH   7   8
HETATM    8  C   UNL     1     -40.543 -51.309  12.141  1.00  0.00     0.273 C 
BRANCH   8   9
HETATM    9  N   UNL     1     -41.177 -52.261  11.222  1.00  0.00     0.078 N 
HETATM   10  H   UNL     1     -40.459 -52.848  10.797  1.00  0.00     0.312 HD
HETATM   11  H   UNL     1     -41.619 -51.755  10.455  1.00  0.00     0.312 HD
ENDBRANCH   8   9
ENDBRANCH   7   8
ENDBRANCH   1   7
BRANCH   4  12
HETATM   12  C   UNL     1     -43.372 -47.161   8.903  1.00  0.00     0.036 A 
HETATM   13  C   UNL     1     -44.688 -47.695   8.380  1.00  0.00     0.011 A 
HETATM   14  C   UNL     1     -43.443 -47.905   7.589  1.00  0.00     0.011 A 
ENDBRANCH   4  12
TORSDOF 4
ENDMDL
MODEL 3
REMARK VINA RESULT:      -4.3      1.995      2.756
REMARK  4 active torsions:
REMARK  status: ('A' for Active; 'I' for Inactive)
REMARK    1  A    between atoms: N_1  and  C_2 
REMARK    2  A    between atoms: C_2  and  C_3 
REMARK    3  A    between atoms: C_3  and  C_4 
REMARK    4  A    between atoms: C_7  and  C_10 
ROOT
HETATM    1  C   UNL     1     -40.589 -48.861  11.211  1.00  0.00     0.052 A 
HETATM    2  N   UNL     1     -41.698 -48.995  10.510  1.00  0.00    -0.356 N 
ATOM      3  HN  UNL     1     -42.099 -49.883  10.208  1.00  0.00     0.166 HD
HETATM    4  C   UNL     1     -42.236 -47.749  10.247  1.00  0.00     0.020 A 
HETATM    5  C   UNL     1     -41.516 -46.677  10.730  1.00  0.00     0.076 A 
HETATM    6  S   UNL     1     -40.117 -47.236  11.541  1.00  0.00    -0.087 SA
ENDROOT
BRANCH   1   7
HETATM    7  C   UNL     1     -39.768 -49.996  11.744  1.00  0.00     0.094 C 
BRANCH   7   8
HETATM    8  C   UNL     1     -38.277 -49.653  11.791  1.00  0.00     0.273 C 
BRANCH   8   9
HETATM    9  N   UNL     1     -37.601 -50.049  10.551  1.00  0.00     0.078 N 
HETATM   10  H   UNL     1     -38.176 -49.780   9.753  1.00  0.00     0.312 HD
HETATM   11  H   UNL     1     -37.524 -51.065  10.512  1.00  0.00     0.312 HD
ENDBRANCH   8   9
ENDBRANCH   7   8
ENDBRANCH   1   7
BRANCH   4  12
HETATM   12  C   UNL     1     -43.534 -47.546   9.474  1.00  0.00     0.036 A 
HETATM   13  C   UNL     1     -43.530 -47.695   7.968  1.00  0.00     0.011 A 
HETATM   14  C   UNL     1     -43.649 -46.338   8.572  1.00  0.00     0.011 A 
ENDBRANCH   4  12
TORSDOF 4
ENDMDL
MODEL 4
REMARK VINA RESULT:      -4.3      4.983      5.938
REMARK  4 active torsions:
REMARK  status: ('A' for Active; 'I' for Inactive)
REMARK    1  A    between atoms: N_1  and  C_2 
REMARK    2  A    between atoms: C_2  and  C_3 
REMARK    3  A    between atoms: C_3  and  C_4 
REMARK    4  A    between atoms: C_7  and  C_10 
ROOT
HETATM    1  C   UNL     1     -42.349 -52.543  12.525  1.00  0.00     0.052 A 
HETATM    2  N   UNL     1     -43.533 -51.972  12.410  1.00  0.00    -0.356 N 
ATOM      3  HN  UNL     1     -43.719 -51.100  11.915  1.00  0.00     0.166 HD
HETATM    4  C   UNL     1     -44.483 -52.734  13.064  1.00  0.00     0.020 A 
HETATM    5  C   UNL     1     -44.008 -53.866  13.691  1.00  0.00     0.076 A 
HETATM    6  S   UNL     1     -42.317 -53.990  13.462  1.00  0.00    -0.087 SA
ENDROOT
BRANCH   1   7
HETATM    7  C   UNL     1     -41.090 -52.044  11.883  1.00  0.00     0.094 C 
BRANCH   7   8
HETATM    8  C   UNL     1     -41.075 -50.519  11.757  1.00  0.00     0.273 C 
BRANCH   8   9
HETATM    9  N   UNL     1     -40.428 -50.095  10.511  1.00  0.00     0.078 N 
HETATM   10  H   UNL     1     -40.413 -49.076  10.469  1.00  0.00     0.312 HD
HETATM   11  H   UNL     1     -40.985 -50.402   9.714  1.00  0.00     0.312 HD
ENDBRANCH   8   9
ENDBRANCH   7   8
ENDBRANCH   1   7
BRANCH   4  12
HETATM   12  C   UNL     1     -45.962 -52.368  13.106  1.00  0.00     0.036 A 
HETATM   13  C   UNL     1     -46.453 -51.395  14.156  1.00  0.00     0.011 A 
HETATM   14  C   UNL     1     -46.783 -52.842  14.285  1.00  0.00     0.011 A 
ENDBRANCH   4  12
TORSDOF 4
ENDMDL
MODEL 5
REMARK VINA RESULT:      -4.2      2.695      5.096
REMARK  4 active torsions:
REMARK  status: ('A' for Active; 'I' for Inactive)
REMARK    1  A    between atoms: N_1  and  C_2 
REMARK    2  A    between atoms: C_2  and  C_3 
REMARK    3  A    between atoms: C_3  and  C_4 
REMARK    4  A    between atoms: C_7  and  C_10 
ROOT
HETATM    1  C   UNL     1     -42.939 -47.294   9.716  1.00  0.00     0.052 A 
HETATM    2  N   UNL     1     -41.844 -46.569   9.587  1.00  0.00    -0.356 N 
ATOM      3  HN  UNL     1     -41.511 -46.158   8.715  1.00  0.00     0.166 HD
HETATM    4  C   UNL     1     -41.218 -46.450  10.813  1.00  0.00     0.020 A 
HETATM    5  C   UNL     1     -41.829 -47.108  11.860  1.00  0.00     0.076 A 
HETATM    6  S   UNL     1     -43.235 -47.905  11.301  1.00  0.00    -0.087 SA
ENDROOT
BRANCH   1   7
HETATM    7  C   UNL     1     -43.917 -47.576   8.616  1.00  0.00     0.094 C 
BRANCH   7   8
HETATM    8  C   UNL     1     -45.366 -47.450   9.091  1.00  0.00     0.273 C 
BRANCH   8   9
HETATM    9  N   UNL     1     -45.910 -46.120   8.794  1.00  0.00     0.078 N 
HETATM   10  H   UNL     1     -45.234 -45.410   9.075  1.00  0.00     0.312 HD
HETATM   11  H   UNL     1     -46.742 -45.956   9.360  1.00  0.00     0.312 HD
ENDBRANCH   8   9
ENDBRANCH   7   8
ENDBRANCH   1   7
BRANCH   4  12
HETATM   12  C   UNL     1     -39.934 -45.655  11.021  1.00  0.00     0.036 A 
HETATM   13  C   UNL     1     -40.003 -44.145  11.099  1.00  0.00     0.011 A 
HETATM   14  C   UNL     1     -39.434 -44.791   9.884  1.00  0.00     0.011 A 
ENDBRANCH   4  12
TORSDOF 4
ENDMDL
MODEL 6
REMARK VINA RESULT:      -4.1      6.240      7.119
REMARK  4 active torsions:
REMARK  status: ('A' for Active; 'I' for Inactive)
REMARK    1  A    between atoms: N_1  and  C_2 
REMARK    2  A    between atoms: C_2  and  C_3 
REMARK    3  A    between atoms: C_3  and  C_4 
REMARK    4  A    between atoms: C_7  and  C_10 
ROOT
HETATM    1  C   UNL     1     -42.840 -54.005  13.783  1.00  0.00     0.052 A 
HETATM    2  N   UNL     1     -43.891 -53.352  13.326  1.00  0.00    -0.356 N 
ATOM      3  HN  UNL     1     -43.919 -52.818  12.458  1.00  0.00     0.166 HD
HETATM    4  C   UNL     1     -44.948 -53.500  14.205  1.00  0.00     0.020 A 
HETATM    5  C   UNL     1     -44.683 -54.245  15.334  1.00  0.00     0.076 A 
HETATM    6  S   UNL     1     -43.059 -54.782  15.306  1.00  0.00    -0.087 SA
ENDROOT
BRANCH   1   7
HETATM    7  C   UNL     1     -41.530 -54.135  13.064  1.00  0.00     0.094 C 
BRANCH   7   8
HETATM    8  C   UNL     1     -41.011 -52.782  12.571  1.00  0.00     0.273 C 
BRANCH   8   9
HETATM    9  N   UNL     1     -41.207 -52.633  11.125  1.00  0.00     0.078 N 
HETATM   10  H   UNL     1     -41.681 -53.460  10.762  1.00  0.00     0.312 HD
HETATM   11  H   UNL     1     -40.301 -52.599  10.658  1.00  0.00     0.312 HD
ENDBRANCH   8   9
ENDBRANCH   7   8
ENDBRANCH   1   7
BRANCH   4  12
HETATM   12  C   UNL     1     -46.324 -52.887  13.966  1.00  0.00     0.036 A 
HETATM   13  C   UNL     1     -46.515 -51.399  14.163  1.00  0.00     0.011 A 
HETATM   14  C   UNL     1     -47.085 -52.351  15.158  1.00  0.00     0.011 A 
ENDBRANCH   4  12
TORSDOF 4
ENDMDL
MODEL 7
REMARK VINA RESULT:      -3.9      1.450      4.714
REMARK  4 active torsions:
REMARK  status: ('A' for Active; 'I' for Inactive)
REMARK    1  A    between atoms: N_1  and  C_2 
REMARK    2  A    between atoms: C_2  and  C_3 
REMARK    3  A    between atoms: C_3  and  C_4 
REMARK    4  A    between atoms: C_7  and  C_10 
ROOT
HETATM    1  C   UNL     1     -43.094 -47.030   9.721  1.00  0.00     0.052 A 
HETATM    2  N   UNL     1     -42.682 -48.265   9.931  1.00  0.00    -0.356 N 
ATOM      3  HN  UNL     1     -43.166 -49.107   9.618  1.00  0.00     0.166 HD
HETATM    4  C   UNL     1     -41.494 -48.246  10.637  1.00  0.00     0.020 A 
HETATM    5  C   UNL     1     -41.027 -46.995  10.981  1.00  0.00     0.076 A 
HETATM    6  S   UNL     1     -42.102 -45.796  10.405  1.00  0.00    -0.087 SA
ENDROOT
BRANCH   1   7
HETATM    7  C   UNL     1     -44.306 -46.652   8.925  1.00  0.00     0.094 C 
BRANCH   7   8
HETATM    8  C   UNL     1     -45.486 -47.589   9.197  1.00  0.00     0.273 C 
BRANCH   8   9
HETATM    9  N   UNL     1     -45.784 -48.422   8.028  1.00  0.00     0.078 N 
HETATM   10  H   UNL     1     -46.561 -49.045   8.247  1.00  0.00     0.312 HD
HETATM   11  H   UNL     1     -44.988 -49.026   7.825  1.00  0.00     0.312 HD
ENDBRANCH   8   9
ENDBRANCH   7   8
ENDBRANCH   1   7
BRANCH   4  12
HETATM   12  C   UNL     1     -40.734 -49.509  11.028  1.00  0.00     0.036 A 
HETATM   13  C   UNL     1     -41.085 -50.214  12.320  1.00  0.00     0.011 A 
HETATM   14  C   UNL     1     -39.811 -49.448  12.224  1.00  0.00     0.011 A 
ENDBRANCH   4  12
TORSDOF 4
ENDMDL
MODEL 8
REMARK VINA RESULT:      -3.9      5.744      6.418
REMARK  4 active torsions:
REMARK  status: ('A' for Active; 'I' for Inactive)
REMARK    1  A    between atoms: N_1  and  C_2 
REMARK    2  A    between atoms: C_2  and  C_3 
REMARK    3  A    between atoms: C_3  and  C_4 
REMARK    4  A    between atoms: C_7  and  C_10 
ROOT
HETATM    1  C   UNL     1     -42.258 -53.342  13.426  1.00  0.00     0.052 A 
HETATM    2  N   UNL     1     -43.506 -53.541  13.049  1.00  0.00    -0.356 N 
ATOM      3  HN  UNL     1     -43.809 -54.227  12.358  1.00  0.00     0.166 HD
HETATM    4  C   UNL     1     -44.342 -52.678  13.734  1.00  0.00     0.020 A 
HETATM    5  C   UNL     1     -43.717 -51.813  14.607  1.00  0.00     0.076 A 
HETATM    6  S   UNL     1     -42.028 -52.080  14.578  1.00  0.00    -0.087 SA
ENDROOT
BRANCH   1   7
HETATM    7  C   UNL     1     -41.081 -54.142  12.955  1.00  0.00     0.094 C 
BRANCH   7   8
HETATM    8  C   UNL     1     -39.859 -53.949  13.856  1.00  0.00     0.273 C 
BRANCH   8   9
HETATM    9  N   UNL     1     -38.865 -55.006  13.638  1.00  0.00     0.078 N 
HETATM   10  H   UNL     1     -38.717 -55.514  14.510  1.00  0.00     0.312 HD
HETATM   11  H   UNL     1     -37.966 -54.587  13.399  1.00  0.00     0.312 HD
ENDBRANCH   8   9
ENDBRANCH   7   8
ENDBRANCH   1   7
BRANCH   4  12
HETATM   12  C   UNL     1     -45.855 -52.661  13.550  1.00  0.00     0.036 A 
HETATM   13  C   UNL     1     -46.473 -51.665  12.592  1.00  0.00     0.011 A 
HETATM   14  C   UNL     1     -46.625 -51.463  14.061  1.00  0.00     0.011 A 
ENDBRANCH   4  12
TORSDOF 4
ENDMDL
MODEL 9
REMARK VINA RESULT:      -3.9      5.914      6.784
REMARK  4 active torsions:
REMARK  status: ('A' for Active; 'I' for Inactive)
REMARK    1  A    between atoms: N_1  and  C_2 
REMARK    2  A    between atoms: C_2  and  C_3 
REMARK    3  A    between atoms: C_3  and  C_4 
REMARK    4  A    between atoms: C_7  and  C_10 
ROOT
HETATM    1  C   UNL     1     -39.491 -50.915  12.480  1.00  0.00     0.052 A 
HETATM    2  N   UNL     1     -40.296 -51.883  12.087  1.00  0.00    -0.356 N 
ATOM      3  HN  UNL     1     -40.675 -51.986  11.146  1.00  0.00     0.166 HD
HETATM    4  C   UNL     1     -40.546 -52.738  13.144  1.00  0.00     0.020 A 
HETATM    5  C   UNL     1     -39.949 -52.397  14.339  1.00  0.00     0.076 A 
HETATM    6  S   UNL     1     -39.042 -50.960  14.144  1.00  0.00    -0.087 SA
ENDROOT
BRANCH   1   7
HETATM    7  C   UNL     1     -38.940 -49.842  11.590  1.00  0.00     0.094 C 
BRANCH   7   8
HETATM    8  C   UNL     1     -37.435 -50.003  11.362  1.00  0.00     0.273 C 
BRANCH   8   9
HETATM    9  N   UNL     1     -37.122 -50.109   9.933  1.00  0.00     0.078 N 
HETATM   10  H   UNL     1     -37.977 -50.311   9.415  1.00  0.00     0.312 HD
HETATM   11  H   UNL     1     -36.503 -50.904   9.776  1.00  0.00     0.312 HD
ENDBRANCH   8   9
ENDBRANCH   7   8
ENDBRANCH   1   7
BRANCH   4  12
HETATM   12  C   UNL     1     -41.424 -53.979  13.024  1.00  0.00     0.036 A 
HETATM   13  C   UNL     1     -42.929 -53.828  13.072  1.00  0.00     0.011 A 
HETATM   14  C   UNL     1     -42.213 -54.418  14.237  1.00  0.00     0.011 A 
ENDBRANCH   4  12
TORSDOF 4
ENDMDL
