MODEL 1
REMARK VINA RESULT:      -6.8      0.000      0.000
REMARK  6 active torsions:
REMARK  status: ('A' for Active; 'I' for Inactive)
REMARK    1  A    between atoms: N_8  and  C_9 
REMARK    2  A    between atoms: C_9  and  C_10 
REMARK    3  A    between atoms: C_10  and  O_11 
REMARK    4  A    between atoms: C_10  and  C_12 
REMARK    5  A    between atoms: C_12  and  S_13 
REMARK    6  A    between atoms: S_13  and  C_14 
ROOT
HETATM    1  C   UNL     1     -41.695 -50.336  12.203  1.00  0.00     0.162 C 
ENDROOT
BRANCH   1   2
HETATM    2  N   UNL     1     -42.142 -51.701  12.426  1.00  0.00    -0.339 N 
HETATM    3  C   UNL     1     -41.376 -52.819  12.232  1.00  0.00     0.184 A 
HETATM    4  N   UNL     1     -42.004 -53.911  12.602  1.00  0.00    -0.350 N 
HETATM    5  C   UNL     1     -43.217 -53.481  13.077  1.00  0.00     0.060 A 
ATOM      6  HN  UNL     1     -41.663 -54.871  12.549  1.00  0.00     0.166 HD
HETATM    7  C   UNL     1     -44.270 -54.228  13.623  1.00  0.00     0.039 A 
HETATM    8  C   UNL     1     -43.335 -52.100  12.983  1.00  0.00     0.062 A 
HETATM    9  C   UNL     1     -45.427 -53.570  14.086  1.00  0.00    -0.054 A 
HETATM   10  C   UNL     1     -46.535 -54.393  14.685  1.00  0.00     0.049 C 
HETATM   11  C   UNL     1     -45.523 -52.165  13.991  1.00  0.00    -0.054 A 
HETATM   12  C   UNL     1     -44.474 -51.411  13.425  1.00  0.00     0.039 A 
HETATM   13  C   UNL     1     -46.742 -51.437  14.496  1.00  0.00     0.049 C 
ENDBRANCH   1   2
BRANCH   1  14
HETATM   14  C   UNL     1     -40.305 -50.235  11.547  1.00  0.00     0.146 C 
BRANCH  14  15
HETATM   15  O   UNL     1     -40.426 -49.886  10.161  1.00  0.00    -0.393 OA
HETATM   16  H   UNL     1     -41.363 -49.896   9.900  1.00  0.00     0.210 HD
ENDBRANCH  14  15
BRANCH  14  17
HETATM   17  C   UNL     1     -39.393 -49.198  12.228  1.00  0.00     0.114 C 
BRANCH  17  18
HETATM   18  S   UNL     1     -40.348 -47.851  12.994  1.00  0.00    -0.101 SA
BRANCH  18  19
HETATM   19  C   UNL     1     -40.137 -46.562  11.835  1.00  0.00     0.127 A 
HETATM   20  N   UNL     1     -40.108 -46.756  10.535  1.00  0.00    -0.288 N 
HETATM   21  N   UNL     1     -39.916 -45.575   9.839  1.00  0.00    -0.304 N 
ATOM     22  HN  UNL     1     -40.214 -47.668  10.092  1.00  0.00     0.188 HD
HETATM   23  C   UNL     1     -39.813 -44.543  10.648  1.00  0.00     0.159 A 
ATOM     24  HN  UNL     1     -39.860 -45.513   8.822  1.00  0.00     0.186 HD
HETATM   25  S   UNL     1     -39.952 -44.924  12.313  1.00  0.00    -0.057 SA
ENDBRANCH  18  19
ENDBRANCH  17  18
ENDBRANCH  14  17
ENDBRANCH   1  14
TORSDOF 6
ENDMDL
MODEL 2
REMARK VINA RESULT:      -6.5      2.129      2.224
REMARK  6 active torsions:
REMARK  status: ('A' for Active; 'I' for Inactive)
REMARK    1  A    between atoms: N_8  and  C_9 
REMARK    2  A    between atoms: C_9  and  C_10 
REMARK    3  A    between atoms: C_10  and  O_11 
REMARK    4  A    between atoms: C_10  and  C_12 
REMARK    5  A    between atoms: C_12  and  S_13 
REMARK    6  A    between atoms: S_13  and  C_14 
ROOT
HETATM    1  C   UNL     1     -40.918 -49.884  12.832  1.00  0.00     0.162 C 
ENDROOT
BRANCH   1   2
HETATM    2  N   UNL     1     -41.117 -51.317  12.956  1.00  0.00    -0.339 N 
HETATM    3  C   UNL     1     -40.116 -52.240  13.093  1.00  0.00     0.184 A 
HETATM    4  N   UNL     1     -40.589 -53.450  13.280  1.00  0.00    -0.350 N 
HETATM    5  C   UNL     1     -41.953 -53.303  13.287  1.00  0.00     0.060 A 
ATOM      6  HN  UNL     1     -40.057 -54.313  13.396  1.00  0.00     0.166 HD
HETATM    7  C   UNL     1     -42.948 -54.272  13.475  1.00  0.00     0.039 A 
HETATM    8  C   UNL     1     -42.317 -51.977  13.088  1.00  0.00     0.062 A 
HETATM    9  C   UNL     1     -44.304 -53.889  13.477  1.00  0.00    -0.054 A 
HETATM   10  C   UNL     1     -45.352 -54.946  13.700  1.00  0.00     0.049 C 
HETATM   11  C   UNL     1     -44.654 -52.535  13.285  1.00  0.00    -0.054 A 
HETATM   12  C   UNL     1     -43.656 -51.560  13.077  1.00  0.00     0.039 A 
HETATM   13  C   UNL     1     -46.096 -52.098  13.303  1.00  0.00     0.049 C 
ENDBRANCH   1   2
BRANCH   1  14
HETATM   14  C   UNL     1     -39.960 -49.484  11.695  1.00  0.00     0.146 C 
BRANCH  14  15
HETATM   15  O   UNL     1     -40.329 -50.136  10.471  1.00  0.00    -0.393 OA
HETATM   16  H   UNL     1     -40.264 -49.507   9.731  1.00  0.00     0.210 HD
ENDBRANCH  14  15
BRANCH  14  17
HETATM   17  C   UNL     1     -39.928 -47.965  11.441  1.00  0.00     0.114 C 
BRANCH  17  18
HETATM   18  S   UNL     1     -41.522 -47.177  11.829  1.00  0.00    -0.101 SA
BRANCH  18  19
HETATM   19  C   UNL     1     -42.316 -47.198  10.274  1.00  0.00     0.127 A 
HETATM   20  N   UNL     1     -42.295 -48.235   9.464  1.00  0.00    -0.288 N 
HETATM   21  N   UNL     1     -42.987 -47.991   8.292  1.00  0.00    -0.304 N 
ATOM     22  HN  UNL     1     -41.823 -49.114   9.676  1.00  0.00     0.188 HD
HETATM   23  C   UNL     1     -43.504 -46.781   8.272  1.00  0.00     0.159 A 
ATOM     24  HN  UNL     1     -43.085 -48.667   7.534  1.00  0.00     0.186 HD
HETATM   25  S   UNL     1     -43.197 -45.851   9.679  1.00  0.00    -0.057 SA
ENDBRANCH  18  19
ENDBRANCH  17  18
ENDBRANCH  14  17
ENDBRANCH   1  14
TORSDOF 6
ENDMDL
MODEL 3
REMARK VINA RESULT:      -6.4      2.209      3.191
REMARK  6 active torsions:
REMARK  status: ('A' for Active; 'I' for Inactive)
REMARK    1  A    between atoms: N_8  and  C_9 
REMARK    2  A    between atoms: C_9  and  C_10 
REMARK    3  A    between atoms: C_10  and  O_11 
REMARK    4  A    between atoms: C_10  and  C_12 
REMARK    5  A    between atoms: C_12  and  S_13 
REMARK    6  A    between atoms: S_13  and  C_14 
ROOT
HETATM    1  C   UNL     1     -41.991 -54.111  13.610  1.00  0.00     0.162 C 
ENDROOT
BRANCH   1   2
HETATM    2  N   UNL     1     -43.247 -53.420  13.376  1.00  0.00    -0.339 N 
HETATM    3  C   UNL     1     -43.847 -53.272  12.155  1.00  0.00     0.184 A 
HETATM    4  N   UNL     1     -45.019 -52.689  12.253  1.00  0.00    -0.350 N 
HETATM    5  C   UNL     1     -45.197 -52.470  13.596  1.00  0.00     0.060 A 
ATOM      6  HN  UNL     1     -45.659 -52.450  11.496  1.00  0.00     0.166 HD
HETATM    7  C   UNL     1     -46.289 -51.899  14.264  1.00  0.00     0.039 A 
HETATM    8  C   UNL     1     -44.105 -52.919  14.329  1.00  0.00     0.062 A 
HETATM    9  C   UNL     1     -46.275 -51.802  15.669  1.00  0.00    -0.054 A 
HETATM   10  C   UNL     1     -47.469 -51.202  16.364  1.00  0.00     0.049 C 
HETATM   11  C   UNL     1     -45.161 -52.274  16.397  1.00  0.00    -0.054 A 
HETATM   12  C   UNL     1     -44.053 -52.832  15.727  1.00  0.00     0.039 A 
HETATM   13  C   UNL     1     -45.132 -52.199  17.902  1.00  0.00     0.049 C 
ENDBRANCH   1   2
BRANCH   1  14
HETATM   14  C   UNL     1     -40.756 -53.351  13.092  1.00  0.00     0.146 C 
BRANCH  14  15
HETATM   15  O   UNL     1     -40.620 -53.515  11.673  1.00  0.00    -0.393 OA
HETATM   16  H   UNL     1     -39.714 -53.801  11.461  1.00  0.00     0.210 HD
ENDBRANCH  14  15
BRANCH  14  17
HETATM   17  C   UNL     1     -40.804 -51.843  13.400  1.00  0.00     0.114 C 
BRANCH  17  18
HETATM   18  S   UNL     1     -39.464 -50.936  12.567  1.00  0.00    -0.101 SA
BRANCH  18  19
HETATM   19  C   UNL     1     -40.357 -49.760  11.636  1.00  0.00     0.127 A 
HETATM   20  N   UNL     1     -40.583 -49.880  10.345  1.00  0.00    -0.288 N 
HETATM   21  N   UNL     1     -41.300 -48.808   9.843  1.00  0.00    -0.304 N 
ATOM     22  HN  UNL     1     -40.267 -50.669   9.782  1.00  0.00     0.188 HD
HETATM   23  C   UNL     1     -41.587 -47.931  10.781  1.00  0.00     0.159 A 
ATOM     24  HN  UNL     1     -41.573 -48.711   8.865  1.00  0.00     0.186 HD
HETATM   25  S   UNL     1     -41.016 -48.343  12.343  1.00  0.00    -0.057 SA
ENDBRANCH  18  19
ENDBRANCH  17  18
ENDBRANCH  14  17
ENDBRANCH   1  14
TORSDOF 6
ENDMDL
MODEL 4
REMARK VINA RESULT:      -6.4      3.073      3.714
REMARK  6 active torsions:
REMARK  status: ('A' for Active; 'I' for Inactive)
REMARK    1  A    between atoms: N_8  and  C_9 
REMARK    2  A    between atoms: C_9  and  C_10 
REMARK    3  A    between atoms: C_10  and  O_11 
REMARK    4  A    between atoms: C_10  and  C_12 
REMARK    5  A    between atoms: C_12  and  S_13 
REMARK    6  A    between atoms: S_13  and  C_14 
ROOT
HETATM    1  C   UNL     1     -42.282 -52.044  12.762  1.00  0.00     0.162 C 
ENDROOT
BRANCH   1   2
HETATM    2  N   UNL     1     -43.667 -52.411  13.003  1.00  0.00    -0.339 N 
HETATM    3  C   UNL     1     -44.349 -53.389  12.329  1.00  0.00     0.184 A 
HETATM    4  N   UNL     1     -45.553 -53.571  12.819  1.00  0.00    -0.350 N 
HETATM    5  C   UNL     1     -45.648 -52.691  13.868  1.00  0.00     0.060 A 
ATOM      6  HN  UNL     1     -46.264 -54.225  12.491  1.00  0.00     0.166 HD
HETATM    7  C   UNL     1     -46.712 -52.484  14.757  1.00  0.00     0.039 A 
HETATM    8  C   UNL     1     -44.481 -51.951  14.012  1.00  0.00     0.062 A 
HETATM    9  C   UNL     1     -46.580 -51.542  15.796  1.00  0.00    -0.054 A 
HETATM   10  C   UNL     1     -47.730 -51.352  16.749  1.00  0.00     0.049 C 
HETATM   11  C   UNL     1     -45.383 -50.806  15.932  1.00  0.00    -0.054 A 
HETATM   12  C   UNL     1     -44.318 -50.999  15.028  1.00  0.00     0.039 A 
HETATM   13  C   UNL     1     -45.211 -49.807  17.047  1.00  0.00     0.049 C 
ENDBRANCH   1   2
BRANCH   1  14
HETATM   14  C   UNL     1     -41.324 -53.246  12.681  1.00  0.00     0.146 C 
BRANCH  14  15
HETATM   15  O   UNL     1     -40.802 -53.387  11.353  1.00  0.00    -0.393 OA
HETATM   16  H   UNL     1     -40.787 -52.519  10.912  1.00  0.00     0.210 HD
ENDBRANCH  14  15
BRANCH  14  17
HETATM   17  C   UNL     1     -40.137 -53.137  13.656  1.00  0.00     0.114 C 
BRANCH  17  18
HETATM   18  S   UNL     1     -39.796 -51.411  14.120  1.00  0.00    -0.101 SA
BRANCH  18  19
HETATM   19  C   UNL     1     -38.885 -50.846  12.742  1.00  0.00     0.127 A 
HETATM   20  N   UNL     1     -39.441 -50.311  11.677  1.00  0.00    -0.288 N 
HETATM   21  N   UNL     1     -38.503 -49.959  10.723  1.00  0.00    -0.304 N 
ATOM     22  HN  UNL     1     -40.446 -50.173  11.567  1.00  0.00     0.188 HD
HETATM   23  C   UNL     1     -37.279 -50.240  11.116  1.00  0.00     0.159 A 
ATOM     24  HN  UNL     1     -38.732 -49.534   9.825  1.00  0.00     0.186 HD
HETATM   25  S   UNL     1     -37.173 -50.944  12.675  1.00  0.00    -0.057 SA
ENDBRANCH  18  19
ENDBRANCH  17  18
ENDBRANCH  14  17
ENDBRANCH   1  14
TORSDOF 6
ENDMDL
MODEL 5
REMARK VINA RESULT:      -6.2      3.490      3.939
REMARK  6 active torsions:
REMARK  status: ('A' for Active; 'I' for Inactive)
REMARK    1  A    between atoms: N_8  and  C_9 
REMARK    2  A    between atoms: C_9  and  C_10 
REMARK    3  A    between atoms: C_10  and  O_11 
REMARK    4  A    between atoms: C_10  and  C_12 
REMARK    5  A    between atoms: C_12  and  S_13 
REMARK    6  A    between atoms: S_13  and  C_14 
ROOT
HETATM    1  C   UNL     1     -41.354 -48.518  12.688  1.00  0.00     0.162 C 
ENDROOT
BRANCH   1   2
HETATM    2  N   UNL     1     -41.558 -49.911  12.331  1.00  0.00    -0.339 N 
HETATM    3  C   UNL     1     -40.649 -50.693  11.672  1.00  0.00     0.184 A 
HETATM    4  N   UNL     1     -41.058 -51.936  11.567  1.00  0.00    -0.350 N 
HETATM    5  C   UNL     1     -42.273 -51.966  12.204  1.00  0.00     0.060 A 
ATOM      6  HN  UNL     1     -40.578 -52.711  11.110  1.00  0.00     0.166 HD
HETATM    7  C   UNL     1     -43.139 -53.049  12.412  1.00  0.00     0.039 A 
HETATM    8  C   UNL     1     -42.615 -50.712  12.697  1.00  0.00     0.062 A 
HETATM    9  C   UNL     1     -44.335 -52.859  13.131  1.00  0.00    -0.054 A 
HETATM   10  C   UNL     1     -45.238 -54.042  13.357  1.00  0.00     0.049 C 
HETATM   11  C   UNL     1     -44.659 -51.580  13.633  1.00  0.00    -0.054 A 
HETATM   12  C   UNL     1     -43.800 -50.484  13.411  1.00  0.00     0.039 A 
HETATM   13  C   UNL     1     -45.923 -51.356  14.423  1.00  0.00     0.049 C 
ENDBRANCH   1   2
BRANCH   1  14
HETATM   14  C   UNL     1     -42.213 -47.533  11.873  1.00  0.00     0.146 C 
BRANCH  14  15
HETATM   15  O   UNL     1     -41.739 -46.190  12.044  1.00  0.00    -0.393 OA
HETATM   16  H   UNL     1     -42.316 -45.714  12.667  1.00  0.00     0.210 HD
ENDBRANCH  14  15
BRANCH  14  17
HETATM   17  C   UNL     1     -42.228 -47.851  10.367  1.00  0.00     0.114 C 
BRANCH  17  18
HETATM   18  S   UNL     1     -43.090 -46.566   9.409  1.00  0.00    -0.101 SA
BRANCH  18  19
HETATM   19  C   UNL     1     -44.346 -47.490   8.625  1.00  0.00     0.127 A 
HETATM   20  N   UNL     1     -44.184 -48.096   7.468  1.00  0.00    -0.288 N 
HETATM   21  N   UNL     1     -45.333 -48.747   7.058  1.00  0.00    -0.304 N 
ATOM     22  HN  UNL     1     -43.313 -48.086   6.937  1.00  0.00     0.188 HD
HETATM   23  C   UNL     1     -46.311 -48.607   7.928  1.00  0.00     0.159 A 
ATOM     24  HN  UNL     1     -45.414 -49.272   6.187  1.00  0.00     0.186 HD
HETATM   25  S   UNL     1     -45.906 -47.683   9.313  1.00  0.00    -0.057 SA
ENDBRANCH  18  19
ENDBRANCH  17  18
ENDBRANCH  14  17
ENDBRANCH   1  14
TORSDOF 6
ENDMDL
MODEL 6
REMARK VINA RESULT:      -5.9      2.176      2.508
REMARK  6 active torsions:
REMARK  status: ('A' for Active; 'I' for Inactive)
REMARK    1  A    between atoms: N_8  and  C_9 
REMARK    2  A    between atoms: C_9  and  C_10 
REMARK    3  A    between atoms: C_10  and  O_11 
REMARK    4  A    between atoms: C_10  and  C_12 
REMARK    5  A    between atoms: C_12  and  S_13 
REMARK    6  A    between atoms: S_13  and  C_14 
ROOT
HETATM    1  C   UNL     1     -41.077 -52.207  12.594  1.00  0.00     0.162 C 
ENDROOT
BRANCH   1   2
HETATM    2  N   UNL     1     -41.854 -52.174  13.821  1.00  0.00    -0.339 N 
HETATM    3  C   UNL     1     -41.326 -52.170  15.084  1.00  0.00     0.184 A 
HETATM    4  N   UNL     1     -42.256 -52.040  16.001  1.00  0.00    -0.350 N 
HETATM    5  C   UNL     1     -43.433 -51.932  15.304  1.00  0.00     0.060 A 
ATOM      6  HN  UNL     1     -42.132 -52.023  17.014  1.00  0.00     0.166 HD
HETATM    7  C   UNL     1     -44.736 -51.749  15.786  1.00  0.00     0.039 A 
HETATM    8  C   UNL     1     -43.215 -52.010  13.934  1.00  0.00     0.062 A 
HETATM    9  C   UNL     1     -45.806 -51.628  14.879  1.00  0.00    -0.054 A 
HETATM   10  C   UNL     1     -47.194 -51.413  15.423  1.00  0.00     0.049 C 
HETATM   11  C   UNL     1     -45.564 -51.699  13.490  1.00  0.00    -0.054 A 
HETATM   12  C   UNL     1     -44.256 -51.902  13.001  1.00  0.00     0.039 A 
HETATM   13  C   UNL     1     -46.689 -51.553  12.499  1.00  0.00     0.049 C 
ENDBRANCH   1   2
BRANCH   1  14
HETATM   14  C   UNL     1     -40.136 -51.000  12.419  1.00  0.00     0.146 C 
BRANCH  14  15
HETATM   15  O   UNL     1     -38.789 -51.439  12.195  1.00  0.00    -0.393 OA
HETATM   16  H   UNL     1     -38.204 -50.668  12.096  1.00  0.00     0.210 HD
ENDBRANCH  14  15
BRANCH  14  17
HETATM   17  C   UNL     1     -40.544 -50.083  11.252  1.00  0.00     0.114 C 
BRANCH  17  18
HETATM   18  S   UNL     1     -40.437 -48.322  11.702  1.00  0.00    -0.101 SA
BRANCH  18  19
HETATM   19  C   UNL     1     -41.543 -47.597  10.562  1.00  0.00     0.127 A 
HETATM   20  N   UNL     1     -41.999 -48.222   9.498  1.00  0.00    -0.288 N 
HETATM   21  N   UNL     1     -42.848 -47.424   8.752  1.00  0.00    -0.304 N 
ATOM     22  HN  UNL     1     -41.754 -49.181   9.252  1.00  0.00     0.188 HD
HETATM   23  C   UNL     1     -42.999 -46.233   9.292  1.00  0.00     0.159 A 
ATOM     24  HN  UNL     1     -43.302 -47.722   7.889  1.00  0.00     0.186 HD
HETATM   25  S   UNL     1     -42.129 -45.995  10.749  1.00  0.00    -0.057 SA
ENDBRANCH  18  19
ENDBRANCH  17  18
ENDBRANCH  14  17
ENDBRANCH   1  14
TORSDOF 6
ENDMDL
MODEL 7
REMARK VINA RESULT:      -5.8      2.360      2.989
REMARK  6 active torsions:
REMARK  status: ('A' for Active; 'I' for Inactive)
REMARK    1  A    between atoms: N_8  and  C_9 
REMARK    2  A    between atoms: C_9  and  C_10 
REMARK    3  A    between atoms: C_10  and  O_11 
REMARK    4  A    between atoms: C_10  and  C_12 
REMARK    5  A    between atoms: C_12  and  S_13 
REMARK    6  A    between atoms: S_13  and  C_14 
ROOT
HETATM    1  C   UNL     1     -41.773 -50.302  12.123  1.00  0.00     0.162 C 
ENDROOT
BRANCH   1   2
HETATM    2  N   UNL     1     -42.190 -51.672  12.364  1.00  0.00    -0.339 N 
HETATM    3  C   UNL     1     -41.412 -52.778  12.156  1.00  0.00     0.184 A 
HETATM    4  N   UNL     1     -42.010 -53.878  12.548  1.00  0.00    -0.350 N 
HETATM    5  C   UNL     1     -43.218 -53.467  13.053  1.00  0.00     0.060 A 
ATOM      6  HN  UNL     1     -41.655 -54.833  12.491  1.00  0.00     0.166 HD
HETATM    7  C   UNL     1     -44.243 -54.228  13.632  1.00  0.00     0.039 A 
HETATM    8  C   UNL     1     -43.361 -52.088  12.955  1.00  0.00     0.062 A 
HETATM    9  C   UNL     1     -45.398 -53.587  14.121  1.00  0.00    -0.054 A 
HETATM   10  C   UNL     1     -46.475 -54.426  14.755  1.00  0.00     0.049 C 
HETATM   11  C   UNL     1     -45.520 -52.185  14.022  1.00  0.00    -0.054 A 
HETATM   12  C   UNL     1     -44.499 -51.417  13.424  1.00  0.00     0.039 A 
HETATM   13  C   UNL     1     -46.737 -51.475  14.556  1.00  0.00     0.049 C 
ENDBRANCH   1   2
BRANCH   1  14
HETATM   14  C   UNL     1     -40.369 -50.178  11.502  1.00  0.00     0.146 C 
BRANCH  14  15
HETATM   15  O   UNL     1     -40.462 -49.887  10.100  1.00  0.00    -0.393 OA
HETATM   16  H   UNL     1     -41.012 -49.096   9.964  1.00  0.00     0.210 HD
ENDBRANCH  14  15
BRANCH  14  17
HETATM   17  C   UNL     1     -39.512 -49.085  12.165  1.00  0.00     0.114 C 
BRANCH  17  18
HETATM   18  S   UNL     1     -37.873 -49.709  12.653  1.00  0.00    -0.101 SA
BRANCH  18  19
HETATM   19  C   UNL     1     -37.641 -48.929  14.197  1.00  0.00     0.127 A 
HETATM   20  N   UNL     1     -37.967 -47.676  14.431  1.00  0.00    -0.288 N 
HETATM   21  N   UNL     1     -37.670 -47.297  15.728  1.00  0.00    -0.304 N 
ATOM     22  HN  UNL     1     -38.390 -47.058  13.739  1.00  0.00     0.188 HD
HETATM   23  C   UNL     1     -37.136 -48.284  16.416  1.00  0.00     0.159 A 
ATOM     24  HN  UNL     1     -37.842 -46.365  16.106  1.00  0.00     0.186 HD
HETATM   25  S   UNL     1     -36.963 -49.749  15.544  1.00  0.00    -0.057 SA
ENDBRANCH  18  19
ENDBRANCH  17  18
ENDBRANCH  14  17
ENDBRANCH   1  14
TORSDOF 6
ENDMDL
MODEL 8
REMARK VINA RESULT:      -5.7      2.661      3.576
REMARK  6 active torsions:
REMARK  status: ('A' for Active; 'I' for Inactive)
REMARK    1  A    between atoms: N_8  and  C_9 
REMARK    2  A    between atoms: C_9  and  C_10 
REMARK    3  A    between atoms: C_10  and  O_11 
REMARK    4  A    between atoms: C_10  and  C_12 
REMARK    5  A    between atoms: C_12  and  S_13 
REMARK    6  A    between atoms: S_13  and  C_14 
ROOT
HETATM    1  C   UNL     1     -41.019 -52.299  11.844  1.00  0.00     0.162 C 
ENDROOT
BRANCH   1   2
HETATM    2  N   UNL     1     -41.982 -52.936  12.725  1.00  0.00    -0.339 N 
HETATM    3  C   UNL     1     -43.338 -52.938  12.536  1.00  0.00     0.184 A 
HETATM    4  N   UNL     1     -43.955 -53.670  13.434  1.00  0.00    -0.350 N 
HETATM    5  C   UNL     1     -42.958 -54.183  14.223  1.00  0.00     0.060 A 
ATOM      6  HN  UNL     1     -44.960 -53.825  13.524  1.00  0.00     0.166 HD
HETATM    7  C   UNL     1     -43.052 -55.053  15.319  1.00  0.00     0.039 A 
HETATM    8  C   UNL     1     -41.708 -53.744  13.804  1.00  0.00     0.062 A 
HETATM    9  C   UNL     1     -41.881 -55.485  15.971  1.00  0.00    -0.054 A 
HETATM   10  C   UNL     1     -42.009 -56.433  17.133  1.00  0.00     0.049 C 
HETATM   11  C   UNL     1     -40.620 -55.036  15.524  1.00  0.00    -0.054 A 
HETATM   12  C   UNL     1     -40.521 -54.147  14.433  1.00  0.00     0.039 A 
HETATM   13  C   UNL     1     -39.351 -55.500  16.193  1.00  0.00     0.049 C 
ENDBRANCH   1   2
BRANCH   1  14
HETATM   14  C   UNL     1     -40.010 -51.394  12.574  1.00  0.00     0.146 C 
BRANCH  14  15
HETATM   15  O   UNL     1     -38.901 -51.083  11.718  1.00  0.00    -0.393 OA
HETATM   16  H   UNL     1     -38.340 -50.409  12.140  1.00  0.00     0.210 HD
ENDBRANCH  14  15
BRANCH  14  17
HETATM   17  C   UNL     1     -40.629 -50.072  13.061  1.00  0.00     0.114 C 
BRANCH  17  18
HETATM   18  S   UNL     1     -39.820 -48.625  12.310  1.00  0.00    -0.101 SA
BRANCH  18  19
HETATM   19  C   UNL     1     -41.024 -48.102  11.159  1.00  0.00     0.127 A 
HETATM   20  N   UNL     1     -41.442 -48.849  10.159  1.00  0.00    -0.288 N 
HETATM   21  N   UNL     1     -42.388 -48.199   9.387  1.00  0.00    -0.304 N 
ATOM     22  HN  UNL     1     -41.107 -49.795   9.976  1.00  0.00     0.188 HD
HETATM   23  C   UNL     1     -42.645 -46.991   9.843  1.00  0.00     0.159 A 
ATOM     24  HN  UNL     1     -42.832 -48.606   8.564  1.00  0.00     0.186 HD
HETATM   25  S   UNL     1     -41.765 -46.557  11.248  1.00  0.00    -0.057 SA
ENDBRANCH  18  19
ENDBRANCH  17  18
ENDBRANCH  14  17
ENDBRANCH   1  14
TORSDOF 6
ENDMDL
MODEL 9
REMARK VINA RESULT:      -5.6      4.422      5.663
REMARK  6 active torsions:
REMARK  status: ('A' for Active; 'I' for Inactive)
REMARK    1  A    between atoms: N_8  and  C_9 
REMARK    2  A    between atoms: C_9  and  C_10 
REMARK    3  A    between atoms: C_10  and  O_11 
REMARK    4  A    between atoms: C_10  and  C_12 
REMARK    5  A    between atoms: C_12  and  S_13 
REMARK    6  A    between atoms: S_13  and  C_14 
ROOT
HETATM    1  C   UNL     1     -42.881 -53.118  13.722  1.00  0.00     0.162 C 
ENDROOT
BRANCH   1   2
HETATM    2  N   UNL     1     -44.317 -53.142  13.937  1.00  0.00    -0.339 N 
HETATM    3  C   UNL     1     -45.182 -54.036  13.366  1.00  0.00     0.184 A 
HETATM    4  N   UNL     1     -46.407 -53.884  13.812  1.00  0.00    -0.350 N 
HETATM    5  C   UNL     1     -46.330 -52.864  14.726  1.00  0.00     0.060 A 
ATOM      6  HN  UNL     1     -47.237 -54.411  13.538  1.00  0.00     0.166 HD
HETATM    7  C   UNL     1     -47.341 -52.308  15.522  1.00  0.00     0.039 A 
HETATM    8  C   UNL     1     -45.033 -52.377  14.830  1.00  0.00     0.062 A 
HETATM    9  C   UNL     1     -47.029 -51.277  16.429  1.00  0.00    -0.054 A 
HETATM   10  C   UNL     1     -48.130 -50.710  17.285  1.00  0.00     0.049 C 
HETATM   11  C   UNL     1     -45.703 -50.803  16.527  1.00  0.00    -0.054 A 
HETATM   12  C   UNL     1     -44.686 -51.347  15.715  1.00  0.00     0.039 A 
HETATM   13  C   UNL     1     -45.341 -49.714  17.504  1.00  0.00     0.049 C 
ENDBRANCH   1   2
BRANCH   1  14
HETATM   14  C   UNL     1     -42.465 -52.562  12.347  1.00  0.00     0.146 C 
BRANCH  14  15
HETATM   15  O   UNL     1     -42.734 -51.155  12.270  1.00  0.00    -0.393 OA
HETATM   16  H   UNL     1     -42.723 -50.769  13.164  1.00  0.00     0.210 HD
ENDBRANCH  14  15
BRANCH  14  17
HETATM   17  C   UNL     1     -40.975 -52.786  12.032  1.00  0.00     0.114 C 
BRANCH  17  18
HETATM   18  S   UNL     1     -39.893 -51.954  13.236  1.00  0.00    -0.101 SA
BRANCH  18  19
HETATM   19  C   UNL     1     -39.391 -53.288  14.244  1.00  0.00     0.127 A 
HETATM   20  N   UNL     1     -38.846 -54.388  13.770  1.00  0.00    -0.288 N 
HETATM   21  N   UNL     1     -38.552 -55.295  14.773  1.00  0.00    -0.304 N 
ATOM     22  HN  UNL     1     -38.662 -54.552  12.781  1.00  0.00     0.188 HD
HETATM   23  C   UNL     1     -38.884 -54.834  15.961  1.00  0.00     0.159 A 
ATOM     24  HN  UNL     1     -38.129 -56.209  14.612  1.00  0.00     0.186 HD
HETATM   25  S   UNL     1     -39.570 -53.264  15.951  1.00  0.00    -0.057 SA
ENDBRANCH  18  19
ENDBRANCH  17  18
ENDBRANCH  14  17
ENDBRANCH   1  14
TORSDOF 6
ENDMDL
