MODEL 1
REMARK VINA RESULT:      -6.4      0.000      0.000
REMARK  5 active torsions:
REMARK  status: ('A' for Active; 'I' for Inactive)
REMARK    1  A    between atoms: N_2  and  C_3 
REMARK       I    between atoms: N_2  and  C_21 
REMARK    2  A    between atoms: C_3  and  C_4 
REMARK       I    between atoms: C_4  and  N_6 
REMARK    3  A    between atoms: N_6  and  C_7 
REMARK    4  A    between atoms: C_7  and  C_8 
REMARK    5  A    between atoms: C_11  and  N_15 
ROOT
HETATM    1  C   UNL     1     -42.604 -49.368  12.400  1.00  0.00    -0.025 A 
HETATM    2  C   UNL     1     -41.573 -50.214  12.014  1.00  0.00     0.014 A 
HETATM    3  C   UNL     1     -41.715 -51.601  12.160  1.00  0.00     0.049 A 
HETATM    4  C   UNL     1     -42.883 -52.151  12.692  1.00  0.00     0.103 A 
HETATM    5  N   UNL     1     -43.869 -51.324  13.103  1.00  0.00    -0.352 N 
ATOM      6  HN  UNL     1     -44.718 -51.703  13.523  1.00  0.00     0.166 HD
HETATM    7  C   UNL     1     -43.719 -49.981  12.951  1.00  0.00     0.098 A 
ENDROOT
BRANCH   1   8
HETATM    8  C   UNL     1     -42.530 -47.882  12.197  1.00  0.00     0.162 C 
BRANCH   8   9
HETATM    9  N   UNL     1     -43.463 -47.382  11.205  1.00  0.00    -0.355 N 
HETATM   10  C   UNL     1     -43.010 -46.604  10.154  1.00  0.00     0.235 C 
HETATM   11  O   UNL     1     -41.833 -46.260  10.048  1.00  0.00    -0.272 OA
HETATM   12  H   UNL     1     -44.444 -47.611  11.293  1.00  0.00     0.162 HD
BRANCH  10  13
HETATM   13  C   UNL     1     -44.070 -46.237   9.097  1.00  0.00     0.227 C 
BRANCH  13  14
HETATM   14  N   UNL     1     -44.576 -47.391   8.343  1.00  0.00    -0.348 N 
HETATM   15  C   UNL     1     -43.631 -48.105   7.500  1.00  0.00     0.153 C 
HETATM   16  C   UNL     1     -45.873 -47.881   8.358  1.00  0.00     0.215 C 
HETATM   17  O   UNL     1     -46.203 -48.836   7.646  1.00  0.00    -0.274 OA
HETATM   18  C   UNL     1     -46.917 -47.226   9.228  1.00  0.00     0.117 C 
ENDBRANCH  13  14
ENDBRANCH  10  13
ENDBRANCH   8   9
ENDBRANCH   1   8
BRANCH   4  19
HETATM   19  N   UNL     1     -43.024 -53.515  12.871  1.00  0.00    -0.363 N 
HETATM   20  C   UNL     1     -44.283 -54.224  12.586  1.00  0.00     0.150 C 
HETATM   21  C   UNL     1     -44.973 -54.671  13.887  1.00  0.00     0.187 C 
HETATM   22  O   UNL     1     -44.092 -55.442  14.718  1.00  0.00    -0.388 OA
HETATM   23  C   UNL     1     -42.945 -54.653  15.078  1.00  0.00     0.187 C 
HETATM   24  C   UNL     1     -42.156 -54.213  13.835  1.00  0.00     0.150 C 
ENDBRANCH   4  19
TORSDOF 5
ENDMDL
MODEL 2
REMARK VINA RESULT:      -5.9      2.979      7.664
REMARK  5 active torsions:
REMARK  status: ('A' for Active; 'I' for Inactive)
REMARK    1  A    between atoms: N_2  and  C_3 
REMARK       I    between atoms: N_2  and  C_21 
REMARK    2  A    between atoms: C_3  and  C_4 
REMARK       I    between atoms: C_4  and  N_6 
REMARK    3  A    between atoms: N_6  and  C_7 
REMARK    4  A    between atoms: C_7  and  C_8 
REMARK    5  A    between atoms: C_11  and  N_15 
ROOT
HETATM    1  C   UNL     1     -41.548 -50.305  11.973  1.00  0.00    -0.025 A 
HETATM    2  C   UNL     1     -42.608 -49.427  12.164  1.00  0.00     0.014 A 
HETATM    3  C   UNL     1     -42.518 -48.111  11.691  1.00  0.00     0.049 A 
HETATM    4  C   UNL     1     -41.375 -47.663  11.028  1.00  0.00     0.103 A 
HETATM    5  N   UNL     1     -40.330 -48.507  10.877  1.00  0.00    -0.352 N 
ATOM      6  HN  UNL     1     -39.474 -48.190  10.423  1.00  0.00     0.166 HD
HETATM    7  C   UNL     1     -40.432 -49.782  11.337  1.00  0.00     0.098 A 
ENDROOT
BRANCH   1   8
HETATM    8  C   UNL     1     -41.623 -51.744  12.397  1.00  0.00     0.162 C 
BRANCH   8   9
HETATM    9  N   UNL     1     -42.958 -52.307  12.313  1.00  0.00    -0.355 N 
HETATM   10  C   UNL     1     -43.230 -53.536  12.887  1.00  0.00     0.235 C 
HETATM   11  O   UNL     1     -42.361 -54.218  13.430  1.00  0.00    -0.272 OA
HETATM   12  H   UNL     1     -43.681 -51.789  11.833  1.00  0.00     0.162 HD
BRANCH  10  13
HETATM   13  C   UNL     1     -44.708 -53.974  12.845  1.00  0.00     0.227 C 
BRANCH  13  14
HETATM   14  N   UNL     1     -45.511 -53.449  13.956  1.00  0.00    -0.348 N 
HETATM   15  C   UNL     1     -45.390 -54.117  15.242  1.00  0.00     0.153 C 
HETATM   16  C   UNL     1     -46.374 -52.365  13.910  1.00  0.00     0.215 C 
HETATM   17  O   UNL     1     -47.039 -52.035  14.898  1.00  0.00    -0.274 OA
HETATM   18  C   UNL     1     -46.541 -51.588  12.628  1.00  0.00     0.117 C 
ENDBRANCH  13  14
ENDBRANCH  10  13
ENDBRANCH   8   9
ENDBRANCH   1   8
BRANCH   4  19
HETATM   19  N   UNL     1     -41.261 -46.358  10.583  1.00  0.00    -0.363 N 
HETATM   20  C   UNL     1     -39.970 -45.652  10.521  1.00  0.00     0.150 C 
HETATM   21  C   UNL     1     -39.879 -44.568  11.609  1.00  0.00     0.187 C 
HETATM   22  O   UNL     1     -40.994 -43.666  11.555  1.00  0.00    -0.388 OA
HETATM   23  C   UNL     1     -42.220 -44.390  11.758  1.00  0.00     0.187 C 
HETATM   24  C   UNL     1     -42.425 -45.458  10.673  1.00  0.00     0.150 C 
ENDBRANCH   4  19
TORSDOF 5
ENDMDL
MODEL 3
REMARK VINA RESULT:      -5.9      3.069      7.314
REMARK  5 active torsions:
REMARK  status: ('A' for Active; 'I' for Inactive)
REMARK    1  A    between atoms: N_2  and  C_3 
REMARK       I    between atoms: N_2  and  C_21 
REMARK    2  A    between atoms: C_3  and  C_4 
REMARK       I    between atoms: C_4  and  N_6 
REMARK    3  A    between atoms: N_6  and  C_7 
REMARK    4  A    between atoms: C_7  and  C_8 
REMARK    5  A    between atoms: C_11  and  N_15 
ROOT
HETATM    1  C   UNL     1     -41.796 -52.795  13.112  1.00  0.00    -0.025 A 
HETATM    2  C   UNL     1     -41.934 -51.623  13.844  1.00  0.00     0.014 A 
HETATM    3  C   UNL     1     -41.585 -50.394  13.269  1.00  0.00     0.049 A 
HETATM    4  C   UNL     1     -41.096 -50.326  11.963  1.00  0.00     0.103 A 
HETATM    5  N   UNL     1     -40.925 -51.471  11.266  1.00  0.00    -0.352 N 
ATOM      6  HN  UNL     1     -40.541 -51.446  10.321  1.00  0.00     0.166 HD
HETATM    7  C   UNL     1     -41.272 -52.656  11.835  1.00  0.00     0.098 A 
ENDROOT
BRANCH   1   8
HETATM    8  C   UNL     1     -42.223 -54.127  13.657  1.00  0.00     0.162 C 
BRANCH   8   9
HETATM    9  N   UNL     1     -43.508 -54.097  14.329  1.00  0.00    -0.355 N 
HETATM   10  C   UNL     1     -44.675 -54.277  13.606  1.00  0.00     0.235 C 
HETATM   11  O   UNL     1     -44.679 -54.408  12.383  1.00  0.00    -0.272 OA
HETATM   12  H   UNL     1     -43.538 -53.944  15.328  1.00  0.00     0.162 HD
BRANCH  10  13
HETATM   13  C   UNL     1     -45.967 -54.350  14.443  1.00  0.00     0.227 C 
BRANCH  13  14
HETATM   14  N   UNL     1     -46.093 -53.270  15.430  1.00  0.00    -0.348 N 
HETATM   15  C   UNL     1     -45.896 -53.616  16.828  1.00  0.00     0.153 C 
HETATM   16  C   UNL     1     -46.375 -51.939  15.164  1.00  0.00     0.215 C 
HETATM   17  O   UNL     1     -46.504 -51.118  16.079  1.00  0.00    -0.274 OA
HETATM   18  C   UNL     1     -46.564 -51.477  13.741  1.00  0.00     0.117 C 
ENDBRANCH  13  14
ENDBRANCH  10  13
ENDBRANCH   8   9
ENDBRANCH   1   8
BRANCH   4  19
HETATM   19  N   UNL     1     -40.719 -49.123  11.393  1.00  0.00    -0.363 N 
HETATM   20  C   UNL     1     -39.567 -48.344  11.878  1.00  0.00     0.150 C 
HETATM   21  C   UNL     1     -40.027 -47.071  12.609  1.00  0.00     0.187 C 
HETATM   22  O   UNL     1     -40.913 -46.284  11.800  1.00  0.00    -0.388 OA
HETATM   23  C   UNL     1     -42.085 -47.049  11.470  1.00  0.00     0.187 C 
HETATM   24  C   UNL     1     -41.723 -48.315  10.678  1.00  0.00     0.150 C 
ENDBRANCH   4  19
TORSDOF 5
ENDMDL
MODEL 4
REMARK VINA RESULT:      -5.9      4.618      6.180
REMARK  5 active torsions:
REMARK  status: ('A' for Active; 'I' for Inactive)
REMARK    1  A    between atoms: N_2  and  C_3 
REMARK       I    between atoms: N_2  and  C_21 
REMARK    2  A    between atoms: C_3  and  C_4 
REMARK       I    between atoms: C_4  and  N_6 
REMARK    3  A    between atoms: N_6  and  C_7 
REMARK    4  A    between atoms: C_7  and  C_8 
REMARK    5  A    between atoms: C_11  and  N_15 
ROOT
HETATM    1  C   UNL     1     -40.595 -53.790  13.892  1.00  0.00    -0.025 A 
HETATM    2  C   UNL     1     -41.422 -54.407  14.822  1.00  0.00     0.014 A 
HETATM    3  C   UNL     1     -42.798 -54.507  14.574  1.00  0.00     0.049 A 
HETATM    4  C   UNL     1     -43.356 -53.995  13.401  1.00  0.00     0.103 A 
HETATM    5  N   UNL     1     -42.554 -53.361  12.516  1.00  0.00    -0.352 N 
ATOM      6  HN  UNL     1     -42.946 -52.953  11.667  1.00  0.00     0.166 HD
HETATM    7  C   UNL     1     -41.221 -53.274  12.767  1.00  0.00     0.098 A 
ENDROOT
BRANCH   1   8
HETATM    8  C   UNL     1     -39.106 -53.721  14.077  1.00  0.00     0.162 C 
BRANCH   8   9
HETATM    9  N   UNL     1     -38.542 -52.417  13.785  1.00  0.00    -0.355 N 
HETATM   10  C   UNL     1     -38.446 -51.463  14.783  1.00  0.00     0.235 C 
HETATM   11  O   UNL     1     -38.877 -51.652  15.921  1.00  0.00    -0.272 OA
HETATM   12  H   UNL     1     -38.222 -52.217  12.847  1.00  0.00     0.162 HD
BRANCH  10  13
HETATM   13  C   UNL     1     -37.717 -50.163  14.388  1.00  0.00     0.227 C 
BRANCH  13  14
HETATM   14  N   UNL     1     -38.547 -49.234  13.611  1.00  0.00    -0.348 N 
HETATM   15  C   UNL     1     -39.499 -48.416  14.344  1.00  0.00     0.153 C 
HETATM   16  C   UNL     1     -38.510 -49.047  12.238  1.00  0.00     0.215 C 
HETATM   17  O   UNL     1     -39.289 -48.268  11.678  1.00  0.00    -0.274 OA
HETATM   18  C   UNL     1     -37.531 -49.828  11.396  1.00  0.00     0.117 C 
ENDBRANCH  13  14
ENDBRANCH  10  13
ENDBRANCH   8   9
ENDBRANCH   1   8
BRANCH   4  19
HETATM   19  N   UNL     1     -44.715 -54.060  13.157  1.00  0.00    -0.363 N 
HETATM   20  C   UNL     1     -45.496 -52.895  12.709  1.00  0.00     0.150 C 
HETATM   21  C   UNL     1     -46.414 -52.378  13.831  1.00  0.00     0.187 C 
HETATM   22  O   UNL     1     -47.248 -53.420  14.358  1.00  0.00    -0.388 OA
HETATM   23  C   UNL     1     -46.432 -54.470  14.906  1.00  0.00     0.187 C 
HETATM   24  C   UNL     1     -45.523 -55.090  13.834  1.00  0.00     0.150 C 
ENDBRANCH   4  19
TORSDOF 5
ENDMDL
MODEL 5
REMARK VINA RESULT:      -5.7      2.795      3.769
REMARK  5 active torsions:
REMARK  status: ('A' for Active; 'I' for Inactive)
REMARK    1  A    between atoms: N_2  and  C_3 
REMARK       I    between atoms: N_2  and  C_21 
REMARK    2  A    between atoms: C_3  and  C_4 
REMARK       I    between atoms: C_4  and  N_6 
REMARK    3  A    between atoms: N_6  and  C_7 
REMARK    4  A    between atoms: C_7  and  C_8 
REMARK    5  A    between atoms: C_11  and  N_15 
ROOT
HETATM    1  C   UNL     1     -41.275 -50.836  12.328  1.00  0.00    -0.025 A 
HETATM    2  C   UNL     1     -42.351 -50.302  13.026  1.00  0.00     0.014 A 
HETATM    3  C   UNL     1     -43.528 -51.048  13.173  1.00  0.00     0.049 A 
HETATM    4  C   UNL     1     -43.641 -52.327  12.625  1.00  0.00     0.103 A 
HETATM    5  N   UNL     1     -42.607 -52.829  11.913  1.00  0.00    -0.352 N 
ATOM      6  HN  UNL     1     -42.680 -53.749  11.479  1.00  0.00     0.166 HD
HETATM    7  C   UNL     1     -41.470 -52.096  11.782  1.00  0.00     0.098 A 
ENDROOT
BRANCH   1   8
HETATM    8  C   UNL     1     -39.968 -50.107  12.205  1.00  0.00     0.162 C 
BRANCH   8   9
HETATM    9  N   UNL     1     -40.028 -48.946  11.336  1.00  0.00    -0.355 N 
HETATM   10  C   UNL     1     -40.101 -47.675  11.879  1.00  0.00     0.235 C 
HETATM   11  O   UNL     1     -40.177 -47.480  13.092  1.00  0.00    -0.272 OA
HETATM   12  H   UNL     1     -40.015 -49.080  10.334  1.00  0.00     0.162 HD
BRANCH  10  13
HETATM   13  C   UNL     1     -40.033 -46.517  10.864  1.00  0.00     0.227 C 
BRANCH  13  14
HETATM   14  N   UNL     1     -41.306 -45.807  10.692  1.00  0.00    -0.348 N 
HETATM   15  C   UNL     1     -42.461 -46.594  10.290  1.00  0.00     0.153 C 
HETATM   16  C   UNL     1     -41.527 -44.452  10.884  1.00  0.00     0.215 C 
HETATM   17  O   UNL     1     -42.634 -43.948  10.666  1.00  0.00    -0.274 OA
HETATM   18  C   UNL     1     -40.397 -43.560  11.334  1.00  0.00     0.117 C 
ENDBRANCH  13  14
ENDBRANCH  10  13
ENDBRANCH   8   9
ENDBRANCH   1   8
BRANCH   4  19
HETATM   19  N   UNL     1     -44.807 -53.062  12.736  1.00  0.00    -0.363 N 
HETATM   20  C   UNL     1     -46.137 -52.433  12.787  1.00  0.00     0.150 C 
HETATM   21  C   UNL     1     -46.744 -52.536  14.198  1.00  0.00     0.187 C 
HETATM   22  O   UNL     1     -46.767 -53.892  14.670  1.00  0.00    -0.388 OA
HETATM   23  C   UNL     1     -45.427 -54.411  14.729  1.00  0.00     0.187 C 
HETATM   24  C   UNL     1     -44.761 -54.404  13.344  1.00  0.00     0.150 C 
ENDBRANCH   4  19
TORSDOF 5
ENDMDL
MODEL 6
REMARK VINA RESULT:      -5.6      3.078      7.915
REMARK  5 active torsions:
REMARK  status: ('A' for Active; 'I' for Inactive)
REMARK    1  A    between atoms: N_2  and  C_3 
REMARK       I    between atoms: N_2  and  C_21 
REMARK    2  A    between atoms: C_3  and  C_4 
REMARK       I    between atoms: C_4  and  N_6 
REMARK    3  A    between atoms: N_6  and  C_7 
REMARK    4  A    between atoms: C_7  and  C_8 
REMARK    5  A    between atoms: C_11  and  N_15 
ROOT
HETATM    1  C   UNL     1     -40.112 -49.616  12.553  1.00  0.00    -0.025 A 
HETATM    2  C   UNL     1     -39.687 -48.404  13.082  1.00  0.00     0.014 A 
HETATM    3  C   UNL     1     -39.926 -47.214  12.382  1.00  0.00     0.049 A 
HETATM    4  C   UNL     1     -40.588 -47.225  11.153  1.00  0.00     0.103 A 
HETATM    5  N   UNL     1     -40.966 -48.408  10.621  1.00  0.00    -0.352 N 
ATOM      6  HN  UNL     1     -41.424 -48.441   9.711  1.00  0.00     0.166 HD
HETATM    7  C   UNL     1     -40.731 -49.555  11.313  1.00  0.00     0.098 A 
ENDROOT
BRANCH   1   8
HETATM    8  C   UNL     1     -39.944 -50.910  13.297  1.00  0.00     0.162 C 
BRANCH   8   9
HETATM    9  N   UNL     1     -41.091 -51.267  14.110  1.00  0.00    -0.355 N 
HETATM   10  C   UNL     1     -42.024 -52.173  13.636  1.00  0.00     0.235 C 
HETATM   11  O   UNL     1     -41.957 -52.659  12.508  1.00  0.00    -0.272 OA
HETATM   12  H   UNL     1     -41.197 -50.847  15.024  1.00  0.00     0.162 HD
BRANCH  10  13
HETATM   13  C   UNL     1     -43.129 -52.569  14.636  1.00  0.00     0.227 C 
BRANCH  13  14
HETATM   14  N   UNL     1     -43.820 -53.817  14.287  1.00  0.00    -0.348 N 
HETATM   15  C   UNL     1     -43.304 -55.049  14.859  1.00  0.00     0.153 C 
HETATM   16  C   UNL     1     -44.932 -53.942  13.468  1.00  0.00     0.215 C 
HETATM   17  O   UNL     1     -45.408 -55.051  13.203  1.00  0.00    -0.274 OA
HETATM   18  C   UNL     1     -45.559 -52.715  12.854  1.00  0.00     0.117 C 
ENDBRANCH  13  14
ENDBRANCH  10  13
ENDBRANCH   8   9
ENDBRANCH   1   8
BRANCH   4  19
HETATM   19  N   UNL     1     -40.803 -46.061  10.437  1.00  0.00    -0.363 N 
HETATM   20  C   UNL     1     -39.781 -45.009  10.309  1.00  0.00     0.150 C 
HETATM   21  C   UNL     1     -40.160 -43.765  11.132  1.00  0.00     0.187 C 
HETATM   22  O   UNL     1     -41.473 -43.289  10.800  1.00  0.00    -0.388 OA
HETATM   23  C   UNL     1     -42.448 -44.310  11.074  1.00  0.00     0.187 C 
HETATM   24  C   UNL     1     -42.181 -45.575  10.243  1.00  0.00     0.150 C 
ENDBRANCH   4  19
TORSDOF 5
ENDMDL
MODEL 7
REMARK VINA RESULT:      -5.3      2.595      7.795
REMARK  5 active torsions:
REMARK  status: ('A' for Active; 'I' for Inactive)
REMARK    1  A    between atoms: N_2  and  C_3 
REMARK       I    between atoms: N_2  and  C_21 
REMARK    2  A    between atoms: C_3  and  C_4 
REMARK       I    between atoms: C_4  and  N_6 
REMARK    3  A    between atoms: N_6  and  C_7 
REMARK    4  A    between atoms: C_7  and  C_8 
REMARK    5  A    between atoms: C_11  and  N_15 
ROOT
HETATM    1  C   UNL     1     -40.309 -51.772  12.865  1.00  0.00    -0.025 A 
HETATM    2  C   UNL     1     -39.285 -50.846  12.708  1.00  0.00     0.014 A 
HETATM    3  C   UNL     1     -39.532 -49.637  12.044  1.00  0.00     0.049 A 
HETATM    4  C   UNL     1     -40.798 -49.345  11.532  1.00  0.00     0.103 A 
HETATM    5  N   UNL     1     -41.782 -50.263  11.652  1.00  0.00    -0.352 N 
ATOM      6  HN  UNL     1     -42.706 -50.083  11.259  1.00  0.00     0.166 HD
HETATM    7  C   UNL     1     -41.529 -51.430  12.303  1.00  0.00     0.098 A 
ENDROOT
BRANCH   1   8
HETATM    8  C   UNL     1     -40.114 -53.049  13.632  1.00  0.00     0.162 C 
BRANCH   8   9
HETATM    9  N   UNL     1     -41.351 -53.751  13.919  1.00  0.00    -0.355 N 
HETATM   10  C   UNL     1     -41.441 -54.575  15.027  1.00  0.00     0.235 C 
HETATM   11  O   UNL     1     -40.482 -54.791  15.768  1.00  0.00    -0.272 OA
HETATM   12  H   UNL     1     -42.141 -53.628  13.300  1.00  0.00     0.162 HD
BRANCH  10  13
HETATM   13  C   UNL     1     -42.838 -55.167  15.300  1.00  0.00     0.227 C 
BRANCH  13  14
HETATM   14  N   UNL     1     -43.885 -54.153  15.473  1.00  0.00    -0.348 N 
HETATM   15  C   UNL     1     -43.649 -53.110  16.459  1.00  0.00     0.153 C 
HETATM   16  C   UNL     1     -45.084 -54.079  14.781  1.00  0.00     0.215 C 
HETATM   17  O   UNL     1     -45.918 -53.205  15.040  1.00  0.00    -0.274 OA
HETATM   18  C   UNL     1     -45.404 -55.097  13.716  1.00  0.00     0.117 C 
ENDBRANCH  13  14
ENDBRANCH  10  13
ENDBRANCH   8   9
ENDBRANCH   1   8
BRANCH   4  19
HETATM   19  N   UNL     1     -41.048 -48.170  10.848  1.00  0.00    -0.363 N 
HETATM   20  C   UNL     1     -40.444 -46.884  11.235  1.00  0.00     0.150 C 
HETATM   21  C   UNL     1     -41.491 -45.945  11.858  1.00  0.00     0.187 C 
HETATM   22  O   UNL     1     -42.628 -45.772  10.999  1.00  0.00    -0.388 OA
HETATM   23  C   UNL     1     -43.261 -47.043  10.765  1.00  0.00     0.187 C 
HETATM   24  C   UNL     1     -42.301 -48.030  10.084  1.00  0.00     0.150 C 
ENDBRANCH   4  19
TORSDOF 5
ENDMDL
MODEL 8
REMARK VINA RESULT:      -5.3      3.207      4.948
REMARK  5 active torsions:
REMARK  status: ('A' for Active; 'I' for Inactive)
REMARK    1  A    between atoms: N_2  and  C_3 
REMARK       I    between atoms: N_2  and  C_21 
REMARK    2  A    between atoms: C_3  and  C_4 
REMARK       I    between atoms: C_4  and  N_6 
REMARK    3  A    between atoms: N_6  and  C_7 
REMARK    4  A    between atoms: C_7  and  C_8 
REMARK    5  A    between atoms: C_11  and  N_15 
ROOT
HETATM    1  C   UNL     1     -42.153 -48.234  10.941  1.00  0.00    -0.025 A 
HETATM    2  C   UNL     1     -41.018 -49.035  10.911  1.00  0.00     0.014 A 
HETATM    3  C   UNL     1     -40.945 -50.173  11.726  1.00  0.00     0.049 A 
HETATM    4  C   UNL     1     -41.999 -50.518  12.575  1.00  0.00     0.103 A 
HETATM    5  N   UNL     1     -43.085 -49.716  12.631  1.00  0.00    -0.352 N 
ATOM      6  HN  UNL     1     -43.853 -49.933  13.266  1.00  0.00     0.166 HD
HETATM    7  C   UNL     1     -43.144 -48.618  11.832  1.00  0.00     0.098 A 
ENDROOT
BRANCH   1   8
HETATM    8  C   UNL     1     -42.310 -47.047  10.036  1.00  0.00     0.162 C 
BRANCH   8   9
HETATM    9  N   UNL     1     -41.207 -46.107  10.110  1.00  0.00    -0.355 N 
HETATM   10  C   UNL     1     -41.327 -44.952  10.863  1.00  0.00     0.235 C 
HETATM   11  O   UNL     1     -42.370 -44.647  11.441  1.00  0.00    -0.272 OA
HETATM   12  H   UNL     1     -40.353 -46.309   9.607  1.00  0.00     0.162 HD
BRANCH  10  13
HETATM   13  C   UNL     1     -40.050 -44.095  10.969  1.00  0.00     0.227 C 
BRANCH  13  14
HETATM   14  N   UNL     1     -39.726 -43.686  12.342  1.00  0.00    -0.348 N 
HETATM   15  C   UNL     1     -39.087 -44.671  13.199  1.00  0.00     0.153 C 
HETATM   16  C   UNL     1     -39.960 -42.443  12.909  1.00  0.00     0.215 C 
HETATM   17  O   UNL     1     -39.687 -42.220  14.093  1.00  0.00    -0.274 OA
HETATM   18  C   UNL     1     -40.589 -41.345  12.087  1.00  0.00     0.117 C 
ENDBRANCH  13  14
ENDBRANCH  10  13
ENDBRANCH   8   9
ENDBRANCH   1   8
BRANCH   4  19
HETATM   19  N   UNL     1     -41.927 -51.621  13.406  1.00  0.00    -0.363 N 
HETATM   20  C   UNL     1     -40.714 -52.447  13.524  1.00  0.00     0.150 C 
HETATM   21  C   UNL     1     -40.910 -53.818  12.853  1.00  0.00     0.187 C 
HETATM   22  O   UNL     1     -42.075 -54.491  13.352  1.00  0.00    -0.388 OA
HETATM   23  C   UNL     1     -43.248 -53.701  13.088  1.00  0.00     0.187 C 
HETATM   24  C   UNL     1     -43.165 -52.330  13.776  1.00  0.00     0.150 C 
ENDBRANCH   4  19
TORSDOF 5
ENDMDL
MODEL 9
REMARK VINA RESULT:      -5.2      3.494      4.356
REMARK  5 active torsions:
REMARK  status: ('A' for Active; 'I' for Inactive)
REMARK    1  A    between atoms: N_2  and  C_3 
REMARK       I    between atoms: N_2  and  C_21 
REMARK    2  A    between atoms: C_3  and  C_4 
REMARK       I    between atoms: C_4  and  N_6 
REMARK    3  A    between atoms: N_6  and  C_7 
REMARK    4  A    between atoms: C_7  and  C_8 
REMARK    5  A    between atoms: C_11  and  N_15 
ROOT
HETATM    1  C   UNL     1     -40.043 -51.420  12.507  1.00  0.00    -0.025 A 
HETATM    2  C   UNL     1     -39.876 -52.192  13.650  1.00  0.00     0.014 A 
HETATM    3  C   UNL     1     -40.845 -53.144  13.998  1.00  0.00     0.049 A 
HETATM    4  C   UNL     1     -41.983 -53.330  13.211  1.00  0.00     0.103 A 
HETATM    5  N   UNL     1     -42.162 -52.552  12.120  1.00  0.00    -0.352 N 
ATOM      6  HN  UNL     1     -43.000 -52.651  11.549  1.00  0.00     0.166 HD
HETATM    7  C   UNL     1     -41.212 -51.636  11.793  1.00  0.00     0.098 A 
ENDROOT
BRANCH   1   8
HETATM    8  C   UNL     1     -39.000 -50.440  12.053  1.00  0.00     0.162 C 
BRANCH   8   9
HETATM    9  N   UNL     1     -39.550 -49.263  11.406  1.00  0.00    -0.355 N 
HETATM   10  C   UNL     1     -39.665 -48.075  12.107  1.00  0.00     0.235 C 
HETATM   11  O   UNL     1     -39.369 -47.980  13.298  1.00  0.00    -0.272 OA
HETATM   12  H   UNL     1     -39.845 -49.324  10.441  1.00  0.00     0.162 HD
BRANCH  10  13
HETATM   13  C   UNL     1     -40.143 -46.864  11.282  1.00  0.00     0.227 C 
BRANCH  13  14
HETATM   14  N   UNL     1     -40.997 -45.936  12.035  1.00  0.00    -0.348 N 
HETATM   15  C   UNL     1     -42.409 -46.264  12.140  1.00  0.00     0.153 C 
HETATM   16  C   UNL     1     -40.590 -44.774  12.672  1.00  0.00     0.215 C 
HETATM   17  O   UNL     1     -41.404 -44.040  13.242  1.00  0.00    -0.274 OA
HETATM   18  C   UNL     1     -39.137 -44.369  12.647  1.00  0.00     0.117 C 
ENDBRANCH  13  14
ENDBRANCH  10  13
ENDBRANCH   8   9
ENDBRANCH   1   8
BRANCH   4  19
HETATM   19  N   UNL     1     -42.961 -54.244  13.558  1.00  0.00    -0.363 N 
HETATM   20  C   UNL     1     -44.326 -54.190  13.008  1.00  0.00     0.150 C 
HETATM   21  C   UNL     1     -45.335 -53.733  14.075  1.00  0.00     0.187 C 
HETATM   22  O   UNL     1     -45.260 -54.540  15.259  1.00  0.00    -0.388 OA
HETATM   23  C   UNL     1     -43.943 -54.446  15.831  1.00  0.00     0.187 C 
HETATM   24  C   UNL     1     -42.870 -54.945  14.851  1.00  0.00     0.150 C 
ENDBRANCH   4  19
TORSDOF 5
ENDMDL
