MODEL 1
REMARK VINA RESULT:      -5.9      0.000      0.000
REMARK  8 active torsions:
REMARK  status: ('A' for Active; 'I' for Inactive)
REMARK    1  A    between atoms: O_1  and  C_2 
REMARK    2  A    between atoms: C_2  and  C_3 
REMARK    3  A    between atoms: N_12  and  C_13 
REMARK    4  A    between atoms: C_13  and  C_14 
REMARK    5  A    between atoms: C_14  and  O_15 
REMARK    6  A    between atoms: C_14  and  C_16 
REMARK    7  A    between atoms: C_16  and  O_17 
REMARK    8  A    between atoms: O_17  and  C_18 
ROOT
HETATM    1  C   UNL     1     -40.647 -53.751  13.962  1.00  0.00     0.108 A 
HETATM    2  N   UNL     1     -41.340 -54.410  14.872  1.00  0.00    -0.342 N 
ATOM      3  HN  UNL     1     -40.994 -54.783  15.755  1.00  0.00     0.167 HD
HETATM    4  C   UNL     1     -42.617 -54.491  14.388  1.00  0.00     0.060 A 
HETATM    5  C   UNL     1     -43.746 -55.092  14.967  1.00  0.00     0.032 A 
HETATM    6  C   UNL     1     -44.965 -55.043  14.282  1.00  0.00     0.002 A 
HETATM    7  C   UNL     1     -45.057 -54.397  13.051  1.00  0.00     0.002 A 
HETATM    8  C   UNL     1     -43.943 -53.780  12.470  1.00  0.00     0.032 A 
HETATM    9  C   UNL     1     -42.724 -53.855  13.156  1.00  0.00     0.062 A 
HETATM   10  N   UNL     1     -41.448 -53.401  12.890  1.00  0.00    -0.330 N 
ENDROOT
BRANCH  10  11
HETATM   11  C   UNL     1     -41.048 -52.596  11.749  1.00  0.00     0.164 C 
BRANCH  11  12
HETATM   12  C   UNL     1     -40.936 -51.078  11.985  1.00  0.00     0.160 C 
BRANCH  12  13
HETATM   13  O   UNL     1     -40.360 -50.366  10.889  1.00  0.00    -0.392 OA
HETATM   14  H   UNL     1     -41.048 -49.851  10.417  1.00  0.00     0.210 HD
ENDBRANCH  12  13
BRANCH  12  15
HETATM   15  C   UNL     1     -42.233 -50.413  12.454  1.00  0.00     0.209 C 
BRANCH  15  16
HETATM   16  O   UNL     1     -42.145 -50.235  13.872  1.00  0.00    -0.349 OA
BRANCH  16  17
HETATM   17  C   UNL     1     -43.191 -50.724  14.604  1.00  0.00     0.069 A 
HETATM   18  C   UNL     1     -44.432 -50.687  13.964  1.00  0.00     0.038 A 
HETATM   19  C   UNL     1     -45.581 -51.132  14.620  1.00  0.00     0.026 A 
HETATM   20  C   UNL     1     -45.476 -51.647  15.909  1.00  0.00     0.034 A 
HETATM   21 CL   UNL     1     -46.886 -52.197  16.726  1.00  0.00    -0.084 Cl
HETATM   22  C   UNL     1     -44.235 -51.724  16.540  1.00  0.00     0.026 A 
HETATM   23  C   UNL     1     -43.089 -51.261  15.887  1.00  0.00     0.038 A 
ENDBRANCH  16  17
ENDBRANCH  15  16
ENDBRANCH  12  15
ENDBRANCH  11  12
ENDBRANCH  10  11
BRANCH   1  24
HETATM   24  C   UNL     1     -39.191 -53.461  14.068  1.00  0.00     0.240 C 
BRANCH  24  25
HETATM   25  O   UNL     1     -38.524 -54.534  13.416  1.00  0.00    -0.393 OA
HETATM   26  H   UNL     1     -38.841 -55.348  13.843  1.00  0.00     0.209 HD
ENDBRANCH  24  25
ENDBRANCH   1  24
TORSDOF 8
ENDMDL
MODEL 2
REMARK VINA RESULT:      -5.8      2.609      4.789
REMARK  8 active torsions:
REMARK  status: ('A' for Active; 'I' for Inactive)
REMARK    1  A    between atoms: O_1  and  C_2 
REMARK    2  A    between atoms: C_2  and  C_3 
REMARK    3  A    between atoms: N_12  and  C_13 
REMARK    4  A    between atoms: C_13  and  C_14 
REMARK    5  A    between atoms: C_14  and  O_15 
REMARK    6  A    between atoms: C_14  and  C_16 
REMARK    7  A    between atoms: C_16  and  O_17 
REMARK    8  A    between atoms: O_17  and  C_18 
ROOT
HETATM    1  C   UNL     1     -39.087 -49.559  11.663  1.00  0.00     0.108 A 
HETATM    2  N   UNL     1     -39.325 -48.366  11.150  1.00  0.00    -0.342 N 
ATOM      3  HN  UNL     1     -38.657 -47.755  10.681  1.00  0.00     0.167 HD
HETATM    4  C   UNL     1     -40.651 -48.117  11.375  1.00  0.00     0.060 A 
HETATM    5  C   UNL     1     -41.409 -46.987  11.031  1.00  0.00     0.032 A 
HETATM    6  C   UNL     1     -42.768 -46.958  11.362  1.00  0.00     0.002 A 
HETATM    7  C   UNL     1     -43.360 -48.037  12.013  1.00  0.00     0.002 A 
HETATM    8  C   UNL     1     -42.619 -49.176  12.350  1.00  0.00     0.032 A 
HETATM    9  C   UNL     1     -41.254 -49.184  12.032  1.00  0.00     0.062 A 
HETATM   10  N   UNL     1     -40.233 -50.094  12.223  1.00  0.00    -0.330 N 
ENDROOT
BRANCH  10  11
HETATM   11  C   UNL     1     -40.368 -51.420  12.798  1.00  0.00     0.164 C 
BRANCH  11  12
HETATM   12  C   UNL     1     -41.258 -52.415  12.029  1.00  0.00     0.160 C 
BRANCH  12  13
HETATM   13  O   UNL     1     -40.526 -53.418  11.325  1.00  0.00    -0.392 OA
HETATM   14  H   UNL     1     -40.410 -54.214  11.884  1.00  0.00     0.210 HD
ENDBRANCH  12  13
BRANCH  12  15
HETATM   15  C   UNL     1     -42.378 -53.037  12.867  1.00  0.00     0.209 C 
BRANCH  15  16
HETATM   16  O   UNL     1     -43.627 -52.596  12.324  1.00  0.00    -0.349 OA
BRANCH  16  17
HETATM   17  C   UNL     1     -44.575 -52.214  13.232  1.00  0.00     0.069 A 
HETATM   18  C   UNL     1     -44.152 -52.205  14.563  1.00  0.00     0.038 A 
HETATM   19  C   UNL     1     -45.038 -51.862  15.585  1.00  0.00     0.026 A 
HETATM   20  C   UNL     1     -46.341 -51.493  15.266  1.00  0.00     0.034 A 
HETATM   21 CL   UNL     1     -47.440 -51.069  16.520  1.00  0.00    -0.084 Cl
HETATM   22  C   UNL     1     -46.760 -51.462  13.937  1.00  0.00     0.026 A 
HETATM   23  C   UNL     1     -45.876 -51.824  12.916  1.00  0.00     0.038 A 
ENDBRANCH  16  17
ENDBRANCH  15  16
ENDBRANCH  12  15
ENDBRANCH  11  12
ENDBRANCH  10  11
BRANCH   1  24
HETATM   24  C   UNL     1     -37.752 -50.216  11.667  1.00  0.00     0.240 C 
BRANCH  24  25
HETATM   25  O   UNL     1     -37.289 -50.183  10.323  1.00  0.00    -0.393 OA
HETATM   26  H   UNL     1     -37.656 -50.973   9.891  1.00  0.00     0.209 HD
ENDBRANCH  24  25
ENDBRANCH   1  24
TORSDOF 8
ENDMDL
MODEL 3
REMARK VINA RESULT:      -5.6      1.951      4.351
REMARK  8 active torsions:
REMARK  status: ('A' for Active; 'I' for Inactive)
REMARK    1  A    between atoms: O_1  and  C_2 
REMARK    2  A    between atoms: C_2  and  C_3 
REMARK    3  A    between atoms: N_12  and  C_13 
REMARK    4  A    between atoms: C_13  and  C_14 
REMARK    5  A    between atoms: C_14  and  O_15 
REMARK    6  A    between atoms: C_14  and  C_16 
REMARK    7  A    between atoms: C_16  and  O_17 
REMARK    8  A    between atoms: O_17  and  C_18 
ROOT
HETATM    1  C   UNL     1     -41.660 -49.590  12.203  1.00  0.00     0.108 A 
HETATM    2  N   UNL     1     -42.971 -49.730  12.146  1.00  0.00    -0.342 N 
ATOM      3  HN  UNL     1     -43.580 -49.495  11.362  1.00  0.00     0.167 HD
HETATM    4  C   UNL     1     -43.348 -50.256  13.351  1.00  0.00     0.060 A 
HETATM    5  C   UNL     1     -44.632 -50.595  13.806  1.00  0.00     0.032 A 
HETATM    6  C   UNL     1     -44.774 -51.131  15.090  1.00  0.00     0.002 A 
HETATM    7  C   UNL     1     -43.659 -51.336  15.898  1.00  0.00     0.002 A 
HETATM    8  C   UNL     1     -42.371 -51.016  15.451  1.00  0.00     0.032 A 
HETATM    9  C   UNL     1     -42.244 -50.460  14.172  1.00  0.00     0.062 A 
HETATM   10  N   UNL     1     -41.172 -50.012  13.426  1.00  0.00    -0.330 N 
ENDROOT
BRANCH  10  11
HETATM   11  C   UNL     1     -39.774 -50.085  13.811  1.00  0.00     0.164 C 
BRANCH  11  12
HETATM   12  C   UNL     1     -38.990 -51.319  13.324  1.00  0.00     0.160 C 
BRANCH  12  13
HETATM   13  O   UNL     1     -37.623 -51.048  13.015  1.00  0.00    -0.392 OA
HETATM   14  H   UNL     1     -37.141 -50.759  13.818  1.00  0.00     0.210 HD
ENDBRANCH  12  13
BRANCH  12  15
HETATM   15  C   UNL     1     -39.118 -52.547  14.229  1.00  0.00     0.209 C 
BRANCH  15  16
HETATM   16  O   UNL     1     -39.623 -53.626  13.435  1.00  0.00    -0.349 OA
BRANCH  16  17
HETATM   17  C   UNL     1     -40.959 -53.886  13.556  1.00  0.00     0.069 A 
HETATM   18  C   UNL     1     -41.342 -54.479  14.762  1.00  0.00     0.038 A 
HETATM   19  C   UNL     1     -42.676 -54.820  14.991  1.00  0.00     0.026 A 
HETATM   20  C   UNL     1     -43.632 -54.532  14.022  1.00  0.00     0.034 A 
HETATM   21 CL   UNL     1     -45.279 -54.948  14.296  1.00  0.00    -0.084 Cl
HETATM   22  C   UNL     1     -43.264 -53.904  12.832  1.00  0.00     0.026 A 
HETATM   23  C   UNL     1     -41.925 -53.581  12.597  1.00  0.00     0.038 A 
ENDBRANCH  16  17
ENDBRANCH  15  16
ENDBRANCH  12  15
ENDBRANCH  11  12
ENDBRANCH  10  11
BRANCH   1  24
HETATM   24  C   UNL     1     -40.832 -49.018  11.107  1.00  0.00     0.240 C 
BRANCH  24  25
HETATM   25  O   UNL     1     -40.433 -50.115  10.296  1.00  0.00    -0.393 OA
HETATM   26  H   UNL     1     -41.215 -50.688  10.213  1.00  0.00     0.209 HD
ENDBRANCH  24  25
ENDBRANCH   1  24
TORSDOF 8
ENDMDL
MODEL 4
REMARK VINA RESULT:      -5.5      1.468      2.842
REMARK  8 active torsions:
REMARK  status: ('A' for Active; 'I' for Inactive)
REMARK    1  A    between atoms: O_1  and  C_2 
REMARK    2  A    between atoms: C_2  and  C_3 
REMARK    3  A    between atoms: N_12  and  C_13 
REMARK    4  A    between atoms: C_13  and  C_14 
REMARK    5  A    between atoms: C_14  and  O_15 
REMARK    6  A    between atoms: C_14  and  C_16 
REMARK    7  A    between atoms: C_16  and  O_17 
REMARK    8  A    between atoms: O_17  and  C_18 
ROOT
HETATM    1  C   UNL     1     -41.297 -52.283  12.454  1.00  0.00     0.108 A 
HETATM    2  N   UNL     1     -42.493 -52.387  11.905  1.00  0.00    -0.342 N 
ATOM      3  HN  UNL     1     -42.832 -51.900  11.076  1.00  0.00     0.167 HD
HETATM    4  C   UNL     1     -43.185 -53.280  12.675  1.00  0.00     0.060 A 
HETATM    5  C   UNL     1     -44.502 -53.742  12.527  1.00  0.00     0.032 A 
HETATM    6  C   UNL     1     -45.000 -54.673  13.444  1.00  0.00     0.002 A 
HETATM    7  C   UNL     1     -44.197 -55.142  14.481  1.00  0.00     0.002 A 
HETATM    8  C   UNL     1     -42.877 -54.702  14.632  1.00  0.00     0.032 A 
HETATM    9  C   UNL     1     -42.397 -53.753  13.719  1.00  0.00     0.062 A 
HETATM   10  N   UNL     1     -41.195 -53.091  13.572  1.00  0.00    -0.330 N 
ENDROOT
BRANCH  10  11
HETATM   11  C   UNL     1     -40.002 -53.298  14.373  1.00  0.00     0.164 C 
BRANCH  11  12
HETATM   12  C   UNL     1     -39.966 -52.600  15.745  1.00  0.00     0.160 C 
BRANCH  12  13
HETATM   13  O   UNL     1     -38.738 -52.780  16.452  1.00  0.00    -0.392 OA
HETATM   14  H   UNL     1     -38.104 -53.295  15.910  1.00  0.00     0.210 HD
ENDBRANCH  12  13
BRANCH  12  15
HETATM   15  C   UNL     1     -40.372 -51.124  15.714  1.00  0.00     0.209 C 
BRANCH  15  16
HETATM   16  O   UNL     1     -41.400 -50.932  16.693  1.00  0.00    -0.349 OA
BRANCH  16  17
HETATM   17  C   UNL     1     -42.684 -51.094  16.254  1.00  0.00     0.069 A 
HETATM   18  C   UNL     1     -43.005 -50.397  15.086  1.00  0.00     0.038 A 
HETATM   19  C   UNL     1     -44.295 -50.459  14.556  1.00  0.00     0.026 A 
HETATM   20  C   UNL     1     -45.254 -51.251  15.181  1.00  0.00     0.034 A 
HETATM   21 CL   UNL     1     -46.846 -51.333  14.535  1.00  0.00    -0.084 Cl
HETATM   22  C   UNL     1     -44.930 -51.981  16.324  1.00  0.00     0.026 A 
HETATM   23  C   UNL     1     -43.643 -51.902  16.863  1.00  0.00     0.038 A 
ENDBRANCH  16  17
ENDBRANCH  15  16
ENDBRANCH  12  15
ENDBRANCH  11  12
ENDBRANCH  10  11
BRANCH   1  24
HETATM   24  C   UNL     1     -40.221 -51.386  11.951  1.00  0.00     0.240 C 
BRANCH  24  25
HETATM   25  O   UNL     1     -40.726 -50.786  10.765  1.00  0.00    -0.393 OA
HETATM   26  H   UNL     1     -39.951 -50.461  10.275  1.00  0.00     0.209 HD
ENDBRANCH  24  25
ENDBRANCH   1  24
TORSDOF 8
ENDMDL
MODEL 5
REMARK VINA RESULT:      -5.4      1.579      3.302
REMARK  8 active torsions:
REMARK  status: ('A' for Active; 'I' for Inactive)
REMARK    1  A    between atoms: O_1  and  C_2 
REMARK    2  A    between atoms: C_2  and  C_3 
REMARK    3  A    between atoms: N_12  and  C_13 
REMARK    4  A    between atoms: C_13  and  C_14 
REMARK    5  A    between atoms: C_14  and  O_15 
REMARK    6  A    between atoms: C_14  and  C_16 
REMARK    7  A    between atoms: C_16  and  O_17 
REMARK    8  A    between atoms: O_17  and  C_18 
ROOT
HETATM    1  C   UNL     1     -41.915 -51.225  12.418  1.00  0.00     0.108 A 
HETATM    2  N   UNL     1     -43.101 -50.679  12.617  1.00  0.00    -0.342 N 
ATOM      3  HN  UNL     1     -43.342 -49.691  12.542  1.00  0.00     0.167 HD
HETATM    4  C   UNL     1     -43.939 -51.708  12.944  1.00  0.00     0.060 A 
HETATM    5  C   UNL     1     -45.308 -51.669  13.254  1.00  0.00     0.032 A 
HETATM    6  C   UNL     1     -45.968 -52.866  13.554  1.00  0.00     0.002 A 
HETATM    7  C   UNL     1     -45.279 -54.076  13.535  1.00  0.00     0.002 A 
HETATM    8  C   UNL     1     -43.917 -54.131  13.214  1.00  0.00     0.032 A 
HETATM    9  C   UNL     1     -43.263 -52.923  12.936  1.00  0.00     0.062 A 
HETATM   10  N   UNL     1     -41.963 -52.593  12.612  1.00  0.00    -0.330 N 
ENDROOT
BRANCH  10  11
HETATM   11  C   UNL     1     -40.873 -53.527  12.397  1.00  0.00     0.164 C 
BRANCH  11  12
HETATM   12  C   UNL     1     -40.155 -54.048  13.656  1.00  0.00     0.160 C 
BRANCH  12  13
HETATM   13  O   UNL     1     -38.981 -54.812  13.376  1.00  0.00    -0.392 OA
HETATM   14  H   UNL     1     -39.112 -55.748  13.636  1.00  0.00     0.210 HD
ENDBRANCH  12  13
BRANCH  12  15
HETATM   15  C   UNL     1     -39.874 -52.975  14.712  1.00  0.00     0.209 C 
BRANCH  15  16
HETATM   16  O   UNL     1     -40.346 -53.467  15.971  1.00  0.00    -0.349 OA
BRANCH  16  17
HETATM   17  C   UNL     1     -41.648 -53.184  16.275  1.00  0.00     0.069 A 
HETATM   18  C   UNL     1     -42.427 -54.288  16.633  1.00  0.00     0.038 A 
HETATM   19  C   UNL     1     -43.780 -54.131  16.937  1.00  0.00     0.026 A 
HETATM   20  C   UNL     1     -44.343 -52.858  16.916  1.00  0.00     0.034 A 
HETATM   21 CL   UNL     1     -46.010 -52.655  17.289  1.00  0.00    -0.084 Cl
HETATM   22  C   UNL     1     -43.563 -51.747  16.599  1.00  0.00     0.026 A 
HETATM   23  C   UNL     1     -42.212 -51.909  16.276  1.00  0.00     0.038 A 
ENDBRANCH  16  17
ENDBRANCH  15  16
ENDBRANCH  12  15
ENDBRANCH  11  12
ENDBRANCH  10  11
BRANCH   1  24
HETATM   24  C   UNL     1     -40.689 -50.457  12.069  1.00  0.00     0.240 C 
BRANCH  24  25
HETATM   25  O   UNL     1     -40.593 -50.485  10.651  1.00  0.00    -0.393 OA
HETATM   26  H   UNL     1     -41.309 -51.067  10.343  1.00  0.00     0.209 HD
ENDBRANCH  24  25
ENDBRANCH   1  24
TORSDOF 8
ENDMDL
MODEL 6
REMARK VINA RESULT:      -5.4      3.104      4.697
REMARK  8 active torsions:
REMARK  status: ('A' for Active; 'I' for Inactive)
REMARK    1  A    between atoms: O_1  and  C_2 
REMARK    2  A    between atoms: C_2  and  C_3 
REMARK    3  A    between atoms: N_12  and  C_13 
REMARK    4  A    between atoms: C_13  and  C_14 
REMARK    5  A    between atoms: C_14  and  O_15 
REMARK    6  A    between atoms: C_14  and  C_16 
REMARK    7  A    between atoms: C_16  and  O_17 
REMARK    8  A    between atoms: O_17  and  C_18 
ROOT
HETATM    1  C   UNL     1     -42.319 -53.433  12.986  1.00  0.00     0.108 A 
HETATM    2  N   UNL     1     -43.406 -53.636  12.265  1.00  0.00    -0.342 N 
ATOM      3  HN  UNL     1     -43.497 -54.237  11.447  1.00  0.00     0.167 HD
HETATM    4  C   UNL     1     -44.387 -52.876  12.840  1.00  0.00     0.060 A 
HETATM    5  C   UNL     1     -45.731 -52.730  12.460  1.00  0.00     0.032 A 
HETATM    6  C   UNL     1     -46.560 -51.892  13.214  1.00  0.00     0.002 A 
HETATM    7  C   UNL     1     -46.061 -51.222  14.328  1.00  0.00     0.002 A 
HETATM    8  C   UNL     1     -44.727 -51.368  14.726  1.00  0.00     0.032 A 
HETATM    9  C   UNL     1     -43.902 -52.194  13.951  1.00  0.00     0.062 A 
HETATM   10  N   UNL     1     -42.570 -52.550  14.020  1.00  0.00    -0.330 N 
ENDROOT
BRANCH  10  11
HETATM   11  C   UNL     1     -41.636 -52.164  15.062  1.00  0.00     0.164 C 
BRANCH  11  12
HETATM   12  C   UNL     1     -40.953 -50.793  14.899  1.00  0.00     0.160 C 
BRANCH  12  13
HETATM   13  O   UNL     1     -40.901 -50.027  16.103  1.00  0.00    -0.392 OA
HETATM   14  H   UNL     1     -41.730 -50.138  16.615  1.00  0.00     0.210 HD
ENDBRANCH  12  13
BRANCH  12  15
HETATM   15  C   UNL     1     -39.581 -50.847  14.222  1.00  0.00     0.209 C 
BRANCH  15  16
HETATM   16  O   UNL     1     -39.790 -50.824  12.805  1.00  0.00    -0.349 OA
BRANCH  16  17
HETATM   17  C   UNL     1     -40.102 -49.608  12.265  1.00  0.00     0.069 A 
HETATM   18  C   UNL     1     -41.231 -49.596  11.442  1.00  0.00     0.038 A 
HETATM   19  C   UNL     1     -41.633 -48.420  10.808  1.00  0.00     0.026 A 
HETATM   20  C   UNL     1     -40.919 -47.246  11.029  1.00  0.00     0.034 A 
HETATM   21 CL   UNL     1     -41.407 -45.791  10.251  1.00  0.00    -0.084 Cl
HETATM   22  C   UNL     1     -39.815 -47.241  11.879  1.00  0.00     0.026 A 
HETATM   23  C   UNL     1     -39.403 -48.424  12.498  1.00  0.00     0.038 A 
ENDBRANCH  16  17
ENDBRANCH  15  16
ENDBRANCH  12  15
ENDBRANCH  11  12
ENDBRANCH  10  11
BRANCH   1  24
HETATM   24  C   UNL     1     -40.995 -54.046  12.693  1.00  0.00     0.240 C 
BRANCH  24  25
HETATM   25  O   UNL     1     -40.481 -53.359  11.559  1.00  0.00    -0.393 OA
HETATM   26  H   UNL     1     -41.252 -52.999  11.089  1.00  0.00     0.209 HD
ENDBRANCH  24  25
ENDBRANCH   1  24
TORSDOF 8
ENDMDL
MODEL 7
REMARK VINA RESULT:      -5.2      4.022      7.023
REMARK  8 active torsions:
REMARK  status: ('A' for Active; 'I' for Inactive)
REMARK    1  A    between atoms: O_1  and  C_2 
REMARK    2  A    between atoms: C_2  and  C_3 
REMARK    3  A    between atoms: N_12  and  C_13 
REMARK    4  A    between atoms: C_13  and  C_14 
REMARK    5  A    between atoms: C_14  and  O_15 
REMARK    6  A    between atoms: C_14  and  C_16 
REMARK    7  A    between atoms: C_16  and  O_17 
REMARK    8  A    between atoms: O_17  and  C_18 
ROOT
HETATM    1  C   UNL     1     -42.067 -46.949  10.645  1.00  0.00     0.108 A 
HETATM    2  N   UNL     1     -41.562 -45.731  10.580  1.00  0.00    -0.342 N 
ATOM      3  HN  UNL     1     -41.807 -45.000   9.913  1.00  0.00     0.167 HD
HETATM    4  C   UNL     1     -40.643 -45.650  11.589  1.00  0.00     0.060 A 
HETATM    5  C   UNL     1     -39.823 -44.570  11.954  1.00  0.00     0.032 A 
HETATM    6  C   UNL     1     -38.953 -44.717  13.040  1.00  0.00     0.002 A 
HETATM    7  C   UNL     1     -38.911 -45.913  13.753  1.00  0.00     0.002 A 
HETATM    8  C   UNL     1     -39.733 -46.993  13.409  1.00  0.00     0.032 A 
HETATM    9  C   UNL     1     -40.584 -46.840  12.307  1.00  0.00     0.062 A 
HETATM   10  N   UNL     1     -41.492 -47.667  11.678  1.00  0.00    -0.330 N 
ENDROOT
BRANCH  10  11
HETATM   11  C   UNL     1     -41.863 -49.006  12.101  1.00  0.00     0.164 C 
BRANCH  11  12
HETATM   12  C   UNL     1     -40.998 -50.161  11.562  1.00  0.00     0.160 C 
BRANCH  12  13
HETATM   13  O   UNL     1     -40.386 -49.884  10.302  1.00  0.00    -0.392 OA
HETATM   14  H   UNL     1     -40.763 -49.068   9.910  1.00  0.00     0.210 HD
ENDBRANCH  12  13
BRANCH  12  15
HETATM   15  C   UNL     1     -39.974 -50.703  12.564  1.00  0.00     0.209 C 
BRANCH  15  16
HETATM   16  O   UNL     1     -39.820 -52.105  12.316  1.00  0.00    -0.349 OA
BRANCH  16  17
HETATM   17  C   UNL     1     -40.479 -52.942  13.172  1.00  0.00     0.069 A 
HETATM   18  C   UNL     1     -39.796 -53.238  14.355  1.00  0.00     0.038 A 
HETATM   19  C   UNL     1     -40.353 -54.106  15.296  1.00  0.00     0.026 A 
HETATM   20  C   UNL     1     -41.614 -54.648  15.064  1.00  0.00     0.034 A 
HETATM   21 CL   UNL     1     -42.308 -55.719  16.218  1.00  0.00    -0.084 Cl
HETATM   22  C   UNL     1     -42.318 -54.326  13.905  1.00  0.00     0.026 A 
HETATM   23  C   UNL     1     -41.750 -53.472  12.955  1.00  0.00     0.038 A 
ENDBRANCH  16  17
ENDBRANCH  15  16
ENDBRANCH  12  15
ENDBRANCH  11  12
ENDBRANCH  10  11
BRANCH   1  24
HETATM   24  C   UNL     1     -43.090 -47.481   9.705  1.00  0.00     0.240 C 
BRANCH  24  25
HETATM   25  O   UNL     1     -42.380 -48.235   8.730  1.00  0.00    -0.393 OA
HETATM   26  H   UNL     1     -41.810 -47.601   8.261  1.00  0.00     0.209 HD
ENDBRANCH  24  25
ENDBRANCH   1  24
TORSDOF 8
ENDMDL
MODEL 8
REMARK VINA RESULT:      -5.2      3.195      5.007
REMARK  8 active torsions:
REMARK  status: ('A' for Active; 'I' for Inactive)
REMARK    1  A    between atoms: O_1  and  C_2 
REMARK    2  A    between atoms: C_2  and  C_3 
REMARK    3  A    between atoms: N_12  and  C_13 
REMARK    4  A    between atoms: C_13  and  C_14 
REMARK    5  A    between atoms: C_14  and  O_15 
REMARK    6  A    between atoms: C_14  and  C_16 
REMARK    7  A    between atoms: C_16  and  O_17 
REMARK    8  A    between atoms: O_17  and  C_18 
ROOT
HETATM    1  C   UNL     1     -45.050 -52.244  12.779  1.00  0.00     0.108 A 
HETATM    2  N   UNL     1     -44.062 -51.391  12.584  1.00  0.00    -0.342 N 
ATOM      3  HN  UNL     1     -44.140 -50.419  12.284  1.00  0.00     0.167 HD
HETATM    4  C   UNL     1     -42.912 -52.074  12.867  1.00  0.00     0.060 A 
HETATM    5  C   UNL     1     -41.582 -51.629  12.815  1.00  0.00     0.032 A 
HETATM    6  C   UNL     1     -40.557 -52.517  13.160  1.00  0.00     0.002 A 
HETATM    7  C   UNL     1     -40.854 -53.817  13.558  1.00  0.00     0.002 A 
HETATM    8  C   UNL     1     -42.176 -54.271  13.628  1.00  0.00     0.032 A 
HETATM    9  C   UNL     1     -43.192 -53.379  13.260  1.00  0.00     0.062 A 
HETATM   10  N   UNL     1     -44.567 -53.475  13.182  1.00  0.00    -0.330 N 
ENDROOT
BRANCH  10  11
HETATM   11  C   UNL     1     -45.366 -54.623  13.571  1.00  0.00     0.164 C 
BRANCH  11  12
HETATM   12  C   UNL     1     -46.362 -54.408  14.726  1.00  0.00     0.160 C 
BRANCH  12  13
HETATM   13  O   UNL     1     -47.395 -55.392  14.787  1.00  0.00    -0.392 OA
HETATM   14  H   UNL     1     -48.272 -54.978  14.643  1.00  0.00     0.210 HD
ENDBRANCH  12  13
BRANCH  12  15
HETATM   15  C   UNL     1     -45.708 -54.210  16.096  1.00  0.00     0.209 C 
BRANCH  15  16
HETATM   16  O   UNL     1     -45.867 -52.835  16.462  1.00  0.00    -0.349 OA
BRANCH  16  17
HETATM   17  C   UNL     1     -44.739 -52.064  16.404  1.00  0.00     0.069 A 
HETATM   18  C   UNL     1     -44.948 -50.733  16.033  1.00  0.00     0.038 A 
HETATM   19  C   UNL     1     -43.871 -49.855  15.910  1.00  0.00     0.026 A 
HETATM   20  C   UNL     1     -42.585 -50.306  16.194  1.00  0.00     0.034 A 
HETATM   21 CL   UNL     1     -41.251 -49.230  16.045  1.00  0.00    -0.084 Cl
HETATM   22  C   UNL     1     -42.373 -51.621  16.603  1.00  0.00     0.026 A 
HETATM   23  C   UNL     1     -43.452 -52.504  16.708  1.00  0.00     0.038 A 
ENDBRANCH  16  17
ENDBRANCH  15  16
ENDBRANCH  12  15
ENDBRANCH  11  12
ENDBRANCH  10  11
BRANCH   1  24
HETATM   24  C   UNL     1     -46.486 -51.924  12.557  1.00  0.00     0.240 C 
BRANCH  24  25
HETATM   25  O   UNL     1     -46.826 -52.482  11.294  1.00  0.00    -0.393 OA
HETATM   26  H   UNL     1     -46.315 -51.985  10.632  1.00  0.00     0.209 HD
ENDBRANCH  24  25
ENDBRANCH   1  24
TORSDOF 8
ENDMDL
MODEL 9
REMARK VINA RESULT:      -5.1      3.299      6.016
REMARK  8 active torsions:
REMARK  status: ('A' for Active; 'I' for Inactive)
REMARK    1  A    between atoms: O_1  and  C_2 
REMARK    2  A    between atoms: C_2  and  C_3 
REMARK    3  A    between atoms: N_12  and  C_13 
REMARK    4  A    between atoms: C_13  and  C_14 
REMARK    5  A    between atoms: C_14  and  O_15 
REMARK    6  A    between atoms: C_14  and  C_16 
REMARK    7  A    between atoms: C_16  and  O_17 
REMARK    8  A    between atoms: O_17  and  C_18 
ROOT
HETATM    1  C   UNL     1     -41.032 -48.992  11.402  1.00  0.00     0.108 A 
HETATM    2  N   UNL     1     -39.788 -48.926  10.965  1.00  0.00    -0.342 N 
ATOM      3  HN  UNL     1     -39.446 -48.391  10.168  1.00  0.00     0.167 HD
HETATM    4  C   UNL     1     -39.053 -49.722  11.799  1.00  0.00     0.060 A 
HETATM    5  C   UNL     1     -37.677 -50.000  11.772  1.00  0.00     0.032 A 
HETATM    6  C   UNL     1     -37.139 -50.850  12.745  1.00  0.00     0.002 A 
HETATM    7  C   UNL     1     -37.954 -51.401  13.730  1.00  0.00     0.002 A 
HETATM    8  C   UNL     1     -39.325 -51.121  13.778  1.00  0.00     0.032 A 
HETATM    9  C   UNL     1     -39.856 -50.286  12.786  1.00  0.00     0.062 A 
HETATM   10  N   UNL     1     -41.125 -49.820  12.506  1.00  0.00    -0.330 N 
ENDROOT
BRANCH  10  11
HETATM   11  C   UNL     1     -42.316 -50.059  13.301  1.00  0.00     0.164 C 
BRANCH  11  12
HETATM   12  C   UNL     1     -43.108 -51.342  12.984  1.00  0.00     0.160 C 
BRANCH  12  13
HETATM   13  O   UNL     1     -42.682 -52.001  11.791  1.00  0.00    -0.392 OA
HETATM   14  H   UNL     1     -42.368 -52.907  11.994  1.00  0.00     0.210 HD
ENDBRANCH  12  13
BRANCH  12  15
HETATM   15  C   UNL     1     -43.209 -52.326  14.151  1.00  0.00     0.209 C 
BRANCH  15  16
HETATM   16  O   UNL     1     -42.708 -53.590  13.703  1.00  0.00    -0.349 OA
BRANCH  16  17
HETATM   17  C   UNL     1     -41.607 -54.066  14.358  1.00  0.00     0.069 A 
HETATM   18  C   UNL     1     -40.504 -54.340  13.544  1.00  0.00     0.038 A 
HETATM   19  C   UNL     1     -39.330 -54.859  14.093  1.00  0.00     0.026 A 
HETATM   20  C   UNL     1     -39.252 -55.070  15.466  1.00  0.00     0.034 A 
HETATM   21 CL   UNL     1     -37.809 -55.709  16.151  1.00  0.00    -0.084 Cl
HETATM   22  C   UNL     1     -40.334 -54.762  16.290  1.00  0.00     0.026 A 
HETATM   23  C   UNL     1     -41.515 -54.260  15.735  1.00  0.00     0.038 A 
ENDBRANCH  16  17
ENDBRANCH  15  16
ENDBRANCH  12  15
ENDBRANCH  11  12
ENDBRANCH  10  11
BRANCH   1  24
HETATM   24  C   UNL     1     -42.181 -48.295  10.763  1.00  0.00     0.240 C 
BRANCH  24  25
HETATM   25  O   UNL     1     -41.946 -48.345   9.361  1.00  0.00    -0.393 OA
HETATM   26  H   UNL     1     -42.399 -47.572   8.983  1.00  0.00     0.209 HD
ENDBRANCH  24  25
ENDBRANCH   1  24
TORSDOF 8
ENDMDL
