MODEL 1
REMARK VINA RESULT:      -6.2      0.000      0.000
REMARK  5 active torsions:
REMARK  status: ('A' for Active; 'I' for Inactive)
REMARK    1  A    between atoms: C_2  and  C_3 
REMARK    2  A    between atoms: C_2  and  N_10 
REMARK    3  A    between atoms: C_3  and  N_4 
REMARK    4  A    between atoms: N_10  and  S_11 
REMARK    5  A    between atoms: S_11  and  N_14 
ROOT
HETATM    1  N   UNL     1     -43.419 -53.116  11.866  1.00  0.00    -0.201 NA
HETATM    2  H   UNL     1     -43.270 -53.962  11.310  1.00  0.00     0.141 HD
ENDROOT
BRANCH   1   3
HETATM    3  C   UNL     1     -42.213 -52.875  12.754  1.00  0.00     0.088 C 
HETATM    4  C   UNL     1     -41.773 -54.202  13.382  1.00  0.00     0.029 C 
BRANCH   3   5
HETATM    5  C   UNL     1     -41.024 -52.184  12.061  1.00  0.00     0.168 C 
BRANCH   5   6
HETATM    6  N   UNL     1     -41.241 -50.781  11.763  1.00  0.00    -0.302 N 
HETATM    7  C   UNL     1     -40.336 -49.873  11.295  1.00  0.00     0.111 A 
HETATM    8  C   UNL     1     -40.976 -48.661  11.268  1.00  0.00     0.037 A 
HETATM    9  C   UNL     1     -42.280 -48.944  11.702  1.00  0.00     0.108 A 
HETATM   10  N   UNL     1     -42.450 -50.233  12.008  1.00  0.00    -0.310 N 
ATOM     11  HN  UNL     1     -43.295 -50.695  12.347  1.00  0.00     0.186 HD
ENDBRANCH   5   6
ENDBRANCH   3   5
ENDBRANCH   1   3
BRANCH   1  12
HETATM   12  S   UNL     1     -44.858 -53.351  12.711  1.00  0.00     0.281 S 
HETATM   13  O   UNL     1     -45.879 -52.687  11.930  1.00  0.00    -0.194 OA
HETATM   14  O   UNL     1     -44.970 -54.745  13.062  1.00  0.00    -0.194 OA
BRANCH  12  15
HETATM   15  N   UNL     1     -44.595 -52.462  14.115  1.00  0.00    -0.198 NA
HETATM   16  C   UNL     1     -44.734 -53.120  15.442  1.00  0.00     0.109 C 
HETATM   17  C   UNL     1     -46.191 -53.302  15.870  1.00  0.00     0.020 C 
HETATM   18  C   UNL     1     -47.066 -52.048  15.704  1.00  0.00    -0.016 C 
HETATM   19  C   UNL     1     -46.898 -51.073  16.870  1.00  0.00     0.010 C 
HETATM   20  C   UNL     1     -46.797 -51.340  14.369  1.00  0.00     0.020 C 
HETATM   21  C   UNL     1     -45.304 -51.150  14.107  1.00  0.00     0.109 C 
ENDBRANCH  12  15
ENDBRANCH   1  12
TORSDOF 5
ENDMDL
MODEL 2
REMARK VINA RESULT:      -5.6      3.264      4.480
REMARK  5 active torsions:
REMARK  status: ('A' for Active; 'I' for Inactive)
REMARK    1  A    between atoms: C_2  and  C_3 
REMARK    2  A    between atoms: C_2  and  N_10 
REMARK    3  A    between atoms: C_3  and  N_4 
REMARK    4  A    between atoms: N_10  and  S_11 
REMARK    5  A    between atoms: S_11  and  N_14 
ROOT
HETATM    1  N   UNL     1     -39.694 -50.894  11.752  1.00  0.00    -0.201 NA
HETATM    2  H   UNL     1     -39.227 -51.502  11.076  1.00  0.00     0.141 HD
ENDROOT
BRANCH   1   3
HETATM    3  C   UNL     1     -38.803 -49.706  12.064  1.00  0.00     0.088 C 
HETATM    4  C   UNL     1     -37.472 -49.863  11.320  1.00  0.00     0.029 C 
BRANCH   3   5
HETATM    5  C   UNL     1     -39.429 -48.331  11.769  1.00  0.00     0.168 C 
BRANCH   5   6
HETATM    6  N   UNL     1     -40.879 -48.336  11.708  1.00  0.00    -0.302 N 
HETATM    7  C   UNL     1     -41.674 -48.063  10.633  1.00  0.00     0.111 A 
HETATM    8  C   UNL     1     -42.967 -48.094  11.085  1.00  0.00     0.037 A 
HETATM    9  C   UNL     1     -42.855 -48.435  12.441  1.00  0.00     0.108 A 
HETATM   10  N   UNL     1     -41.586 -48.583  12.830  1.00  0.00    -0.310 N 
ATOM     11  HN  UNL     1     -41.234 -48.825  13.757  1.00  0.00     0.186 HD
ENDBRANCH   5   6
ENDBRANCH   3   5
ENDBRANCH   1   3
BRANCH   1  12
HETATM   12  S   UNL     1     -40.048 -51.856  13.090  1.00  0.00     0.281 S 
HETATM   13  O   UNL     1     -38.879 -52.685  13.292  1.00  0.00    -0.194 OA
HETATM   14  O   UNL     1     -40.564 -51.017  14.143  1.00  0.00    -0.194 OA
BRANCH  12  15
HETATM   15  N   UNL     1     -41.296 -52.824  12.512  1.00  0.00    -0.198 NA
HETATM   16  C   UNL     1     -42.696 -52.322  12.544  1.00  0.00     0.109 C 
HETATM   17  C   UNL     1     -43.327 -52.397  13.936  1.00  0.00     0.020 C 
HETATM   18  C   UNL     1     -43.134 -53.745  14.651  1.00  0.00    -0.016 C 
HETATM   19  C   UNL     1     -44.150 -54.790  14.188  1.00  0.00     0.010 C 
HETATM   20  C   UNL     1     -41.704 -54.278  14.485  1.00  0.00     0.020 C 
HETATM   21  C   UNL     1     -41.231 -54.220  13.034  1.00  0.00     0.109 C 
ENDBRANCH  12  15
ENDBRANCH   1  12
TORSDOF 5
ENDMDL
MODEL 3
REMARK VINA RESULT:      -5.5      2.417      3.283
REMARK  5 active torsions:
REMARK  status: ('A' for Active; 'I' for Inactive)
REMARK    1  A    between atoms: C_2  and  C_3 
REMARK    2  A    between atoms: C_2  and  N_10 
REMARK    3  A    between atoms: C_3  and  N_4 
REMARK    4  A    between atoms: N_10  and  S_11 
REMARK    5  A    between atoms: S_11  and  N_14 
ROOT
HETATM    1  N   UNL     1     -40.126 -52.118  12.217  1.00  0.00    -0.201 NA
HETATM    2  H   UNL     1     -39.521 -52.914  12.001  1.00  0.00     0.141 HD
ENDROOT
BRANCH   1   3
HETATM    3  C   UNL     1     -39.294 -50.997  12.813  1.00  0.00     0.088 C 
HETATM    4  C   UNL     1     -38.121 -51.598  13.594  1.00  0.00     0.029 C 
BRANCH   3   5
HETATM    5  C   UNL     1     -38.791 -49.954  11.798  1.00  0.00     0.168 C 
BRANCH   5   6
HETATM    6  N   UNL     1     -39.788 -48.977  11.404  1.00  0.00    -0.302 N 
HETATM    7  C   UNL     1     -39.864 -47.663  11.764  1.00  0.00     0.111 A 
HETATM    8  C   UNL     1     -41.028 -47.177  11.230  1.00  0.00     0.037 A 
HETATM    9  C   UNL     1     -41.571 -48.263  10.527  1.00  0.00     0.108 A 
HETATM   10  N   UNL     1     -40.823 -49.365  10.630  1.00  0.00    -0.310 N 
ATOM     11  HN  UNL     1     -40.994 -50.284  10.219  1.00  0.00     0.186 HD
ENDBRANCH   5   6
ENDBRANCH   3   5
ENDBRANCH   1   3
BRANCH   1  12
HETATM   12  S   UNL     1     -41.328 -52.701  13.245  1.00  0.00     0.281 S 
HETATM   13  O   UNL     1     -41.296 -54.140  13.102  1.00  0.00    -0.194 OA
HETATM   14  O   UNL     1     -41.184 -52.071  14.534  1.00  0.00    -0.194 OA
BRANCH  12  15
HETATM   15  N   UNL     1     -42.730 -52.123  12.517  1.00  0.00    -0.198 NA
HETATM   16  C   UNL     1     -43.253 -50.780  12.885  1.00  0.00     0.109 C 
HETATM   17  C   UNL     1     -43.987 -50.771  14.228  1.00  0.00     0.020 C 
HETATM   18  C   UNL     1     -45.011 -51.907  14.401  1.00  0.00    -0.016 C 
HETATM   19  C   UNL     1     -46.345 -51.584  13.727  1.00  0.00     0.010 C 
HETATM   20  C   UNL     1     -44.464 -53.248  13.894  1.00  0.00     0.020 C 
HETATM   21  C   UNL     1     -43.831 -53.127  12.509  1.00  0.00     0.109 C 
ENDBRANCH  12  15
ENDBRANCH   1  12
TORSDOF 5
ENDMDL
MODEL 4
REMARK VINA RESULT:      -5.5      2.921      5.443
REMARK  5 active torsions:
REMARK  status: ('A' for Active; 'I' for Inactive)
REMARK    1  A    between atoms: C_2  and  C_3 
REMARK    2  A    between atoms: C_2  and  N_10 
REMARK    3  A    between atoms: C_3  and  N_4 
REMARK    4  A    between atoms: N_10  and  S_11 
REMARK    5  A    between atoms: S_11  and  N_14 
ROOT
HETATM    1  N   UNL     1     -46.440 -53.604  13.641  1.00  0.00    -0.201 NA
HETATM    2  H   UNL     1     -47.008 -53.991  12.884  1.00  0.00     0.141 HD
ENDROOT
BRANCH   1   3
HETATM    3  C   UNL     1     -46.292 -52.106  13.448  1.00  0.00     0.088 C 
HETATM    4  C   UNL     1     -46.844 -51.716  12.073  1.00  0.00     0.029 C 
BRANCH   3   5
HETATM    5  C   UNL     1     -46.932 -51.245  14.553  1.00  0.00     0.168 C 
BRANCH   5   6
HETATM    6  N   UNL     1     -46.333 -51.414  15.863  1.00  0.00    -0.302 N 
HETATM    7  C   UNL     1     -45.399 -50.622  16.467  1.00  0.00     0.111 A 
HETATM    8  C   UNL     1     -45.068 -51.238  17.645  1.00  0.00     0.037 A 
HETATM    9  C   UNL     1     -45.884 -52.378  17.686  1.00  0.00     0.108 A 
HETATM   10  N   UNL     1     -46.657 -52.494  16.603  1.00  0.00    -0.310 N 
ATOM     11  HN  UNL     1     -47.333 -53.228  16.386  1.00  0.00     0.186 HD
ENDBRANCH   5   6
ENDBRANCH   3   5
ENDBRANCH   1   3
BRANCH   1  12
HETATM   12  S   UNL     1     -44.980 -54.446  13.617  1.00  0.00     0.281 S 
HETATM   13  O   UNL     1     -45.282 -55.760  14.142  1.00  0.00    -0.194 OA
HETATM   14  O   UNL     1     -44.367 -54.278  12.323  1.00  0.00    -0.194 OA
BRANCH  12  15
HETATM   15  N   UNL     1     -44.068 -53.611  14.757  1.00  0.00    -0.198 NA
HETATM   16  C   UNL     1     -42.953 -52.733  14.312  1.00  0.00     0.109 C 
HETATM   17  C   UNL     1     -41.694 -53.513  13.927  1.00  0.00     0.020 C 
HETATM   18  C   UNL     1     -41.273 -54.585  14.946  1.00  0.00    -0.016 C 
HETATM   19  C   UNL     1     -40.485 -53.989  16.113  1.00  0.00     0.010 C 
HETATM   20  C   UNL     1     -42.478 -55.383  15.464  1.00  0.00     0.020 C 
HETATM   21  C   UNL     1     -43.630 -54.476  15.890  1.00  0.00     0.109 C 
ENDBRANCH  12  15
ENDBRANCH   1  12
TORSDOF 5
ENDMDL
MODEL 5
REMARK VINA RESULT:      -5.5      2.569      3.426
REMARK  5 active torsions:
REMARK  status: ('A' for Active; 'I' for Inactive)
REMARK    1  A    between atoms: C_2  and  C_3 
REMARK    2  A    between atoms: C_2  and  N_10 
REMARK    3  A    between atoms: C_3  and  N_4 
REMARK    4  A    between atoms: N_10  and  S_11 
REMARK    5  A    between atoms: S_11  and  N_14 
ROOT
HETATM    1  N   UNL     1     -42.245 -55.018  15.068  1.00  0.00    -0.201 NA
HETATM    2  H   UNL     1     -42.584 -55.891  15.477  1.00  0.00     0.141 HD
ENDROOT
BRANCH   1   3
HETATM    3  C   UNL     1     -40.839 -54.738  15.564  1.00  0.00     0.088 C 
HETATM    4  C   UNL     1     -40.402 -55.865  16.506  1.00  0.00     0.029 C 
BRANCH   3   5
HETATM    5  C   UNL     1     -39.792 -54.522  14.456  1.00  0.00     0.168 C 
BRANCH   5   6
HETATM    6  N   UNL     1     -40.144 -53.494  13.495  1.00  0.00    -0.302 N 
HETATM    7  C   UNL     1     -39.887 -52.155  13.567  1.00  0.00     0.111 A 
HETATM    8  C   UNL     1     -40.499 -51.581  12.484  1.00  0.00     0.037 A 
HETATM    9  C   UNL     1     -41.068 -52.660  11.791  1.00  0.00     0.108 A 
HETATM   10  N   UNL     1     -40.858 -53.830  12.401  1.00  0.00    -0.310 N 
ATOM     11  HN  UNL     1     -41.166 -54.758  12.108  1.00  0.00     0.186 HD
ENDBRANCH   5   6
ENDBRANCH   3   5
ENDBRANCH   1   3
BRANCH   1  12
HETATM   12  S   UNL     1     -43.368 -53.831  15.484  1.00  0.00     0.281 S 
HETATM   13  O   UNL     1     -44.571 -54.547  15.851  1.00  0.00    -0.194 OA
HETATM   14  O   UNL     1     -42.745 -52.897  16.389  1.00  0.00    -0.194 OA
BRANCH  12  15
HETATM   15  N   UNL     1     -43.632 -53.060  14.012  1.00  0.00    -0.198 NA
HETATM   16  C   UNL     1     -43.915 -51.600  13.984  1.00  0.00     0.109 C 
HETATM   17  C   UNL     1     -45.352 -51.260  14.383  1.00  0.00     0.020 C 
HETATM   18  C   UNL     1     -46.425 -52.113  13.686  1.00  0.00    -0.016 C 
HETATM   19  C   UNL     1     -46.745 -51.598  12.283  1.00  0.00     0.010 C 
HETATM   20  C   UNL     1     -46.029 -53.595  13.635  1.00  0.00     0.020 C 
HETATM   21  C   UNL     1     -44.596 -53.793  13.143  1.00  0.00     0.109 C 
ENDBRANCH  12  15
ENDBRANCH   1  12
TORSDOF 5
ENDMDL
MODEL 6
REMARK VINA RESULT:      -5.4      5.696      7.191
REMARK  5 active torsions:
REMARK  status: ('A' for Active; 'I' for Inactive)
REMARK    1  A    between atoms: C_2  and  C_3 
REMARK    2  A    between atoms: C_2  and  N_10 
REMARK    3  A    between atoms: C_3  and  N_4 
REMARK    4  A    between atoms: N_10  and  S_11 
REMARK    5  A    between atoms: S_11  and  N_14 
ROOT
HETATM    1  N   UNL     1     -40.594 -47.163  10.508  1.00  0.00    -0.201 NA
HETATM    2  H   UNL     1     -39.666 -47.128  10.080  1.00  0.00     0.141 HD
ENDROOT
BRANCH   1   3
HETATM    3  C   UNL     1     -40.917 -45.816  11.126  1.00  0.00     0.088 C 
HETATM    4  C   UNL     1     -39.718 -44.877  10.951  1.00  0.00     0.029 C 
BRANCH   3   5
HETATM    5  C   UNL     1     -42.204 -45.153  10.601  1.00  0.00     0.168 C 
BRANCH   5   6
HETATM    6  N   UNL     1     -43.162 -46.081  10.031  1.00  0.00    -0.302 N 
HETATM    7  C   UNL     1     -43.606 -46.143   8.741  1.00  0.00     0.111 A 
HETATM    8  C   UNL     1     -44.575 -47.110   8.707  1.00  0.00     0.037 A 
HETATM    9  C   UNL     1     -44.621 -47.607  10.018  1.00  0.00     0.108 A 
HETATM   10  N   UNL     1     -43.764 -46.984  10.833  1.00  0.00    -0.310 N 
ATOM     11  HN  UNL     1     -43.603 -47.152  11.826  1.00  0.00     0.186 HD
ENDBRANCH   5   6
ENDBRANCH   3   5
ENDBRANCH   1   3
BRANCH   1  12
HETATM   12  S   UNL     1     -40.558 -48.435  11.613  1.00  0.00     0.281 S 
HETATM   13  O   UNL     1     -41.493 -48.068  12.656  1.00  0.00    -0.194 OA
HETATM   14  O   UNL     1     -40.685 -49.679  10.896  1.00  0.00    -0.194 OA
BRANCH  12  15
HETATM   15  N   UNL     1     -38.998 -48.325  12.232  1.00  0.00    -0.198 NA
HETATM   16  C   UNL     1     -38.009 -49.397  11.935  1.00  0.00     0.109 C 
HETATM   17  C   UNL     1     -38.220 -50.656  12.777  1.00  0.00     0.020 C 
HETATM   18  C   UNL     1     -38.416 -50.392  14.280  1.00  0.00    -0.016 C 
HETATM   19  C   UNL     1     -37.085 -50.189  15.005  1.00  0.00     0.010 C 
HETATM   20  C   UNL     1     -39.350 -49.200  14.530  1.00  0.00     0.020 C 
HETATM   21  C   UNL     1     -38.976 -47.985  13.683  1.00  0.00     0.109 C 
ENDBRANCH  12  15
ENDBRANCH   1  12
TORSDOF 5
ENDMDL
MODEL 7
REMARK VINA RESULT:      -5.4      2.009      3.102
REMARK  5 active torsions:
REMARK  status: ('A' for Active; 'I' for Inactive)
REMARK    1  A    between atoms: C_2  and  C_3 
REMARK    2  A    between atoms: C_2  and  N_10 
REMARK    3  A    between atoms: C_3  and  N_4 
REMARK    4  A    between atoms: N_10  and  S_11 
REMARK    5  A    between atoms: S_11  and  N_14 
ROOT
HETATM    1  N   UNL     1     -43.652 -52.864  14.298  1.00  0.00    -0.201 NA
HETATM    2  H   UNL     1     -44.175 -52.292  14.965  1.00  0.00     0.141 HD
ENDROOT
BRANCH   1   3
HETATM    3  C   UNL     1     -43.489 -52.104  12.996  1.00  0.00     0.088 C 
HETATM    4  C   UNL     1     -43.585 -50.600  13.273  1.00  0.00     0.029 C 
BRANCH   3   5
HETATM    5  C   UNL     1     -42.204 -52.429  12.212  1.00  0.00     0.168 C 
BRANCH   5   6
HETATM    6  N   UNL     1     -41.115 -52.926  13.032  1.00  0.00    -0.302 N 
HETATM    7  C   UNL     1     -40.091 -52.214  13.587  1.00  0.00     0.111 A 
HETATM    8  C   UNL     1     -39.260 -53.126  14.183  1.00  0.00     0.037 A 
HETATM    9  C   UNL     1     -39.886 -54.363  13.968  1.00  0.00     0.108 A 
HETATM   10  N   UNL     1     -41.017 -54.251  13.266  1.00  0.00    -0.310 N 
ATOM     11  HN  UNL     1     -41.655 -54.992  12.975  1.00  0.00     0.186 HD
ENDBRANCH   5   6
ENDBRANCH   3   5
ENDBRANCH   1   3
BRANCH   1  12
HETATM   12  S   UNL     1     -44.504 -54.311  14.146  1.00  0.00     0.281 S 
HETATM   13  O   UNL     1     -44.965 -54.347  12.775  1.00  0.00    -0.194 OA
HETATM   14  O   UNL     1     -43.708 -55.380  14.697  1.00  0.00    -0.194 OA
BRANCH  12  15
HETATM   15  N   UNL     1     -45.829 -54.052  15.149  1.00  0.00    -0.198 NA
HETATM   16  C   UNL     1     -47.009 -53.306  14.636  1.00  0.00     0.109 C 
HETATM   17  C   UNL     1     -46.787 -51.792  14.594  1.00  0.00     0.020 C 
HETATM   18  C   UNL     1     -46.188 -51.200  15.881  1.00  0.00    -0.016 C 
HETATM   19  C   UNL     1     -47.253 -50.964  16.953  1.00  0.00     0.010 C 
HETATM   20  C   UNL     1     -45.054 -52.073  16.435  1.00  0.00     0.020 C 
HETATM   21  C   UNL     1     -45.440 -53.550  16.498  1.00  0.00     0.109 C 
ENDBRANCH  12  15
ENDBRANCH   1  12
TORSDOF 5
ENDMDL
MODEL 8
REMARK VINA RESULT:      -5.4      2.665      3.354
REMARK  5 active torsions:
REMARK  status: ('A' for Active; 'I' for Inactive)
REMARK    1  A    between atoms: C_2  and  C_3 
REMARK    2  A    between atoms: C_2  and  N_10 
REMARK    3  A    between atoms: C_3  and  N_4 
REMARK    4  A    between atoms: N_10  and  S_11 
REMARK    5  A    between atoms: S_11  and  N_14 
ROOT
HETATM    1  N   UNL     1     -39.655 -52.170  13.181  1.00  0.00    -0.201 NA
HETATM    2  H   UNL     1     -39.400 -52.579  14.082  1.00  0.00     0.141 HD
ENDROOT
BRANCH   1   3
HETATM    3  C   UNL     1     -39.890 -50.681  13.349  1.00  0.00     0.088 C 
HETATM    4  C   UNL     1     -39.539 -50.272  14.784  1.00  0.00     0.029 C 
BRANCH   3   5
HETATM    5  C   UNL     1     -39.151 -49.789  12.336  1.00  0.00     0.168 C 
BRANCH   5   6
HETATM    6  N   UNL     1     -40.010 -48.874  11.608  1.00  0.00    -0.302 N 
HETATM    7  C   UNL     1     -40.024 -47.511  11.666  1.00  0.00     0.111 A 
HETATM    8  C   UNL     1     -41.071 -47.097  10.884  1.00  0.00     0.037 A 
HETATM    9  C   UNL     1     -41.608 -48.283  10.362  1.00  0.00     0.108 A 
HETATM   10  N   UNL     1     -40.969 -49.372  10.799  1.00  0.00    -0.310 N 
ATOM     11  HN  UNL     1     -41.161 -50.349  10.575  1.00  0.00     0.186 HD
ENDBRANCH   5   6
ENDBRANCH   3   5
ENDBRANCH   1   3
BRANCH   1  12
HETATM   12  S   UNL     1     -41.004 -53.021  12.638  1.00  0.00     0.281 S 
HETATM   13  O   UNL     1     -41.376 -52.400  11.385  1.00  0.00    -0.194 OA
HETATM   14  O   UNL     1     -40.729 -54.434  12.722  1.00  0.00    -0.194 OA
BRANCH  12  15
HETATM   15  N   UNL     1     -42.162 -52.628  13.794  1.00  0.00    -0.198 NA
HETATM   16  C   UNL     1     -42.259 -53.429  15.043  1.00  0.00     0.109 C 
HETATM   17  C   UNL     1     -42.965 -54.771  14.841  1.00  0.00     0.020 C 
HETATM   18  C   UNL     1     -44.284 -54.684  14.055  1.00  0.00    -0.016 C 
HETATM   19  C   UNL     1     -45.454 -54.259  14.943  1.00  0.00     0.010 C 
HETATM   20  C   UNL     1     -44.163 -53.751  12.843  1.00  0.00     0.020 C 
HETATM   21  C   UNL     1     -43.515 -52.416  13.204  1.00  0.00     0.109 C 
ENDBRANCH  12  15
ENDBRANCH   1  12
TORSDOF 5
ENDMDL
MODEL 9
REMARK VINA RESULT:      -5.3      2.846      6.045
REMARK  5 active torsions:
REMARK  status: ('A' for Active; 'I' for Inactive)
REMARK    1  A    between atoms: C_2  and  C_3 
REMARK    2  A    between atoms: C_2  and  N_10 
REMARK    3  A    between atoms: C_3  and  N_4 
REMARK    4  A    between atoms: N_10  and  S_11 
REMARK    5  A    between atoms: S_11  and  N_14 
ROOT
HETATM    1  N   UNL     1     -42.433 -52.366  13.461  1.00  0.00    -0.201 NA
HETATM    2  H   UNL     1     -42.293 -52.138  14.447  1.00  0.00     0.141 HD
ENDROOT
BRANCH   1   3
HETATM    3  C   UNL     1     -42.729 -53.848  13.321  1.00  0.00     0.088 C 
HETATM    4  C   UNL     1     -42.395 -54.556  14.638  1.00  0.00     0.029 C 
BRANCH   3   5
HETATM    5  C   UNL     1     -44.164 -54.183  12.875  1.00  0.00     0.168 C 
BRANCH   5   6
HETATM    6  N   UNL     1     -45.132 -53.137  13.146  1.00  0.00    -0.302 N 
HETATM    7  C   UNL     1     -45.814 -52.905  14.305  1.00  0.00     0.111 A 
HETATM    8  C   UNL     1     -46.685 -51.878  14.048  1.00  0.00     0.037 A 
HETATM    9  C   UNL     1     -46.428 -51.528  12.714  1.00  0.00     0.108 A 
HETATM   10  N   UNL     1     -45.485 -52.291  12.155  1.00  0.00    -0.310 N 
ATOM     11  HN  UNL     1     -45.117 -52.246  11.204  1.00  0.00     0.186 HD
ENDBRANCH   5   6
ENDBRANCH   3   5
ENDBRANCH   1   3
BRANCH   1  12
HETATM   12  S   UNL     1     -41.040 -51.866  12.655  1.00  0.00     0.281 S 
HETATM   13  O   UNL     1     -40.410 -53.079  12.180  1.00  0.00    -0.194 OA
HETATM   14  O   UNL     1     -41.383 -50.796  11.752  1.00  0.00    -0.194 OA
BRANCH  12  15
HETATM   15  N   UNL     1     -40.110 -51.237  13.908  1.00  0.00    -0.198 NA
HETATM   16  C   UNL     1     -40.413 -49.883  14.444  1.00  0.00     0.109 C 
HETATM   17  C   UNL     1     -39.903 -48.755  13.544  1.00  0.00     0.020 C 
HETATM   18  C   UNL     1     -38.449 -48.926  13.072  1.00  0.00    -0.016 C 
HETATM   19  C   UNL     1     -37.445 -48.469  14.130  1.00  0.00     0.010 C 
HETATM   20  C   UNL     1     -38.156 -50.371  12.643  1.00  0.00     0.020 C 
HETATM   21  C   UNL     1     -38.646 -51.389  13.671  1.00  0.00     0.109 C 
ENDBRANCH  12  15
ENDBRANCH   1  12
TORSDOF 5
ENDMDL
