MODEL 1
REMARK VINA RESULT:      -6.3      0.000      0.000
REMARK  5 active torsions:
REMARK  status: ('A' for Active; 'I' for Inactive)
REMARK    1  A    between atoms: N_1  and  C_3 
REMARK    2  A    between atoms: C_14  and  N_19 
REMARK    3  A    between atoms: C_16  and  O_21 
REMARK    4  A    between atoms: C_17  and  C_22 
REMARK    5  A    between atoms: C_22  and  O_23 
ROOT
HETATM    1  N   UNL     1     -41.550 -47.579  11.496  1.00  0.00    -0.297 N 
HETATM    2  C   UNL     1     -41.328 -48.923  11.653  1.00  0.00     0.144 A 
HETATM    3  C   UNL     1     -39.962 -49.080  11.492  1.00  0.00     0.122 A 
HETATM    4  N   UNL     1     -42.229 -49.889  11.896  1.00  0.00    -0.316 N 
ATOM      5  HN  UNL     1     -43.231 -49.737  12.008  1.00  0.00     0.170 HD
HETATM    6  N   UNL     1     -39.349 -47.865  11.292  1.00  0.00    -0.346 N 
ATOM      7  HN  UNL     1     -38.355 -47.686  11.149  1.00  0.00     0.167 HD
HETATM    8  C   UNL     1     -40.326 -46.986  11.326  1.00  0.00     0.188 A 
HETATM    9  N   UNL     1     -40.314 -51.398  11.835  1.00  0.00    -0.317 N 
ATOM     10  HN  UNL     1     -39.985 -52.358  11.928  1.00  0.00     0.170 HD
HETATM   11  C   UNL     1     -39.459 -50.389  11.571  1.00  0.00     0.132 A 
HETATM   12  C   UNL     1     -41.619 -51.091  11.973  1.00  0.00     0.182 A 
HETATM   13 CL   UNL     1     -42.648 -52.410  12.335  1.00  0.00    -0.045 Cl
ENDROOT
BRANCH   1  14
HETATM   14  C   UNL     1     -42.856 -46.958  11.453  1.00  0.00     0.267 C 
HETATM   15  C   UNL     1     -42.944 -45.528  10.946  1.00  0.00     0.250 C 
HETATM   16  C   UNL     1     -43.306 -45.658   9.477  1.00  0.00     0.187 C 
HETATM   17  F   UNL     1     -41.775 -44.858  11.090  1.00  0.00    -0.242 F 
HETATM   18  C   UNL     1     -43.844 -47.081   9.322  1.00  0.00     0.179 C 
HETATM   19  O   UNL     1     -43.687 -47.756  10.587  1.00  0.00    -0.353 OA
BRANCH  16  20
HETATM   20  O   UNL     1     -44.286 -44.686   9.100  1.00  0.00    -0.390 OA
HETATM   21  H   UNL     1     -44.315 -44.611   8.130  1.00  0.00     0.210 HD
ENDBRANCH  16  20
BRANCH  18  22
HETATM   22  C   UNL     1     -43.086 -47.876   8.249  1.00  0.00     0.198 C 
BRANCH  22  23
HETATM   23  O   UNL     1     -43.072 -47.152   7.020  1.00  0.00    -0.398 OA
HETATM   24  H   UNL     1     -42.311 -47.484   6.509  1.00  0.00     0.209 HD
ENDBRANCH  22  23
ENDBRANCH  18  22
ENDBRANCH   1  14
BRANCH  11  25
HETATM   25  N   UNL     1     -38.112 -50.682  11.404  1.00  0.00    -0.383 N 
HETATM   26  H   UNL     1     -37.902 -51.069  10.495  1.00  0.00     0.157 HD
HETATM   27  H   UNL     1     -37.686 -51.116  12.214  1.00  0.00     0.157 HD
ENDBRANCH  11  25
TORSDOF 5
ENDMDL
MODEL 2
REMARK VINA RESULT:      -6.2      1.562      2.060
REMARK  5 active torsions:
REMARK  status: ('A' for Active; 'I' for Inactive)
REMARK    1  A    between atoms: N_1  and  C_3 
REMARK    2  A    between atoms: C_14  and  N_19 
REMARK    3  A    between atoms: C_16  and  O_21 
REMARK    4  A    between atoms: C_17  and  C_22 
REMARK    5  A    between atoms: C_22  and  O_23 
ROOT
HETATM    1  N   UNL     1     -41.973 -48.852  11.800  1.00  0.00    -0.297 N 
HETATM    2  C   UNL     1     -42.391 -50.082  12.238  1.00  0.00     0.144 A 
HETATM    3  C   UNL     1     -41.452 -50.975  11.751  1.00  0.00     0.122 A 
HETATM    4  N   UNL     1     -43.480 -50.376  12.969  1.00  0.00    -0.316 N 
ATOM      5  HN  UNL     1     -44.154 -49.691  13.311  1.00  0.00     0.170 HD
HETATM    6  N   UNL     1     -40.453 -50.314  11.075  1.00  0.00    -0.346 N 
ATOM      7  HN  UNL     1     -39.636 -50.720  10.618  1.00  0.00     0.167 HD
HETATM    8  C   UNL     1     -40.784 -49.043  11.146  1.00  0.00     0.188 A 
HETATM    9  N   UNL     1     -42.726 -52.687  12.779  1.00  0.00    -0.317 N 
ATOM     10  HN  UNL     1     -42.899 -53.661  13.027  1.00  0.00     0.170 HD
HETATM   11  C   UNL     1     -41.661 -52.335  12.030  1.00  0.00     0.132 A 
HETATM   12  C   UNL     1     -43.554 -51.705  13.188  1.00  0.00     0.182 A 
HETATM   13 CL   UNL     1     -44.870 -52.214  14.157  1.00  0.00    -0.045 Cl
ENDROOT
BRANCH   1  14
HETATM   14  C   UNL     1     -42.717 -47.622  11.960  1.00  0.00     0.267 C 
HETATM   15  C   UNL     1     -41.988 -46.315  11.699  1.00  0.00     0.250 C 
HETATM   16  C   UNL     1     -42.325 -45.962  10.262  1.00  0.00     0.187 C 
HETATM   17  F   UNL     1     -40.648 -46.432  11.858  1.00  0.00    -0.242 F 
HETATM   18  C   UNL     1     -43.555 -46.804   9.920  1.00  0.00     0.179 C 
HETATM   19  O   UNL     1     -43.829 -47.667  11.044  1.00  0.00    -0.353 OA
BRANCH  16  20
HETATM   20  O   UNL     1     -42.596 -44.563  10.124  1.00  0.00    -0.390 OA
HETATM   21  H   UNL     1     -42.424 -44.286   9.207  1.00  0.00     0.210 HD
ENDBRANCH  16  20
BRANCH  18  22
HETATM   22  C   UNL     1     -43.336 -47.677   8.677  1.00  0.00     0.198 C 
BRANCH  22  23
HETATM   23  O   UNL     1     -42.926 -46.870   7.576  1.00  0.00    -0.398 OA
HETATM   24  H   UNL     1     -42.494 -46.081   7.953  1.00  0.00     0.209 HD
ENDBRANCH  22  23
ENDBRANCH  18  22
ENDBRANCH   1  14
BRANCH  11  25
HETATM   25  N   UNL     1     -40.805 -53.330  11.579  1.00  0.00    -0.383 N 
HETATM   26  H   UNL     1     -41.190 -54.258  11.679  1.00  0.00     0.157 HD
HETATM   27  H   UNL     1     -39.838 -53.187  11.844  1.00  0.00     0.157 HD
ENDBRANCH  11  25
TORSDOF 5
ENDMDL
MODEL 3
REMARK VINA RESULT:      -6.1      1.738      2.301
REMARK  5 active torsions:
REMARK  status: ('A' for Active; 'I' for Inactive)
REMARK    1  A    between atoms: N_1  and  C_3 
REMARK    2  A    between atoms: C_14  and  N_19 
REMARK    3  A    between atoms: C_16  and  O_21 
REMARK    4  A    between atoms: C_17  and  C_22 
REMARK    5  A    between atoms: C_22  and  O_23 
ROOT
HETATM    1  N   UNL     1     -40.995 -48.648  12.176  1.00  0.00    -0.297 N 
HETATM    2  C   UNL     1     -41.766 -49.764  12.377  1.00  0.00     0.144 A 
HETATM    3  C   UNL     1     -41.013 -50.813  11.880  1.00  0.00     0.122 A 
HETATM    4  N   UNL     1     -42.992 -49.837  12.922  1.00  0.00    -0.316 N 
ATOM      5  HN  UNL     1     -43.520 -49.041  13.278  1.00  0.00     0.170 HD
HETATM    6  N   UNL     1     -39.790 -50.369  11.430  1.00  0.00    -0.346 N 
ATOM      7  HN  UNL     1     -39.039 -50.924  11.020  1.00  0.00     0.167 HD
HETATM    8  C   UNL     1     -39.804 -49.072  11.646  1.00  0.00     0.188 A 
HETATM    9  N   UNL     1     -42.811 -52.230  12.488  1.00  0.00    -0.317 N 
ATOM     10  HN  UNL     1     -43.254 -53.145  12.569  1.00  0.00     0.170 HD
HETATM   11  C   UNL     1     -41.591 -52.091  11.931  1.00  0.00     0.132 A 
HETATM   12  C   UNL     1     -43.424 -51.116  12.934  1.00  0.00     0.182 A 
HETATM   13 CL   UNL     1     -44.956 -51.362  13.656  1.00  0.00    -0.045 Cl
ENDROOT
BRANCH   1  14
HETATM   14  C   UNL     1     -41.429 -47.290  12.423  1.00  0.00     0.267 C 
HETATM   15  C   UNL     1     -40.730 -46.175  11.664  1.00  0.00     0.250 C 
HETATM   16  C   UNL     1     -41.620 -45.904  10.464  1.00  0.00     0.187 C 
HETATM   17  F   UNL     1     -39.485 -46.526  11.262  1.00  0.00    -0.242 F 
HETATM   18  C   UNL     1     -42.970 -46.528  10.818  1.00  0.00     0.179 C 
HETATM   19  O   UNL     1     -42.826 -47.212  12.081  1.00  0.00    -0.353 OA
BRANCH  16  20
HETATM   20  O   UNL     1     -41.743 -44.499  10.219  1.00  0.00    -0.390 OA
HETATM   21  H   UNL     1     -42.658 -44.291   9.961  1.00  0.00     0.210 HD
ENDBRANCH  16  20
BRANCH  18  22
HETATM   22  C   UNL     1     -43.438 -47.543   9.766  1.00  0.00     0.198 C 
BRANCH  22  23
HETATM   23  O   UNL     1     -42.312 -48.139   9.125  1.00  0.00    -0.398 OA
HETATM   24  H   UNL     1     -42.636 -48.520   8.288  1.00  0.00     0.209 HD
ENDBRANCH  22  23
ENDBRANCH  18  22
ENDBRANCH   1  14
BRANCH  11  25
HETATM   25  N   UNL     1     -40.948 -53.222  11.444  1.00  0.00    -0.383 N 
HETATM   26  H   UNL     1     -41.260 -54.075  11.886  1.00  0.00     0.157 HD
HETATM   27  H   UNL     1     -39.953 -53.097  11.304  1.00  0.00     0.157 HD
ENDBRANCH  11  25
TORSDOF 5
ENDMDL
MODEL 4
REMARK VINA RESULT:      -6.0      3.251      5.535
REMARK  5 active torsions:
REMARK  status: ('A' for Active; 'I' for Inactive)
REMARK    1  A    between atoms: N_1  and  C_3 
REMARK    2  A    between atoms: C_14  and  N_19 
REMARK    3  A    between atoms: C_16  and  O_21 
REMARK    4  A    between atoms: C_17  and  C_22 
REMARK    5  A    between atoms: C_22  and  O_23 
ROOT
HETATM    1  N   UNL     1     -39.966 -48.310  11.709  1.00  0.00    -0.297 N 
HETATM    2  C   UNL     1     -41.053 -47.746  11.092  1.00  0.00     0.144 A 
HETATM    3  C   UNL     1     -41.332 -46.608  11.829  1.00  0.00     0.122 A 
HETATM    4  N   UNL     1     -41.722 -48.195  10.017  1.00  0.00    -0.316 N 
ATOM      5  HN  UNL     1     -41.489 -49.042   9.498  1.00  0.00     0.170 HD
HETATM    6  N   UNL     1     -40.415 -46.442  12.841  1.00  0.00    -0.346 N 
ATOM      7  HN  UNL     1     -40.378 -45.691  13.530  1.00  0.00     0.167 HD
HETATM    8  C   UNL     1     -39.597 -47.465  12.724  1.00  0.00     0.188 A 
HETATM    9  N   UNL     1     -43.137 -46.236  10.340  1.00  0.00    -0.317 N 
ATOM     10  HN  UNL     1     -43.931 -45.695   9.999  1.00  0.00     0.170 HD
HETATM   11  C   UNL     1     -42.441 -45.846  11.427  1.00  0.00     0.132 A 
HETATM   12  C   UNL     1     -42.744 -47.366   9.720  1.00  0.00     0.182 A 
HETATM   13 CL   UNL     1     -43.650 -47.792   8.331  1.00  0.00    -0.045 Cl
ENDROOT
BRANCH   1  14
HETATM   14  C   UNL     1     -39.395 -49.594  11.364  1.00  0.00     0.267 C 
HETATM   15  C   UNL     1     -38.462 -50.246  12.370  1.00  0.00     0.250 C 
HETATM   16  C   UNL     1     -39.343 -51.203  13.153  1.00  0.00     0.187 C 
HETATM   17  F   UNL     1     -37.887 -49.343  13.200  1.00  0.00    -0.242 F 
HETATM   18  C   UNL     1     -40.593 -51.392  12.293  1.00  0.00     0.179 C 
HETATM   19  O   UNL     1     -40.487 -50.511  11.155  1.00  0.00    -0.353 OA
BRANCH  16  20
HETATM   20  O   UNL     1     -38.675 -52.448  13.383  1.00  0.00    -0.390 OA
HETATM   21  H   UNL     1     -37.723 -52.345  13.209  1.00  0.00     0.210 HD
ENDBRANCH  16  20
BRANCH  18  22
HETATM   22  C   UNL     1     -41.881 -51.051  13.054  1.00  0.00     0.198 C 
BRANCH  22  23
HETATM   23  O   UNL     1     -42.805 -50.396  12.187  1.00  0.00    -0.398 OA
HETATM   24  H   UNL     1     -42.360 -50.302  11.324  1.00  0.00     0.209 HD
ENDBRANCH  22  23
ENDBRANCH  18  22
ENDBRANCH   1  14
BRANCH  11  25
HETATM   25  N   UNL     1     -42.838 -44.695  12.096  1.00  0.00    -0.383 N 
HETATM   26  H   UNL     1     -43.755 -44.778  12.511  1.00  0.00     0.157 HD
HETATM   27  H   UNL     1     -42.615 -43.839  11.603  1.00  0.00     0.157 HD
ENDBRANCH  11  25
TORSDOF 5
ENDMDL
MODEL 5
REMARK VINA RESULT:      -6.0      4.120      6.392
REMARK  5 active torsions:
REMARK  status: ('A' for Active; 'I' for Inactive)
REMARK    1  A    between atoms: N_1  and  C_3 
REMARK    2  A    between atoms: C_14  and  N_19 
REMARK    3  A    between atoms: C_16  and  O_21 
REMARK    4  A    between atoms: C_17  and  C_22 
REMARK    5  A    between atoms: C_22  and  O_23 
ROOT
HETATM    1  N   UNL     1     -39.822 -49.515  11.911  1.00  0.00    -0.297 N 
HETATM    2  C   UNL     1     -40.321 -48.368  11.351  1.00  0.00     0.144 A 
HETATM    3  C   UNL     1     -41.636 -48.666  11.036  1.00  0.00     0.122 A 
HETATM    4  N   UNL     1     -39.684 -47.205  11.135  1.00  0.00    -0.316 N 
ATOM      5  HN  UNL     1     -38.711 -47.020  11.379  1.00  0.00     0.170 HD
HETATM    6  N   UNL     1     -41.958 -49.943  11.435  1.00  0.00    -0.346 N 
ATOM      7  HN  UNL     1     -42.854 -50.420  11.332  1.00  0.00     0.167 HD
HETATM    8  C   UNL     1     -40.856 -50.413  11.977  1.00  0.00     0.188 A 
HETATM    9  N   UNL     1     -41.803 -46.461  10.185  1.00  0.00    -0.317 N 
ATOM     10  HN  UNL     1     -42.320 -45.694   9.757  1.00  0.00     0.170 HD
HETATM   11  C   UNL     1     -42.384 -47.658  10.408  1.00  0.00     0.132 A 
HETATM   12  C   UNL     1     -40.514 -46.316  10.550  1.00  0.00     0.182 A 
HETATM   13 CL   UNL     1     -39.843 -44.767  10.268  1.00  0.00    -0.045 Cl
ENDROOT
BRANCH   1  14
HETATM   14  C   UNL     1     -38.438 -49.719  12.279  1.00  0.00     0.267 C 
HETATM   15  C   UNL     1     -37.979 -49.189  13.626  1.00  0.00     0.250 C 
HETATM   16  C   UNL     1     -38.074 -50.378  14.565  1.00  0.00     0.187 C 
HETATM   17  F   UNL     1     -38.753 -48.170  14.070  1.00  0.00    -0.242 F 
HETATM   18  C   UNL     1     -38.138 -51.604  13.654  1.00  0.00     0.179 C 
HETATM   19  O   UNL     1     -38.197 -51.140  12.289  1.00  0.00    -0.353 OA
BRANCH  16  20
HETATM   20  O   UNL     1     -36.942 -50.436  15.440  1.00  0.00    -0.390 OA
HETATM   21  H   UNL     1     -36.509 -49.565  15.473  1.00  0.00     0.210 HD
ENDBRANCH  16  20
BRANCH  18  22
HETATM   22  C   UNL     1     -39.375 -52.469  13.928  1.00  0.00     0.198 C 
BRANCH  22  23
HETATM   23  O   UNL     1     -39.295 -53.687  13.190  1.00  0.00    -0.398 OA
HETATM   24  H   UNL     1     -40.021 -53.667  12.539  1.00  0.00     0.209 HD
ENDBRANCH  22  23
ENDBRANCH  18  22
ENDBRANCH   1  14
BRANCH  11  25
HETATM   25  N   UNL     1     -43.705 -47.840  10.021  1.00  0.00    -0.383 N 
HETATM   26  H   UNL     1     -44.361 -47.354  10.616  1.00  0.00     0.157 HD
HETATM   27  H   UNL     1     -43.924 -48.791   9.751  1.00  0.00     0.157 HD
ENDBRANCH  11  25
TORSDOF 5
ENDMDL
MODEL 6
REMARK VINA RESULT:      -5.9      4.766      6.507
REMARK  5 active torsions:
REMARK  status: ('A' for Active; 'I' for Inactive)
REMARK    1  A    between atoms: N_1  and  C_3 
REMARK    2  A    between atoms: C_14  and  N_19 
REMARK    3  A    between atoms: C_16  and  O_21 
REMARK    4  A    between atoms: C_17  and  C_22 
REMARK    5  A    between atoms: C_22  and  O_23 
ROOT
HETATM    1  N   UNL     1     -42.221 -50.913  13.917  1.00  0.00    -0.297 N 
HETATM    2  C   UNL     1     -41.185 -50.601  13.076  1.00  0.00     0.144 A 
HETATM    3  C   UNL     1     -41.761 -49.860  12.059  1.00  0.00     0.122 A 
HETATM    4  N   UNL     1     -39.891 -50.944  13.191  1.00  0.00    -0.316 N 
ATOM      5  HN  UNL     1     -39.500 -51.495  13.956  1.00  0.00     0.170 HD
HETATM    6  N   UNL     1     -43.104 -49.673  12.288  1.00  0.00    -0.346 N 
ATOM      7  HN  UNL     1     -43.770 -49.165  11.706  1.00  0.00     0.167 HD
HETATM    8  C   UNL     1     -43.341 -50.296  13.422  1.00  0.00     0.188 A 
HETATM    9  N   UNL     1     -39.599 -49.728  11.098  1.00  0.00    -0.317 N 
ATOM     10  HN  UNL     1     -38.945 -49.413  10.382  1.00  0.00     0.170 HD
HETATM   11  C   UNL     1     -40.913 -49.432  11.024  1.00  0.00     0.132 A 
HETATM   12  C   UNL     1     -39.181 -50.456  12.153  1.00  0.00     0.182 A 
HETATM   13 CL   UNL     1     -37.500 -50.774  12.203  1.00  0.00    -0.045 Cl
ENDROOT
BRANCH   1  14
HETATM   14  C   UNL     1     -42.120 -51.794  15.061  1.00  0.00     0.267 C 
HETATM   15  C   UNL     1     -43.349 -52.599  15.445  1.00  0.00     0.250 C 
HETATM   16  C   UNL     1     -43.150 -53.951  14.786  1.00  0.00     0.187 C 
HETATM   17  F   UNL     1     -44.497 -52.024  15.013  1.00  0.00    -0.242 F 
HETATM   18  C   UNL     1     -41.660 -54.018  14.450  1.00  0.00     0.179 C 
HETATM   19  O   UNL     1     -41.072 -52.743  14.785  1.00  0.00    -0.353 OA
BRANCH  16  20
HETATM   20  O   UNL     1     -43.535 -55.015  15.663  1.00  0.00    -0.390 OA
HETATM   21  H   UNL     1     -44.129 -55.626  15.194  1.00  0.00     0.210 HD
ENDBRANCH  16  20
BRANCH  18  22
HETATM   22  C   UNL     1     -41.410 -54.293  12.961  1.00  0.00     0.198 C 
BRANCH  22  23
HETATM   23  O   UNL     1     -40.074 -53.934  12.613  1.00  0.00    -0.398 OA
HETATM   24  H   UNL     1     -39.987 -54.080  11.652  1.00  0.00     0.209 HD
ENDBRANCH  22  23
ENDBRANCH  18  22
ENDBRANCH   1  14
BRANCH  11  25
HETATM   25  N   UNL     1     -41.372 -48.702   9.936  1.00  0.00    -0.383 N 
HETATM   26  H   UNL     1     -41.189 -47.712  10.020  1.00  0.00     0.157 HD
HETATM   27  H   UNL     1     -42.285 -48.989   9.608  1.00  0.00     0.157 HD
ENDBRANCH  11  25
TORSDOF 5
ENDMDL
MODEL 7
REMARK VINA RESULT:      -5.8      5.139      6.909
REMARK  5 active torsions:
REMARK  status: ('A' for Active; 'I' for Inactive)
REMARK    1  A    between atoms: N_1  and  C_3 
REMARK    2  A    between atoms: C_14  and  N_19 
REMARK    3  A    between atoms: C_16  and  O_21 
REMARK    4  A    between atoms: C_17  and  C_22 
REMARK    5  A    between atoms: C_22  and  O_23 
ROOT
HETATM    1  N   UNL     1     -42.007 -52.132  13.642  1.00  0.00    -0.297 N 
HETATM    2  C   UNL     1     -40.922 -51.546  13.042  1.00  0.00     0.144 A 
HETATM    3  C   UNL     1     -41.457 -50.684  12.100  1.00  0.00     0.122 A 
HETATM    4  N   UNL     1     -39.620 -51.759  13.293  1.00  0.00    -0.316 N 
ATOM      5  HN  UNL     1     -39.260 -52.405  13.996  1.00  0.00     0.170 HD
HETATM    6  N   UNL     1     -42.832 -50.697  12.148  1.00  0.00    -0.346 N 
ATOM      7  HN  UNL     1     -43.480 -50.159  11.572  1.00  0.00     0.167 HD
HETATM    8  C   UNL     1     -43.126 -51.556  13.099  1.00  0.00     0.188 A 
HETATM    9  N   UNL     1     -39.227 -50.125  11.527  1.00  0.00    -0.317 N 
ATOM     10  HN  UNL     1     -38.535 -49.603  10.990  1.00  0.00     0.170 HD
HETATM   11  C   UNL     1     -40.548 -49.967  11.305  1.00  0.00     0.132 A 
HETATM   12  C   UNL     1     -38.855 -50.998  12.483  1.00  0.00     0.182 A 
HETATM   13 CL   UNL     1     -37.167 -51.132  12.735  1.00  0.00    -0.045 Cl
ENDROOT
BRANCH   1  14
HETATM   14  C   UNL     1     -41.935 -53.206  14.608  1.00  0.00     0.267 C 
HETATM   15  C   UNL     1     -42.755 -53.070  15.879  1.00  0.00     0.250 C 
HETATM   16  C   UNL     1     -44.037 -53.833  15.598  1.00  0.00     0.187 C 
HETATM   17  F   UNL     1     -43.029 -51.778  16.181  1.00  0.00    -0.242 F 
HETATM   18  C   UNL     1     -43.716 -54.728  14.401  1.00  0.00     0.179 C 
HETATM   19  O   UNL     1     -42.382 -54.409  13.953  1.00  0.00    -0.353 OA
BRANCH  16  20
HETATM   20  O   UNL     1     -44.437 -54.607  16.735  1.00  0.00    -0.390 OA
HETATM   21  H   UNL     1     -45.408 -54.616  16.799  1.00  0.00     0.210 HD
ENDBRANCH  16  20
BRANCH  18  22
HETATM   22  C   UNL     1     -44.687 -54.507  13.232  1.00  0.00     0.198 C 
BRANCH  22  23
HETATM   23  O   UNL     1     -45.974 -55.027  13.559  1.00  0.00    -0.398 OA
HETATM   24  H   UNL     1     -46.305 -55.478  12.760  1.00  0.00     0.209 HD
ENDBRANCH  22  23
ENDBRANCH  18  22
ENDBRANCH   1  14
BRANCH  11  25
HETATM   25  N   UNL     1     -40.957 -49.089  10.310  1.00  0.00    -0.383 N 
HETATM   26  H   UNL     1     -41.719 -49.451   9.754  1.00  0.00     0.157 HD
HETATM   27  H   UNL     1     -40.192 -48.634   9.828  1.00  0.00     0.157 HD
ENDBRANCH  11  25
TORSDOF 5
ENDMDL
MODEL 8
REMARK VINA RESULT:      -5.8      4.594      5.855
REMARK  5 active torsions:
REMARK  status: ('A' for Active; 'I' for Inactive)
REMARK    1  A    between atoms: N_1  and  C_3 
REMARK    2  A    between atoms: C_14  and  N_19 
REMARK    3  A    between atoms: C_16  and  O_21 
REMARK    4  A    between atoms: C_17  and  C_22 
REMARK    5  A    between atoms: C_22  and  O_23 
ROOT
HETATM    1  N   UNL     1     -43.512 -51.281  13.909  1.00  0.00    -0.297 N 
HETATM    2  C   UNL     1     -42.251 -51.619  13.492  1.00  0.00     0.144 A 
HETATM    3  C   UNL     1     -41.961 -50.730  12.471  1.00  0.00     0.122 A 
HETATM    4  N   UNL     1     -41.461 -52.603  13.953  1.00  0.00    -0.316 N 
ATOM      5  HN  UNL     1     -41.708 -53.243  14.708  1.00  0.00     0.170 HD
HETATM    6  N   UNL     1     -42.991 -49.835  12.294  1.00  0.00    -0.346 N 
ATOM      7  HN  UNL     1     -43.043 -49.073  11.618  1.00  0.00     0.167 HD
HETATM    8  C   UNL     1     -43.892 -50.178  13.188  1.00  0.00     0.188 A 
HETATM    9  N   UNL     1     -39.875 -51.835  12.267  1.00  0.00    -0.317 N 
ATOM     10  HN  UNL     1     -38.954 -51.957  11.849  1.00  0.00     0.170 HD
HETATM   11  C   UNL     1     -40.720 -50.878  11.832  1.00  0.00     0.132 A 
HETATM   12  C   UNL     1     -40.294 -52.625  13.276  1.00  0.00     0.182 A 
HETATM   13 CL   UNL     1     -39.167 -53.801  13.801  1.00  0.00    -0.045 Cl
ENDROOT
BRANCH   1  14
HETATM   14  C   UNL     1     -44.288 -52.023  14.879  1.00  0.00     0.267 C 
HETATM   15  C   UNL     1     -45.201 -51.238  15.805  1.00  0.00     0.250 C 
HETATM   16  C   UNL     1     -46.566 -51.293  15.142  1.00  0.00     0.187 C 
HETATM   17  F   UNL     1     -44.798 -49.954  15.958  1.00  0.00    -0.242 F 
HETATM   18  C   UNL     1     -46.482 -52.449  14.146  1.00  0.00     0.179 C 
HETATM   19  O   UNL     1     -45.126 -52.943  14.152  1.00  0.00    -0.353 OA
BRANCH  16  20
HETATM   20  O   UNL     1     -47.600 -51.511  16.108  1.00  0.00    -0.390 OA
HETATM   21  H   UNL     1     -47.863 -52.448  16.099  1.00  0.00     0.210 HD
ENDBRANCH  16  20
BRANCH  18  22
HETATM   22  C   UNL     1     -46.835 -52.013  12.717  1.00  0.00     0.198 C 
BRANCH  22  23
HETATM   23  O   UNL     1     -46.106 -52.793  11.771  1.00  0.00    -0.398 OA
HETATM   24  H   UNL     1     -46.732 -53.447  11.407  1.00  0.00     0.209 HD
ENDBRANCH  22  23
ENDBRANCH  18  22
ENDBRANCH   1  14
BRANCH  11  25
HETATM   25  N   UNL     1     -40.320 -50.064  10.780  1.00  0.00    -0.383 N 
HETATM   26  H   UNL     1     -40.015 -49.150  11.082  1.00  0.00     0.157 HD
HETATM   27  H   UNL     1     -40.925 -50.119   9.969  1.00  0.00     0.157 HD
ENDBRANCH  11  25
TORSDOF 5
ENDMDL
MODEL 9
REMARK VINA RESULT:      -5.7      4.537      6.477
REMARK  5 active torsions:
REMARK  status: ('A' for Active; 'I' for Inactive)
REMARK    1  A    between atoms: N_1  and  C_3 
REMARK    2  A    between atoms: C_14  and  N_19 
REMARK    3  A    between atoms: C_16  and  O_21 
REMARK    4  A    between atoms: C_17  and  C_22 
REMARK    5  A    between atoms: C_22  and  O_23 
ROOT
HETATM    1  N   UNL     1     -42.374 -52.094  13.485  1.00  0.00    -0.297 N 
HETATM    2  C   UNL     1     -43.620 -51.830  13.992  1.00  0.00     0.144 A 
HETATM    3  C   UNL     1     -44.503 -52.317  13.044  1.00  0.00     0.122 A 
HETATM    4  N   UNL     1     -43.933 -51.221  15.148  1.00  0.00    -0.316 N 
ATOM      5  HN  UNL     1     -43.254 -50.872  15.825  1.00  0.00     0.170 HD
HETATM    6  N   UNL     1     -43.827 -52.911  12.004  1.00  0.00    -0.346 N 
ATOM      7  HN  UNL     1     -44.224 -53.354  11.175  1.00  0.00     0.167 HD
HETATM    8  C   UNL     1     -42.555 -52.782  12.313  1.00  0.00     0.188 A 
HETATM    9  N   UNL     1     -46.247 -51.557  14.457  1.00  0.00    -0.317 N 
ATOM     10  HN  UNL     1     -47.231 -51.437  14.694  1.00  0.00     0.170 HD
HETATM   11  C   UNL     1     -45.872 -52.143  13.301  1.00  0.00     0.132 A 
HETATM   12  C   UNL     1     -45.272 -51.136  15.288  1.00  0.00     0.182 A 
HETATM   13 CL   UNL     1     -45.812 -50.428  16.749  1.00  0.00    -0.045 Cl
ENDROOT
BRANCH   1  14
HETATM   14  C   UNL     1     -41.131 -51.647  14.075  1.00  0.00     0.267 C 
HETATM   15  C   UNL     1     -39.843 -52.277  13.574  1.00  0.00     0.250 C 
HETATM   16  C   UNL     1     -39.323 -51.315  12.521  1.00  0.00     0.187 C 
HETATM   17  F   UNL     1     -40.045 -53.504  13.037  1.00  0.00    -0.242 F 
HETATM   18  C   UNL     1     -40.060 -50.000  12.781  1.00  0.00     0.179 C 
HETATM   19  O   UNL     1     -41.021 -50.231  13.832  1.00  0.00    -0.353 OA
BRANCH  16  20
HETATM   20  O   UNL     1     -37.905 -51.148  12.629  1.00  0.00    -0.390 OA
HETATM   21  H   UNL     1     -37.692 -50.202  12.703  1.00  0.00     0.210 HD
ENDBRANCH  16  20
BRANCH  18  22
HETATM   22  C   UNL     1     -40.807 -49.496  11.539  1.00  0.00     0.198 C 
BRANCH  22  23
HETATM   23  O   UNL     1     -40.286 -50.118  10.367  1.00  0.00    -0.398 OA
HETATM   24  H   UNL     1     -39.514 -50.643  10.648  1.00  0.00     0.209 HD
ENDBRANCH  22  23
ENDBRANCH  18  22
ENDBRANCH   1  14
BRANCH  11  25
HETATM   25  N   UNL     1     -46.857 -52.566  12.418  1.00  0.00    -0.383 N 
HETATM   26  H   UNL     1     -47.776 -52.595  12.837  1.00  0.00     0.157 HD
HETATM   27  H   UNL     1     -46.576 -53.345  11.836  1.00  0.00     0.157 HD
ENDBRANCH  11  25
TORSDOF 5
ENDMDL
