MODEL 1
REMARK VINA RESULT:      -6.7      0.000      0.000
REMARK  4 active torsions:
REMARK  status: ('A' for Active; 'I' for Inactive)
REMARK    1  A    between atoms: C_2  and  C_5 
REMARK    2  A    between atoms: N_12  and  C_13 
REMARK    3  A    between atoms: C_13  and  C_14 
REMARK       I    between atoms: C_14  and  N_16 
REMARK    4  A    between atoms: N_16  and  C_17 
ROOT
HETATM    1  C   UNL     1     -39.315 -50.138  12.229  1.00  0.00     0.123 A 
HETATM    2  N   UNL     1     -39.422 -49.055  11.471  1.00  0.00    -0.271 N 
ATOM      3  HN  UNL     1     -38.832 -48.224  11.520  1.00  0.00     0.190 HD
HETATM    4  N   UNL     1     -40.464 -49.253  10.616  1.00  0.00    -0.227 N 
ATOM      5  HN  UNL     1     -40.775 -48.581   9.915  1.00  0.00     0.210 HD
HETATM    6  N   UNL     1     -41.015 -50.434  10.819  1.00  0.00    -0.224 N 
ATOM      7  HN  UNL     1     -41.816 -50.833  10.329  1.00  0.00     0.210 HD
HETATM    8  N   UNL     1     -40.299 -51.005  11.812  1.00  0.00    -0.254 N 
ENDROOT
BRANCH   8   9
HETATM    9  C   UNL     1     -40.664 -52.349  12.180  1.00  0.00     0.254 C 
BRANCH   9  10
HETATM   10  C   UNL     1     -41.987 -52.415  12.909  1.00  0.00     0.237 C 
HETATM   11  O   UNL     1     -42.049 -52.198  14.118  1.00  0.00    -0.272 OA
HETATM   12  N   UNL     1     -43.074 -52.801  12.151  1.00  0.00    -0.355 N 
HETATM   13  H   UNL     1     -42.949 -52.917  11.146  1.00  0.00     0.162 HD
BRANCH  12  14
HETATM   14  C   UNL     1     -44.437 -52.956  12.675  1.00  0.00     0.084 C 
HETATM   15  C   UNL     1     -44.942 -51.652  13.317  1.00  0.00     0.025 C 
HETATM   16  C   UNL     1     -46.458 -51.616  13.483  1.00  0.00     0.002 C 
HETATM   17  C   UNL     1     -46.971 -52.210  14.791  1.00  0.00     0.000 C 
HETATM   18  C   UNL     1     -46.303 -53.496  15.268  1.00  0.00     0.000 C 
HETATM   19  C   UNL     1     -45.933 -54.476  14.158  1.00  0.00     0.002 C 
HETATM   20  C   UNL     1     -44.548 -54.207  13.562  1.00  0.00     0.025 C 
ENDBRANCH  12  14
ENDBRANCH   9  10
ENDBRANCH   8   9
BRANCH   1  21
HETATM   21  C   UNL     1     -38.291 -50.242  13.347  1.00  0.00     0.010 C 
HETATM   22  C   UNL     1     -37.731 -48.827  13.611  1.00  0.00     0.023 C 
HETATM   23  C   UNL     1     -37.130 -51.144  12.867  1.00  0.00     0.023 C 
HETATM   24  C   UNL     1     -38.794 -50.810  14.675  1.00  0.00     0.023 C 
ENDBRANCH   1  21
TORSDOF 4
ENDMDL
MODEL 2
REMARK VINA RESULT:      -6.4      1.783      2.305
REMARK  4 active torsions:
REMARK  status: ('A' for Active; 'I' for Inactive)
REMARK    1  A    between atoms: C_2  and  C_5 
REMARK    2  A    between atoms: N_12  and  C_13 
REMARK    3  A    between atoms: C_13  and  C_14 
REMARK       I    between atoms: C_14  and  N_16 
REMARK    4  A    between atoms: N_16  and  C_17 
ROOT
HETATM    1  C   UNL     1     -39.902 -49.009  12.206  1.00  0.00     0.123 A 
HETATM    2  N   UNL     1     -40.320 -48.668  10.994  1.00  0.00    -0.271 N 
ATOM      3  HN  UNL     1     -40.409 -47.718  10.631  1.00  0.00     0.190 HD
HETATM    4  N   UNL     1     -40.609 -49.817  10.321  1.00  0.00    -0.227 N 
ATOM      5  HN  UNL     1     -40.952 -49.856   9.361  1.00  0.00     0.210 HD
HETATM    6  N   UNL     1     -40.385 -50.871  11.081  1.00  0.00    -0.224 N 
ATOM      7  HN  UNL     1     -40.528 -51.851  10.834  1.00  0.00     0.210 HD
HETATM    8  N   UNL     1     -39.929 -50.384  12.255  1.00  0.00    -0.254 N 
ENDROOT
BRANCH   8   9
HETATM    9  C   UNL     1     -39.541 -51.353  13.248  1.00  0.00     0.254 C 
BRANCH   9  10
HETATM   10  C   UNL     1     -40.519 -52.501  13.356  1.00  0.00     0.237 C 
HETATM   11  O   UNL     1     -40.398 -53.499  12.647  1.00  0.00    -0.272 OA
HETATM   12  N   UNL     1     -41.570 -52.316  14.232  1.00  0.00    -0.355 N 
HETATM   13  H   UNL     1     -41.573 -51.482  14.817  1.00  0.00     0.162 HD
BRANCH  12  14
HETATM   14  C   UNL     1     -42.642 -53.294  14.459  1.00  0.00     0.084 C 
HETATM   15  C   UNL     1     -43.697 -53.237  13.342  1.00  0.00     0.025 C 
HETATM   16  C   UNL     1     -44.577 -54.483  13.286  1.00  0.00     0.002 C 
HETATM   17  C   UNL     1     -45.818 -54.428  14.172  1.00  0.00     0.000 C 
HETATM   18  C   UNL     1     -45.640 -53.828  15.563  1.00  0.00     0.000 C 
HETATM   19  C   UNL     1     -44.317 -54.165  16.243  1.00  0.00     0.002 C 
HETATM   20  C   UNL     1     -43.196 -53.183  15.888  1.00  0.00     0.025 C 
ENDBRANCH  12  14
ENDBRANCH   9  10
ENDBRANCH   8   9
BRANCH   1  21
HETATM   21  C   UNL     1     -39.551 -47.972  13.258  1.00  0.00     0.010 C 
HETATM   22  C   UNL     1     -39.716 -46.574  12.622  1.00  0.00     0.023 C 
HETATM   23  C   UNL     1     -38.067 -48.156  13.652  1.00  0.00     0.023 C 
HETATM   24  C   UNL     1     -40.374 -48.008  14.547  1.00  0.00     0.023 C 
ENDBRANCH   1  21
TORSDOF 4
ENDMDL
MODEL 3
REMARK VINA RESULT:      -6.4      1.846      2.536
REMARK  4 active torsions:
REMARK  status: ('A' for Active; 'I' for Inactive)
REMARK    1  A    between atoms: C_2  and  C_5 
REMARK    2  A    between atoms: N_12  and  C_13 
REMARK    3  A    between atoms: C_13  and  C_14 
REMARK       I    between atoms: C_14  and  N_16 
REMARK    4  A    between atoms: N_16  and  C_17 
ROOT
HETATM    1  C   UNL     1     -39.033 -48.896  12.464  1.00  0.00     0.123 A 
HETATM    2  N   UNL     1     -37.886 -49.344  11.971  1.00  0.00    -0.271 N 
ATOM      3  HN  UNL     1     -36.959 -49.198  12.373  1.00  0.00     0.190 HD
HETATM    4  N   UNL     1     -38.170 -50.033  10.830  1.00  0.00    -0.227 N 
ATOM      5  HN  UNL     1     -37.474 -50.489  10.240  1.00  0.00     0.210 HD
HETATM    6  N   UNL     1     -39.467 -50.028  10.593  1.00  0.00    -0.224 N 
ATOM      7  HN  UNL     1     -39.951 -50.456   9.805  1.00  0.00     0.210 HD
HETATM    8  N   UNL     1     -40.021 -49.336  11.613  1.00  0.00    -0.254 N 
ENDROOT
BRANCH   8   9
HETATM    9  C   UNL     1     -41.458 -49.245  11.624  1.00  0.00     0.254 C 
BRANCH   9  10
HETATM   10  C   UNL     1     -42.105 -50.318  12.471  1.00  0.00     0.237 C 
HETATM   11  O   UNL     1     -41.537 -51.391  12.667  1.00  0.00    -0.272 OA
HETATM   12  N   UNL     1     -43.376 -50.038  12.932  1.00  0.00    -0.355 N 
HETATM   13  H   UNL     1     -43.758 -49.108  12.767  1.00  0.00     0.162 HD
BRANCH  12  14
HETATM   14  C   UNL     1     -44.185 -50.957  13.742  1.00  0.00     0.084 C 
HETATM   15  C   UNL     1     -45.547 -51.233  13.082  1.00  0.00     0.025 C 
HETATM   16  C   UNL     1     -46.237 -52.478  13.632  1.00  0.00     0.002 C 
HETATM   17  C   UNL     1     -47.116 -52.233  14.855  1.00  0.00     0.000 C 
HETATM   18  C   UNL     1     -46.566 -51.282  15.914  1.00  0.00     0.000 C 
HETATM   19  C   UNL     1     -45.062 -51.383  16.149  1.00  0.00     0.002 C 
HETATM   20  C   UNL     1     -44.249 -50.492  15.205  1.00  0.00     0.025 C 
ENDBRANCH  12  14
ENDBRANCH   9  10
ENDBRANCH   8   9
BRANCH   1  21
HETATM   21  C   UNL     1     -39.091 -48.026  13.707  1.00  0.00     0.010 C 
HETATM   22  C   UNL     1     -37.645 -47.806  14.202  1.00  0.00     0.023 C 
HETATM   23  C   UNL     1     -39.871 -48.788  14.804  1.00  0.00     0.023 C 
HETATM   24  C   UNL     1     -39.752 -46.656  13.545  1.00  0.00     0.023 C 
ENDBRANCH   1  21
TORSDOF 4
ENDMDL
MODEL 4
REMARK VINA RESULT:      -6.3      1.462      2.156
REMARK  4 active torsions:
REMARK  status: ('A' for Active; 'I' for Inactive)
REMARK    1  A    between atoms: C_2  and  C_5 
REMARK    2  A    between atoms: N_12  and  C_13 
REMARK    3  A    between atoms: C_13  and  C_14 
REMARK       I    between atoms: C_14  and  N_16 
REMARK    4  A    between atoms: N_16  and  C_17 
ROOT
HETATM    1  C   UNL     1     -38.823 -50.858  13.106  1.00  0.00     0.123 A 
HETATM    2  N   UNL     1     -38.097 -51.347  14.102  1.00  0.00    -0.271 N 
ATOM      3  HN  UNL     1     -37.282 -50.906  14.528  1.00  0.00     0.190 HD
HETATM    4  N   UNL     1     -38.639 -52.547  14.455  1.00  0.00    -0.227 N 
ATOM      5  HN  UNL     1     -38.283 -53.149  15.198  1.00  0.00     0.210 HD
HETATM    6  N   UNL     1     -39.685 -52.825  13.702  1.00  0.00    -0.224 N 
ATOM      7  HN  UNL     1     -40.270 -53.660  13.743  1.00  0.00     0.210 HD
HETATM    8  N   UNL     1     -39.823 -51.772  12.866  1.00  0.00    -0.254 N 
ENDROOT
BRANCH   8   9
HETATM    9  C   UNL     1     -40.954 -51.801  11.975  1.00  0.00     0.254 C 
BRANCH   9  10
HETATM   10  C   UNL     1     -42.259 -52.050  12.696  1.00  0.00     0.237 C 
HETATM   11  O   UNL     1     -42.415 -51.681  13.859  1.00  0.00    -0.272 OA
HETATM   12  N   UNL     1     -43.208 -52.768  11.996  1.00  0.00    -0.355 N 
HETATM   13  H   UNL     1     -43.021 -52.997  11.021  1.00  0.00     0.162 HD
BRANCH  12  14
HETATM   14  C   UNL     1     -44.525 -53.141  12.528  1.00  0.00     0.084 C 
HETATM   15  C   UNL     1     -45.206 -51.949  13.222  1.00  0.00     0.025 C 
HETATM   16  C   UNL     1     -46.709 -52.142  13.405  1.00  0.00     0.002 C 
HETATM   17  C   UNL     1     -47.108 -52.851  14.695  1.00  0.00     0.000 C 
HETATM   18  C   UNL     1     -46.251 -54.040  15.117  1.00  0.00     0.000 C 
HETATM   19  C   UNL     1     -45.758 -54.915  13.969  1.00  0.00     0.002 C 
HETATM   20  C   UNL     1     -44.438 -54.424  13.369  1.00  0.00     0.025 C 
ENDBRANCH  12  14
ENDBRANCH   9  10
ENDBRANCH   8   9
BRANCH   1  21
HETATM   21  C   UNL     1     -38.467 -49.553  12.415  1.00  0.00     0.010 C 
HETATM   22  C   UNL     1     -37.496 -49.876  11.259  1.00  0.00     0.023 C 
HETATM   23  C   UNL     1     -37.733 -48.645  13.429  1.00  0.00     0.023 C 
HETATM   24  C   UNL     1     -39.636 -48.749  11.843  1.00  0.00     0.023 C 
ENDBRANCH   1  21
TORSDOF 4
ENDMDL
MODEL 5
REMARK VINA RESULT:      -6.1      1.530      2.266
REMARK  4 active torsions:
REMARK  status: ('A' for Active; 'I' for Inactive)
REMARK    1  A    between atoms: C_2  and  C_5 
REMARK    2  A    between atoms: N_12  and  C_13 
REMARK    3  A    between atoms: C_13  and  C_14 
REMARK       I    between atoms: C_14  and  N_16 
REMARK    4  A    between atoms: N_16  and  C_17 
ROOT
HETATM    1  C   UNL     1     -39.747 -49.940  12.171  1.00  0.00     0.123 A 
HETATM    2  N   UNL     1     -39.525 -50.249  10.901  1.00  0.00    -0.271 N 
ATOM      3  HN  UNL     1     -38.726 -50.769  10.537  1.00  0.00     0.190 HD
HETATM    4  N   UNL     1     -40.558 -49.745  10.169  1.00  0.00    -0.227 N 
ATOM      5  HN  UNL     1     -40.650 -49.835   9.157  1.00  0.00     0.210 HD
HETATM    6  N   UNL     1     -41.422 -49.125  10.948  1.00  0.00    -0.224 N 
ATOM      7  HN  UNL     1     -42.278 -48.649  10.663  1.00  0.00     0.210 HD
HETATM    8  N   UNL     1     -40.938 -49.252  12.203  1.00  0.00    -0.254 N 
ENDROOT
BRANCH   8   9
HETATM    9  C   UNL     1     -41.748 -48.710  13.264  1.00  0.00     0.254 C 
BRANCH   9  10
HETATM   10  C   UNL     1     -42.373 -49.783  14.127  1.00  0.00     0.237 C 
HETATM   11  O   UNL     1     -41.975 -49.978  15.274  1.00  0.00    -0.272 OA
HETATM   12  N   UNL     1     -43.345 -50.554  13.521  1.00  0.00    -0.355 N 
HETATM   13  H   UNL     1     -43.652 -50.299  12.584  1.00  0.00     0.162 HD
BRANCH  12  14
HETATM   14  C   UNL     1     -44.050 -51.664  14.175  1.00  0.00     0.084 C 
HETATM   15  C   UNL     1     -43.924 -52.964  13.362  1.00  0.00     0.025 C 
HETATM   16  C   UNL     1     -44.250 -54.212  14.176  1.00  0.00     0.002 C 
HETATM   17  C   UNL     1     -45.724 -54.605  14.178  1.00  0.00     0.000 C 
HETATM   18  C   UNL     1     -46.735 -53.470  14.307  1.00  0.00     0.000 C 
HETATM   19  C   UNL     1     -46.317 -52.342  15.246  1.00  0.00     0.002 C 
HETATM   20  C   UNL     1     -45.486 -51.262  14.547  1.00  0.00     0.025 C 
ENDBRANCH  12  14
ENDBRANCH   9  10
ENDBRANCH   8   9
BRANCH   1  21
HETATM   21  C   UNL     1     -38.759 -50.290  13.271  1.00  0.00     0.010 C 
HETATM   22  C   UNL     1     -37.401 -50.606  12.607  1.00  0.00     0.023 C 
HETATM   23  C   UNL     1     -39.257 -51.566  13.990  1.00  0.00     0.023 C 
HETATM   24  C   UNL     1     -38.529 -49.222  14.341  1.00  0.00     0.023 C 
ENDBRANCH   1  21
TORSDOF 4
ENDMDL
MODEL 6
REMARK VINA RESULT:      -6.1      3.349      4.311
REMARK  4 active torsions:
REMARK  status: ('A' for Active; 'I' for Inactive)
REMARK    1  A    between atoms: C_2  and  C_5 
REMARK    2  A    between atoms: N_12  and  C_13 
REMARK    3  A    between atoms: C_13  and  C_14 
REMARK       I    between atoms: C_14  and  N_16 
REMARK    4  A    between atoms: N_16  and  C_17 
ROOT
HETATM    1  C   UNL     1     -41.734 -46.393  10.602  1.00  0.00     0.123 A 
HETATM    2  N   UNL     1     -42.404 -46.348   9.459  1.00  0.00    -0.271 N 
ATOM      3  HN  UNL     1     -42.672 -45.505   8.950  1.00  0.00     0.190 HD
HETATM    4  N   UNL     1     -42.669 -47.632   9.086  1.00  0.00    -0.227 N 
ATOM      5  HN  UNL     1     -43.174 -47.898   8.241  1.00  0.00     0.210 HD
HETATM    6  N   UNL     1     -42.184 -48.483   9.969  1.00  0.00    -0.224 N 
ATOM      7  HN  UNL     1     -42.248 -49.501   9.944  1.00  0.00     0.210 HD
HETATM    8  N   UNL     1     -41.582 -47.726  10.913  1.00  0.00    -0.254 N 
ENDROOT
BRANCH   8   9
HETATM    9  C   UNL     1     -40.904 -48.432  11.969  1.00  0.00     0.254 C 
BRANCH   9  10
HETATM   10  C   UNL     1     -41.078 -49.931  11.874  1.00  0.00     0.237 C 
HETATM   11  O   UNL     1     -40.414 -50.591  11.077  1.00  0.00    -0.272 OA
HETATM   12  N   UNL     1     -42.063 -50.475  12.674  1.00  0.00    -0.355 N 
HETATM   13  H   UNL     1     -42.536 -49.869  13.342  1.00  0.00     0.162 HD
BRANCH  12  14
HETATM   14  C   UNL     1     -42.410 -51.902  12.708  1.00  0.00     0.084 C 
HETATM   15  C   UNL     1     -43.913 -52.107  12.961  1.00  0.00     0.025 C 
HETATM   16  C   UNL     1     -44.398 -53.503  12.584  1.00  0.00     0.002 C 
HETATM   17  C   UNL     1     -44.285 -54.540  13.697  1.00  0.00     0.000 C 
HETATM   18  C   UNL     1     -43.011 -54.507  14.536  1.00  0.00     0.000 C 
HETATM   19  C   UNL     1     -41.739 -54.180  13.760  1.00  0.00     0.002 C 
HETATM   20  C   UNL     1     -41.476 -52.675  13.652  1.00  0.00     0.025 C 
ENDBRANCH  12  14
ENDBRANCH   9  10
ENDBRANCH   8   9
BRANCH   1  21
HETATM   21  C   UNL     1     -41.324 -45.135  11.347  1.00  0.00     0.010 C 
HETATM   22  C   UNL     1     -42.338 -44.024  10.997  1.00  0.00     0.023 C 
HETATM   23  C   UNL     1     -39.929 -44.698  10.843  1.00  0.00     0.023 C 
HETATM   24  C   UNL     1     -41.247 -45.245  12.871  1.00  0.00     0.023 C 
ENDBRANCH   1  21
TORSDOF 4
ENDMDL
MODEL 7
REMARK VINA RESULT:      -6.1      3.348      6.707
REMARK  4 active torsions:
REMARK  status: ('A' for Active; 'I' for Inactive)
REMARK    1  A    between atoms: C_2  and  C_5 
REMARK    2  A    between atoms: N_12  and  C_13 
REMARK    3  A    between atoms: C_13  and  C_14 
REMARK       I    between atoms: C_14  and  N_16 
REMARK    4  A    between atoms: N_16  and  C_17 
ROOT
HETATM    1  C   UNL     1     -40.604 -53.089  13.279  1.00  0.00     0.123 A 
HETATM    2  N   UNL     1     -40.528 -54.022  12.339  1.00  0.00    -0.271 N 
ATOM      3  HN  UNL     1     -40.232 -54.989  12.472  1.00  0.00     0.190 HD
HETATM    4  N   UNL     1     -40.916 -53.453  11.163  1.00  0.00    -0.227 N 
ATOM      5  HN  UNL     1     -40.956 -53.941  10.268  1.00  0.00     0.210 HD
HETATM    6  N   UNL     1     -41.233 -52.186  11.341  1.00  0.00    -0.224 N 
ATOM      7  HN  UNL     1     -41.544 -51.523  10.631  1.00  0.00     0.210 HD
HETATM    8  N   UNL     1     -41.059 -51.947  12.659  1.00  0.00    -0.254 N 
ENDROOT
BRANCH   8   9
HETATM    9  C   UNL     1     -41.409 -50.632  13.128  1.00  0.00     0.254 C 
BRANCH   9  10
HETATM   10  C   UNL     1     -40.482 -49.559  12.602  1.00  0.00     0.237 C 
HETATM   11  O   UNL     1     -39.431 -49.858  12.038  1.00  0.00    -0.272 OA
HETATM   12  N   UNL     1     -40.859 -48.256  12.861  1.00  0.00    -0.355 N 
HETATM   13  H   UNL     1     -41.768 -48.090  13.292  1.00  0.00     0.162 HD
BRANCH  12  14
HETATM   14  C   UNL     1     -40.084 -47.074  12.464  1.00  0.00     0.084 C 
HETATM   15  C   UNL     1     -40.073 -46.012  13.577  1.00  0.00     0.025 C 
HETATM   16  C   UNL     1     -38.961 -44.981  13.408  1.00  0.00     0.002 C 
HETATM   17  C   UNL     1     -39.335 -43.775  12.552  1.00  0.00     0.000 C 
HETATM   18  C   UNL     1     -40.149 -44.054  11.293  1.00  0.00     0.000 C 
HETATM   19  C   UNL     1     -39.773 -45.337  10.557  1.00  0.00     0.002 C 
HETATM   20  C   UNL     1     -40.522 -46.566  11.081  1.00  0.00     0.025 C 
ENDBRANCH  12  14
ENDBRANCH   9  10
ENDBRANCH   8   9
BRANCH   1  21
HETATM   21  C   UNL     1     -40.182 -53.354  14.714  1.00  0.00     0.010 C 
HETATM   22  C   UNL     1     -41.428 -53.194  15.612  1.00  0.00     0.023 C 
HETATM   23  C   UNL     1     -39.143 -52.285  15.125  1.00  0.00     0.023 C 
HETATM   24  C   UNL     1     -39.565 -54.725  14.997  1.00  0.00     0.023 C 
ENDBRANCH   1  21
TORSDOF 4
ENDMDL
MODEL 8
REMARK VINA RESULT:      -6.1     14.655     15.912
REMARK  4 active torsions:
REMARK  status: ('A' for Active; 'I' for Inactive)
REMARK    1  A    between atoms: C_2  and  C_5 
REMARK    2  A    between atoms: N_12  and  C_13 
REMARK    3  A    between atoms: C_13  and  C_14 
REMARK       I    between atoms: C_14  and  N_16 
REMARK    4  A    between atoms: N_16  and  C_17 
ROOT
HETATM    1  C   UNL     1     -51.257 -45.892   2.164  1.00  0.00     0.123 A 
HETATM    2  N   UNL     1     -52.530 -45.898   2.536  1.00  0.00    -0.271 N 
ATOM      3  HN  UNL     1     -53.050 -45.106   2.916  1.00  0.00     0.190 HD
HETATM    4  N   UNL     1     -53.016 -47.152   2.320  1.00  0.00    -0.227 N 
ATOM      5  HN  UNL     1     -53.974 -47.445   2.516  1.00  0.00     0.210 HD
HETATM    6  N   UNL     1     -52.080 -47.935   1.822  1.00  0.00    -0.224 N 
ATOM      7  HN  UNL     1     -52.167 -48.922   1.577  1.00  0.00     0.210 HD
HETATM    8  N   UNL     1     -50.980 -47.159   1.704  1.00  0.00    -0.254 N 
ENDROOT
BRANCH   8   9
HETATM    9  C   UNL     1     -49.819 -47.772   1.111  1.00  0.00     0.254 C 
BRANCH   9  10
HETATM   10  C   UNL     1     -49.872 -49.283   1.152  1.00  0.00     0.237 C 
HETATM   11  O   UNL     1     -49.806 -49.885   2.223  1.00  0.00    -0.272 OA
HETATM   12  N   UNL     1     -49.922 -49.918  -0.072  1.00  0.00    -0.355 N 
HETATM   13  H   UNL     1     -50.022 -49.348  -0.911  1.00  0.00     0.162 HD
BRANCH  12  14
HETATM   14  C   UNL     1     -49.948 -51.376  -0.250  1.00  0.00     0.084 C 
HETATM   15  C   UNL     1     -48.781 -51.852  -1.132  1.00  0.00     0.025 C 
HETATM   16  C   UNL     1     -48.504 -53.347  -1.000  1.00  0.00     0.002 C 
HETATM   17  C   UNL     1     -49.306 -54.231  -1.951  1.00  0.00     0.000 C 
HETATM   18  C   UNL     1     -50.773 -53.864  -2.153  1.00  0.00     0.000 C 
HETATM   19  C   UNL     1     -51.488 -53.364  -0.901  1.00  0.00     0.002 C 
HETATM   20  C   UNL     1     -51.339 -51.854  -0.693  1.00  0.00     0.025 C 
ENDBRANCH  12  14
ENDBRANCH   9  10
ENDBRANCH   8   9
BRANCH   1  21
HETATM   21  C   UNL     1     -50.375 -44.667   2.326  1.00  0.00     0.010 C 
HETATM   22  C   UNL     1     -51.150 -43.631   3.170  1.00  0.00     0.023 C 
HETATM   23  C   UNL     1     -50.117 -44.059   0.927  1.00  0.00     0.023 C 
HETATM   24  C   UNL     1     -49.013 -44.894   2.984  1.00  0.00     0.023 C 
ENDBRANCH   1  21
TORSDOF 4
ENDMDL
MODEL 9
REMARK VINA RESULT:      -6.1      2.417      6.909
REMARK  4 active torsions:
REMARK  status: ('A' for Active; 'I' for Inactive)
REMARK    1  A    between atoms: C_2  and  C_5 
REMARK    2  A    between atoms: N_12  and  C_13 
REMARK    3  A    between atoms: C_13  and  C_14 
REMARK       I    between atoms: C_14  and  N_16 
REMARK    4  A    between atoms: N_16  and  C_17 
ROOT
HETATM    1  C   UNL     1     -45.908 -53.291  14.231  1.00  0.00     0.123 A 
HETATM    2  N   UNL     1     -46.929 -53.960  14.748  1.00  0.00    -0.271 N 
ATOM      3  HN  UNL     1     -47.678 -53.569  15.321  1.00  0.00     0.190 HD
HETATM    4  N   UNL     1     -46.798 -55.264  14.376  1.00  0.00    -0.227 N 
ATOM      5  HN  UNL     1     -47.446 -56.009  14.633  1.00  0.00     0.210 HD
HETATM    6  N   UNL     1     -45.717 -55.432  13.639  1.00  0.00    -0.224 N 
ATOM      7  HN  UNL     1     -45.374 -56.305  13.238  1.00  0.00     0.210 HD
HETATM    8  N   UNL     1     -45.159 -54.206  13.526  1.00  0.00    -0.254 N 
ENDROOT
BRANCH   8   9
HETATM    9  C   UNL     1     -43.985 -54.107  12.698  1.00  0.00     0.254 C 
BRANCH   9  10
HETATM   10  C   UNL     1     -42.708 -54.021  13.504  1.00  0.00     0.237 C 
HETATM   11  O   UNL     1     -42.485 -54.817  14.414  1.00  0.00    -0.272 OA
HETATM   12  N   UNL     1     -41.873 -52.965  13.198  1.00  0.00    -0.355 N 
HETATM   13  H   UNL     1     -42.106 -52.377  12.399  1.00  0.00     0.162 HD
BRANCH  12  14
HETATM   14  C   UNL     1     -40.604 -52.687  13.883  1.00  0.00     0.084 C 
HETATM   15  C   UNL     1     -40.841 -52.196  15.322  1.00  0.00     0.025 C 
HETATM   16  C   UNL     1     -39.599 -52.305  16.202  1.00  0.00     0.002 C 
HETATM   17  C   UNL     1     -38.681 -51.087  16.163  1.00  0.00     0.000 C 
HETATM   18  C   UNL     1     -38.448 -50.449  14.797  1.00  0.00     0.000 C 
HETATM   19  C   UNL     1     -38.341 -51.436  13.638  1.00  0.00     0.002 C 
HETATM   20  C   UNL     1     -39.701 -51.786  13.026  1.00  0.00     0.025 C 
ENDBRANCH  12  14
ENDBRANCH   9  10
ENDBRANCH   8   9
BRANCH   1  21
HETATM   21  C   UNL     1     -45.695 -51.811  14.496  1.00  0.00     0.010 C 
HETATM   22  C   UNL     1     -44.584 -51.673  15.559  1.00  0.00     0.023 C 
HETATM   23  C   UNL     1     -47.003 -51.224  15.077  1.00  0.00     0.023 C 
HETATM   24  C   UNL     1     -45.307 -50.955  13.289  1.00  0.00     0.023 C 
ENDBRANCH   1  21
TORSDOF 4
ENDMDL
