MODEL 1
REMARK VINA RESULT:      -6.4      0.000      0.000
REMARK  3 active torsions:
REMARK  status: ('A' for Active; 'I' for Inactive)
REMARK    1  A    between atoms: O_2  and  C_3 
REMARK    2  A    between atoms: C_3  and  C_4 
REMARK    3  A    between atoms: C_4  and  N_5 
ROOT
HETATM    1  N   UNL     1     -42.115 -47.304  10.922  1.00  0.00    -0.328 N 
HETATM    2  C   UNL     1     -42.884 -46.577  10.023  1.00  0.00     0.120 A 
HETATM    3  N   UNL     1     -42.489 -45.321   9.980  1.00  0.00    -0.340 N 
ATOM      4  HN  UNL     1     -42.872 -44.579   9.395  1.00  0.00     0.167 HD
HETATM    5  C   UNL     1     -41.461 -45.214  10.880  1.00  0.00     0.060 A 
HETATM    6  C   UNL     1     -40.716 -44.081  11.241  1.00  0.00     0.032 A 
HETATM    7  C   UNL     1     -39.704 -44.215  12.198  1.00  0.00     0.002 A 
HETATM    8  C   UNL     1     -39.434 -45.453  12.776  1.00  0.00     0.002 A 
HETATM    9  C   UNL     1     -40.168 -46.595  12.428  1.00  0.00     0.032 A 
HETATM   10  C   UNL     1     -41.188 -46.441  11.477  1.00  0.00     0.063 A 
HETATM   11  C   UNL     1     -43.935 -47.191   9.278  1.00  0.00     0.024 A 
HETATM   12  C   UNL     1     -45.299 -47.344   9.759  1.00  0.00     0.022 A 
HETATM   13  C   UNL     1     -46.223 -48.007   9.046  1.00  0.00     0.075 A 
HETATM   14  C   UNL     1     -45.858 -48.598   7.733  1.00  0.00     0.245 A 
HETATM   15  O   UNL     1     -46.651 -49.268   7.085  1.00  0.00    -0.268 OA
HETATM   16  N   UNL     1     -44.576 -48.338   7.306  1.00  0.00    -0.333 N 
HETATM   17  C   UNL     1     -43.644 -47.644   8.042  1.00  0.00     0.106 A 
HETATM   18  H   UNL     1     -44.327 -48.727   6.404  1.00  0.00     0.168 HD
ENDROOT
BRANCH   1  19
HETATM   19  C   UNL     1     -42.275 -48.700  11.302  1.00  0.00     0.157 C 
BRANCH  19  20
HETATM   20  C   UNL     1     -43.024 -48.914  12.614  1.00  0.00     0.187 C 
BRANCH  20  21
HETATM   21  O   UNL     1     -43.276 -50.305  12.818  1.00  0.00    -0.394 OA
HETATM   22  C   UNL     1     -42.099 -51.071  12.569  1.00  0.00     0.201 C 
ENDBRANCH  20  21
ENDBRANCH  19  20
ENDBRANCH   1  19
TORSDOF 3
ENDMDL
MODEL 2
REMARK VINA RESULT:      -6.0      2.690      4.123
REMARK  3 active torsions:
REMARK  status: ('A' for Active; 'I' for Inactive)
REMARK    1  A    between atoms: O_2  and  C_3 
REMARK    2  A    between atoms: C_3  and  C_4 
REMARK    3  A    between atoms: C_4  and  N_5 
ROOT
HETATM    1  N   UNL     1     -40.825 -47.265  11.838  1.00  0.00    -0.328 N 
HETATM    2  C   UNL     1     -41.477 -48.021  10.874  1.00  0.00     0.120 A 
HETATM    3  N   UNL     1     -40.884 -49.187  10.715  1.00  0.00    -0.340 N 
ATOM      4  HN  UNL     1     -41.165 -49.936  10.083  1.00  0.00     0.167 HD
HETATM    5  C   UNL     1     -39.812 -49.189  11.569  1.00  0.00     0.060 A 
HETATM    6  C   UNL     1     -38.837 -50.179  11.763  1.00  0.00     0.032 A 
HETATM    7  C   UNL     1     -37.822 -49.953  12.699  1.00  0.00     0.002 A 
HETATM    8  C   UNL     1     -37.786 -48.770  13.434  1.00  0.00     0.002 A 
HETATM    9  C   UNL     1     -38.751 -47.770  13.254  1.00  0.00     0.032 A 
HETATM   10  C   UNL     1     -39.753 -48.006  12.301  1.00  0.00     0.063 A 
HETATM   11  C   UNL     1     -42.637 -47.530  10.202  1.00  0.00     0.024 A 
HETATM   12  C   UNL     1     -42.602 -46.704   9.006  1.00  0.00     0.022 A 
HETATM   13  C   UNL     1     -43.724 -46.202   8.469  1.00  0.00     0.075 A 
HETATM   14  C   UNL     1     -45.038 -46.491   9.099  1.00  0.00     0.245 A 
HETATM   15  O   UNL     1     -46.076 -45.996   8.681  1.00  0.00    -0.268 OA
HETATM   16  N   UNL     1     -44.999 -47.349  10.174  1.00  0.00    -0.333 N 
HETATM   17  C   UNL     1     -43.840 -47.868  10.704  1.00  0.00     0.106 A 
HETATM   18  H   UNL     1     -45.895 -47.561  10.598  1.00  0.00     0.168 HD
ENDROOT
BRANCH   1  19
HETATM   19  C   UNL     1     -41.129 -45.904  12.254  1.00  0.00     0.157 C 
BRANCH  19  20
HETATM   20  C   UNL     1     -40.333 -44.827  11.522  1.00  0.00     0.187 C 
BRANCH  20  21
HETATM   21  O   UNL     1     -41.206 -44.021  10.730  1.00  0.00    -0.394 OA
HETATM   22  C   UNL     1     -42.473 -43.875  11.369  1.00  0.00     0.201 C 
ENDBRANCH  20  21
ENDBRANCH  19  20
ENDBRANCH   1  19
TORSDOF 3
ENDMDL
MODEL 3
REMARK VINA RESULT:      -5.9      3.553      5.674
REMARK  3 active torsions:
REMARK  status: ('A' for Active; 'I' for Inactive)
REMARK    1  A    between atoms: O_2  and  C_3 
REMARK    2  A    between atoms: C_3  and  C_4 
REMARK    3  A    between atoms: C_4  and  N_5 
ROOT
HETATM    1  N   UNL     1     -40.388 -48.978  11.910  1.00  0.00    -0.328 N 
HETATM    2  C   UNL     1     -41.463 -49.856  11.955  1.00  0.00     0.120 A 
HETATM    3  N   UNL     1     -42.533 -49.313  11.412  1.00  0.00    -0.340 N 
ATOM      4  HN  UNL     1     -43.451 -49.745  11.303  1.00  0.00     0.167 HD
HETATM    5  C   UNL     1     -42.166 -48.051  11.025  1.00  0.00     0.060 A 
HETATM    6  C   UNL     1     -42.943 -47.047  10.427  1.00  0.00     0.032 A 
HETATM    7  C   UNL     1     -42.343 -45.821  10.120  1.00  0.00     0.002 A 
HETATM    8  C   UNL     1     -40.994 -45.603  10.395  1.00  0.00     0.002 A 
HETATM    9  C   UNL     1     -40.203 -46.593  10.992  1.00  0.00     0.032 A 
HETATM   10  C   UNL     1     -40.823 -47.812  11.306  1.00  0.00     0.063 A 
HETATM   11  C   UNL     1     -41.334 -51.160  12.522  1.00  0.00     0.024 A 
HETATM   12  C   UNL     1     -41.500 -51.458  13.936  1.00  0.00     0.022 A 
HETATM   13  C   UNL     1     -41.282 -52.690  14.422  1.00  0.00     0.075 A 
HETATM   14  C   UNL     1     -40.865 -53.782  13.505  1.00  0.00     0.245 A 
HETATM   15  O   UNL     1     -40.589 -54.901  13.919  1.00  0.00    -0.268 OA
HETATM   16  N   UNL     1     -40.813 -53.444  12.172  1.00  0.00    -0.333 N 
HETATM   17  C   UNL     1     -41.054 -52.180  11.687  1.00  0.00     0.106 A 
HETATM   18  H   UNL     1     -40.543 -54.190  11.541  1.00  0.00     0.168 HD
ENDROOT
BRANCH   1  19
HETATM   19  C   UNL     1     -39.056 -49.176  12.460  1.00  0.00     0.157 C 
BRANCH  19  20
HETATM   20  C   UNL     1     -38.044 -49.746  11.471  1.00  0.00     0.187 C 
BRANCH  20  21
HETATM   21  O   UNL     1     -37.628 -51.048  11.885  1.00  0.00    -0.394 OA
HETATM   22  C   UNL     1     -37.731 -51.182  13.301  1.00  0.00     0.201 C 
ENDBRANCH  20  21
ENDBRANCH  19  20
ENDBRANCH   1  19
TORSDOF 3
ENDMDL
MODEL 4
REMARK VINA RESULT:      -5.8      4.636      7.195
REMARK  3 active torsions:
REMARK  status: ('A' for Active; 'I' for Inactive)
REMARK    1  A    between atoms: O_2  and  C_3 
REMARK    2  A    between atoms: C_3  and  C_4 
REMARK    3  A    between atoms: C_4  and  N_5 
ROOT
HETATM    1  N   UNL     1     -42.941 -50.627  13.727  1.00  0.00    -0.328 N 
HETATM    2  C   UNL     1     -42.255 -51.355  12.765  1.00  0.00     0.120 A 
HETATM    3  N   UNL     1     -43.011 -52.323  12.286  1.00  0.00    -0.340 N 
ATOM      4  HN  UNL     1     -42.759 -52.994  11.561  1.00  0.00     0.167 HD
HETATM    5  C   UNL     1     -44.202 -52.245  12.957  1.00  0.00     0.060 A 
HETATM    6  C   UNL     1     -45.335 -53.065  12.848  1.00  0.00     0.032 A 
HETATM    7  C   UNL     1     -46.448 -52.790  13.650  1.00  0.00     0.002 A 
HETATM    8  C   UNL     1     -46.436 -51.714  14.536  1.00  0.00     0.002 A 
HETATM    9  C   UNL     1     -45.313 -50.885  14.659  1.00  0.00     0.032 A 
HETATM   10  C   UNL     1     -44.201 -51.182  13.857  1.00  0.00     0.063 A 
HETATM   11  C   UNL     1     -40.916 -51.025  12.396  1.00  0.00     0.024 A 
HETATM   12  C   UNL     1     -39.733 -51.514  13.085  1.00  0.00     0.022 A 
HETATM   13  C   UNL     1     -38.503 -51.100  12.745  1.00  0.00     0.075 A 
HETATM   14  C   UNL     1     -38.333 -50.123  11.638  1.00  0.00     0.245 A 
HETATM   15  O   UNL     1     -37.236 -49.668  11.343  1.00  0.00    -0.268 OA
HETATM   16  N   UNL     1     -39.489 -49.774  10.979  1.00  0.00    -0.333 N 
HETATM   17  C   UNL     1     -40.742 -50.219  11.331  1.00  0.00     0.106 A 
HETATM   18  H   UNL     1     -39.376 -49.119  10.213  1.00  0.00     0.168 HD
ENDROOT
BRANCH   1  19
HETATM   19  C   UNL     1     -42.437 -49.526  14.534  1.00  0.00     0.157 C 
BRANCH  19  20
HETATM   20  C   UNL     1     -42.738 -48.141  13.970  1.00  0.00     0.187 C 
BRANCH  20  21
HETATM   21  O   UNL     1     -41.542 -47.541  13.468  1.00  0.00    -0.394 OA
HETATM   22  C   UNL     1     -40.426 -47.885  14.287  1.00  0.00     0.201 C 
ENDBRANCH  20  21
ENDBRANCH  19  20
ENDBRANCH   1  19
TORSDOF 3
ENDMDL
MODEL 5
REMARK VINA RESULT:      -5.8      3.208      5.638
REMARK  3 active torsions:
REMARK  status: ('A' for Active; 'I' for Inactive)
REMARK    1  A    between atoms: O_2  and  C_3 
REMARK    2  A    between atoms: C_3  and  C_4 
REMARK    3  A    between atoms: C_4  and  N_5 
ROOT
HETATM    1  N   UNL     1     -41.154 -50.002  11.928  1.00  0.00    -0.328 N 
HETATM    2  C   UNL     1     -42.410 -49.411  11.919  1.00  0.00     0.120 A 
HETATM    3  N   UNL     1     -43.317 -50.235  12.404  1.00  0.00    -0.340 N 
ATOM      4  HN  UNL     1     -44.312 -50.049  12.523  1.00  0.00     0.167 HD
HETATM    5  C   UNL     1     -42.653 -51.393  12.715  1.00  0.00     0.060 A 
HETATM    6  C   UNL     1     -43.162 -52.594  13.230  1.00  0.00     0.032 A 
HETATM    7  C   UNL     1     -42.281 -53.655  13.467  1.00  0.00     0.002 A 
HETATM    8  C   UNL     1     -40.919 -53.518  13.205  1.00  0.00     0.002 A 
HETATM    9  C   UNL     1     -40.393 -52.325  12.690  1.00  0.00     0.032 A 
HETATM   10  C   UNL     1     -41.291 -51.276  12.446  1.00  0.00     0.063 A 
HETATM   11  C   UNL     1     -42.603 -48.080  11.441  1.00  0.00     0.024 A 
HETATM   12  C   UNL     1     -42.833 -47.735  10.048  1.00  0.00     0.022 A 
HETATM   13  C   UNL     1     -42.921 -46.457   9.648  1.00  0.00     0.075 A 
HETATM   14  C   UNL     1     -42.787 -45.362  10.642  1.00  0.00     0.245 A 
HETATM   15  O   UNL     1     -42.793 -44.184  10.308  1.00  0.00    -0.268 OA
HETATM   16  N   UNL     1     -42.658 -45.767  11.951  1.00  0.00    -0.333 N 
HETATM   17  C   UNL     1     -42.584 -47.082  12.347  1.00  0.00     0.106 A 
HETATM   18  H   UNL     1     -42.582 -45.022  12.634  1.00  0.00     0.168 HD
ENDROOT
BRANCH   1  19
HETATM   19  C   UNL     1     -39.908 -49.447  11.419  1.00  0.00     0.157 C 
BRANCH  19  20
HETATM   20  C   UNL     1     -39.040 -48.772  12.475  1.00  0.00     0.187 C 
BRANCH  20  21
HETATM   21  O   UNL     1     -37.759 -49.401  12.538  1.00  0.00    -0.394 OA
HETATM   22  C   UNL     1     -37.427 -49.991  11.282  1.00  0.00     0.201 C 
ENDBRANCH  20  21
ENDBRANCH  19  20
ENDBRANCH   1  19
TORSDOF 3
ENDMDL
MODEL 6
REMARK VINA RESULT:      -5.7      3.463      6.258
REMARK  3 active torsions:
REMARK  status: ('A' for Active; 'I' for Inactive)
REMARK    1  A    between atoms: O_2  and  C_3 
REMARK    2  A    between atoms: C_3  and  C_4 
REMARK    3  A    between atoms: C_4  and  N_5 
ROOT
HETATM    1  N   UNL     1     -41.443 -52.183  12.956  1.00  0.00    -0.328 N 
HETATM    2  C   UNL     1     -40.972 -50.880  13.041  1.00  0.00     0.120 A 
HETATM    3  N   UNL     1     -40.043 -50.779  13.970  1.00  0.00    -0.340 N 
ATOM      4  HN  UNL     1     -39.522 -49.941  14.228  1.00  0.00     0.167 HD
HETATM    5  C   UNL     1     -39.917 -52.028  14.520  1.00  0.00     0.060 A 
HETATM    6  C   UNL     1     -39.089 -52.453  15.570  1.00  0.00     0.032 A 
HETATM    7  C   UNL     1     -39.135 -53.794  15.967  1.00  0.00     0.002 A 
HETATM    8  C   UNL     1     -39.983 -54.695  15.324  1.00  0.00     0.002 A 
HETATM    9  C   UNL     1     -40.817 -54.288  14.274  1.00  0.00     0.032 A 
HETATM   10  C   UNL     1     -40.768 -52.938  13.898  1.00  0.00     0.063 A 
HETATM   11  C   UNL     1     -41.474 -49.850  12.190  1.00  0.00     0.024 A 
HETATM   12  C   UNL     1     -42.656 -49.054  12.477  1.00  0.00     0.022 A 
HETATM   13  C   UNL     1     -43.128 -48.158  11.596  1.00  0.00     0.075 A 
HETATM   14  C   UNL     1     -42.434 -47.964  10.297  1.00  0.00     0.245 A 
HETATM   15  O   UNL     1     -42.872 -47.208   9.439  1.00  0.00    -0.268 OA
HETATM   16  N   UNL     1     -41.276 -48.689  10.134  1.00  0.00    -0.333 N 
HETATM   17  C   UNL     1     -40.797 -49.593  11.054  1.00  0.00     0.106 A 
HETATM   18  H   UNL     1     -40.791 -48.549   9.255  1.00  0.00     0.168 HD
ENDROOT
BRANCH   1  19
HETATM   19  C   UNL     1     -42.511 -52.687  12.105  1.00  0.00     0.157 C 
BRANCH  19  20
HETATM   20  C   UNL     1     -43.864 -52.813  12.798  1.00  0.00     0.187 C 
BRANCH  20  21
HETATM   21  O   UNL     1     -44.513 -54.022  12.399  1.00  0.00    -0.394 OA
HETATM   22  C   UNL     1     -45.080 -54.683  13.529  1.00  0.00     0.201 C 
ENDBRANCH  20  21
ENDBRANCH  19  20
ENDBRANCH   1  19
TORSDOF 3
ENDMDL
MODEL 7
REMARK VINA RESULT:      -5.7      4.564      8.134
REMARK  3 active torsions:
REMARK  status: ('A' for Active; 'I' for Inactive)
REMARK    1  A    between atoms: O_2  and  C_3 
REMARK    2  A    between atoms: C_3  and  C_4 
REMARK    3  A    between atoms: C_4  and  N_5 
ROOT
HETATM    1  N   UNL     1     -42.244 -53.465  14.365  1.00  0.00    -0.328 N 
HETATM    2  C   UNL     1     -41.075 -52.765  14.099  1.00  0.00     0.120 A 
HETATM    3  N   UNL     1     -40.046 -53.330  14.698  1.00  0.00    -0.340 N 
ATOM      4  HN  UNL     1     -39.073 -53.028  14.657  1.00  0.00     0.167 HD
HETATM    5  C   UNL     1     -40.548 -54.403  15.387  1.00  0.00     0.060 A 
HETATM    6  C   UNL     1     -39.877 -55.315  16.215  1.00  0.00     0.032 A 
HETATM    7  C   UNL     1     -40.608 -56.341  16.823  1.00  0.00     0.002 A 
HETATM    8  C   UNL     1     -41.979 -56.461  16.602  1.00  0.00     0.002 A 
HETATM    9  C   UNL     1     -42.666 -55.559  15.779  1.00  0.00     0.032 A 
HETATM   10  C   UNL     1     -41.920 -54.528  15.188  1.00  0.00     0.063 A 
HETATM   11  C   UNL     1     -41.076 -51.605  13.268  1.00  0.00     0.024 A 
HETATM   12  C   UNL     1     -41.343 -50.257  13.743  1.00  0.00     0.022 A 
HETATM   13  C   UNL     1     -41.414 -49.217  12.897  1.00  0.00     0.075 A 
HETATM   14  C   UNL     1     -41.213 -49.435  11.442  1.00  0.00     0.245 A 
HETATM   15  O   UNL     1     -41.338 -48.527  10.631  1.00  0.00    -0.268 OA
HETATM   16  N   UNL     1     -40.880 -50.720  11.079  1.00  0.00    -0.333 N 
HETATM   17  C   UNL     1     -40.796 -51.773  11.961  1.00  0.00     0.106 A 
HETATM   18  H   UNL     1     -40.727 -50.870  10.088  1.00  0.00     0.168 HD
ENDROOT
BRANCH   1  19
HETATM   19  C   UNL     1     -43.596 -53.128  13.945  1.00  0.00     0.157 C 
BRANCH  19  20
HETATM   20  C   UNL     1     -44.028 -53.776  12.633  1.00  0.00     0.187 C 
BRANCH  20  21
HETATM   21  O   UNL     1     -45.124 -54.664  12.858  1.00  0.00    -0.394 OA
HETATM   22  C   UNL     1     -45.761 -54.371  14.100  1.00  0.00     0.201 C 
ENDBRANCH  20  21
ENDBRANCH  19  20
ENDBRANCH   1  19
TORSDOF 3
ENDMDL
MODEL 8
REMARK VINA RESULT:      -5.7      5.072      6.049
REMARK  3 active torsions:
REMARK  status: ('A' for Active; 'I' for Inactive)
REMARK    1  A    between atoms: O_2  and  C_3 
REMARK    2  A    between atoms: C_3  and  C_4 
REMARK    3  A    between atoms: C_4  and  N_5 
ROOT
HETATM    1  N   UNL     1     -41.339 -51.732  13.735  1.00  0.00    -0.328 N 
HETATM    2  C   UNL     1     -42.442 -51.320  12.999  1.00  0.00     0.120 A 
HETATM    3  N   UNL     1     -42.070 -50.579  11.976  1.00  0.00    -0.340 N 
ATOM      4  HN  UNL     1     -42.676 -50.161  11.270  1.00  0.00     0.167 HD
HETATM    5  C   UNL     1     -40.705 -50.482  12.051  1.00  0.00     0.060 A 
HETATM    6  C   UNL     1     -39.821 -49.777  11.221  1.00  0.00     0.032 A 
HETATM    7  C   UNL     1     -38.451 -49.823  11.499  1.00  0.00     0.002 A 
HETATM    8  C   UNL     1     -37.971 -50.565  12.577  1.00  0.00     0.002 A 
HETATM    9  C   UNL     1     -38.839 -51.275  13.417  1.00  0.00     0.032 A 
HETATM   10  C   UNL     1     -40.211 -51.207  13.132  1.00  0.00     0.063 A 
HETATM   11  C   UNL     1     -43.767 -51.704  13.367  1.00  0.00     0.024 A 
HETATM   12  C   UNL     1     -44.592 -50.983  14.323  1.00  0.00     0.022 A 
HETATM   13  C   UNL     1     -45.798 -51.442  14.693  1.00  0.00     0.075 A 
HETATM   14  C   UNL     1     -46.314 -52.710  14.116  1.00  0.00     0.245 A 
HETATM   15  O   UNL     1     -47.377 -53.198  14.479  1.00  0.00    -0.268 OA
HETATM   16  N   UNL     1     -45.515 -53.288  13.156  1.00  0.00    -0.333 N 
HETATM   17  C   UNL     1     -44.288 -52.797  12.777  1.00  0.00     0.106 A 
HETATM   18  H   UNL     1     -45.870 -54.146  12.749  1.00  0.00     0.168 HD
ENDROOT
BRANCH   1  19
HETATM   19  C   UNL     1     -41.332 -52.506  14.967  1.00  0.00     0.157 C 
BRANCH  19  20
HETATM   20  C   UNL     1     -40.929 -53.967  14.792  1.00  0.00     0.187 C 
BRANCH  20  21
HETATM   21  O   UNL     1     -42.042 -54.735  14.332  1.00  0.00    -0.394 OA
HETATM   22  C   UNL     1     -42.924 -55.039  15.411  1.00  0.00     0.201 C 
ENDBRANCH  20  21
ENDBRANCH  19  20
ENDBRANCH   1  19
TORSDOF 3
ENDMDL
MODEL 9
REMARK VINA RESULT:      -5.5      6.272      9.353
REMARK  3 active torsions:
REMARK  status: ('A' for Active; 'I' for Inactive)
REMARK    1  A    between atoms: O_2  and  C_3 
REMARK    2  A    between atoms: C_3  and  C_4 
REMARK    3  A    between atoms: C_4  and  N_5 
ROOT
HETATM    1  N   UNL     1     -43.220 -53.253  14.051  1.00  0.00    -0.328 N 
HETATM    2  C   UNL     1     -42.789 -53.382  15.365  1.00  0.00     0.120 A 
HETATM    3  N   UNL     1     -43.680 -52.887  16.199  1.00  0.00    -0.340 N 
ATOM      4  HN  UNL     1     -43.621 -52.867  17.217  1.00  0.00     0.167 HD
HETATM    5  C   UNL     1     -44.701 -52.403  15.424  1.00  0.00     0.060 A 
HETATM    6  C   UNL     1     -45.876 -51.746  15.818  1.00  0.00     0.032 A 
HETATM    7  C   UNL     1     -46.783 -51.335  14.835  1.00  0.00     0.002 A 
HETATM    8  C   UNL     1     -46.528 -51.583  13.487  1.00  0.00     0.002 A 
HETATM    9  C   UNL     1     -45.359 -52.237  13.075  1.00  0.00     0.032 A 
HETATM   10  C   UNL     1     -44.454 -52.630  14.073  1.00  0.00     0.063 A 
HETATM   11  C   UNL     1     -41.538 -53.995  15.681  1.00  0.00     0.024 A 
HETATM   12  C   UNL     1     -40.268 -53.289  15.718  1.00  0.00     0.022 A 
HETATM   13  C   UNL     1     -39.113 -53.937  15.937  1.00  0.00     0.075 A 
HETATM   14  C   UNL     1     -39.121 -55.407  16.152  1.00  0.00     0.245 A 
HETATM   15  O   UNL     1     -38.084 -56.044  16.286  1.00  0.00    -0.268 OA
HETATM   16  N   UNL     1     -40.367 -55.990  16.188  1.00  0.00    -0.333 N 
HETATM   17  C   UNL     1     -41.543 -55.309  15.976  1.00  0.00     0.106 A 
HETATM   18  H   UNL     1     -40.378 -56.991  16.350  1.00  0.00     0.168 HD
ENDROOT
BRANCH   1  19
HETATM   19  C   UNL     1     -42.499 -53.615  12.840  1.00  0.00     0.157 C 
BRANCH  19  20
HETATM   20  C   UNL     1     -41.777 -52.454  12.164  1.00  0.00     0.187 C 
BRANCH  20  21
HETATM   21  O   UNL     1     -40.363 -52.602  12.305  1.00  0.00    -0.394 OA
HETATM   22  C   UNL     1     -39.750 -51.340  12.563  1.00  0.00     0.201 C 
ENDBRANCH  20  21
ENDBRANCH  19  20
ENDBRANCH   1  19
TORSDOF 3
ENDMDL
