MODEL 1
REMARK VINA RESULT:      -6.0      0.000      0.000
REMARK  6 active torsions:
REMARK  status: ('A' for Active; 'I' for Inactive)
REMARK    1  A    between atoms: C_2  and  C_3 
REMARK    2  A    between atoms: C_2  and  N_11 
REMARK    3  A    between atoms: C_3  and  N_4 
REMARK    4  A    between atoms: N_11  and  C_12 
REMARK    5  A    between atoms: C_12  and  C_13 
REMARK    6  A    between atoms: C_13  and  C_14 
REMARK       I    between atoms: C_14  and  N_16 
ROOT
HETATM    1  N   UNL     1     -41.899 -49.722  11.303  1.00  0.00     0.089 N 
HETATM    2  H   UNL     1     -41.447 -49.988  10.427  1.00  0.00     0.316 HD
ENDROOT
BRANCH   1   3
HETATM    3  C   UNL     1     -41.496 -48.326  11.623  1.00  0.00     0.236 C 
HETATM    4  C   UNL     1     -40.053 -48.384  12.146  1.00  0.00     0.044 C 
BRANCH   3   5
HETATM    5  C   UNL     1     -41.607 -47.365  10.417  1.00  0.00     0.183 C 
BRANCH   5   6
HETATM    6  N   UNL     1     -42.845 -47.500   9.675  1.00  0.00    -0.301 N 
HETATM    7  C   UNL     1     -44.105 -47.251  10.136  1.00  0.00     0.118 A 
HETATM    8  C   UNL     1     -44.961 -47.509   9.087  1.00  0.00    -0.028 A 
HETATM    9  C   UNL     1     -46.436 -47.407   9.061  1.00  0.00     0.051 C 
HETATM   10  C   UNL     1     -44.105 -47.894   8.032  1.00  0.00     0.115 A 
HETATM   11  N   UNL     1     -42.819 -47.883   8.383  1.00  0.00    -0.310 N 
ATOM     12  HN  UNL     1     -42.007 -48.111   7.809  1.00  0.00     0.186 HD
ENDBRANCH   5   6
ENDBRANCH   3   5
ENDBRANCH   1   3
BRANCH   1  13
HETATM   13  C   UNL     1     -41.484 -50.665  12.353  1.00  0.00     0.279 C 
BRANCH  13  14
HETATM   14  C   UNL     1     -42.588 -50.883  13.390  1.00  0.00     0.133 C 
BRANCH  14  15
HETATM   15  C   UNL     1     -43.132 -52.299  13.270  1.00  0.00     0.221 C 
HETATM   16  O   UNL     1     -42.375 -53.252  13.082  1.00  0.00    -0.273 OA
HETATM   17  N   UNL     1     -44.505 -52.470  13.381  1.00  0.00    -0.352 N 
HETATM   18  C   UNL     1     -45.490 -51.404  13.560  1.00  0.00     0.125 C 
HETATM   19  C   UNL     1     -45.062 -53.813  13.226  1.00  0.00     0.125 C 
HETATM   20  C   UNL     1     -46.418 -51.714  14.734  1.00  0.00     0.020 C 
HETATM   21  C   UNL     1     -47.038 -53.106  14.608  1.00  0.00     0.003 C 
HETATM   22  C   UNL     1     -45.959 -54.167  14.407  1.00  0.00     0.020 C 
ENDBRANCH  14  15
ENDBRANCH  13  14
ENDBRANCH   1  13
TORSDOF 6
ENDMDL
MODEL 2
REMARK VINA RESULT:      -5.9      1.956      2.670
REMARK  6 active torsions:
REMARK  status: ('A' for Active; 'I' for Inactive)
REMARK    1  A    between atoms: C_2  and  C_3 
REMARK    2  A    between atoms: C_2  and  N_11 
REMARK    3  A    between atoms: C_3  and  N_4 
REMARK    4  A    between atoms: N_11  and  C_12 
REMARK    5  A    between atoms: C_12  and  C_13 
REMARK    6  A    between atoms: C_13  and  C_14 
REMARK       I    between atoms: C_14  and  N_16 
ROOT
HETATM    1  N   UNL     1     -42.015 -50.183  11.783  1.00  0.00     0.089 N 
HETATM    2  H   UNL     1     -42.248 -50.407  10.815  1.00  0.00     0.316 HD
ENDROOT
BRANCH   1   3
HETATM    3  C   UNL     1     -41.938 -48.702  11.907  1.00  0.00     0.236 C 
HETATM    4  C   UNL     1     -40.804 -48.393  12.895  1.00  0.00     0.044 C 
BRANCH   3   5
HETATM    5  C   UNL     1     -41.705 -47.986  10.557  1.00  0.00     0.183 C 
BRANCH   5   6
HETATM    6  N   UNL     1     -42.912 -47.808   9.774  1.00  0.00    -0.301 N 
HETATM    7  C   UNL     1     -44.146 -47.462  10.242  1.00  0.00     0.118 A 
HETATM    8  C   UNL     1     -44.977 -47.406   9.145  1.00  0.00    -0.028 A 
HETATM    9  C   UNL     1     -46.420 -47.087   9.103  1.00  0.00     0.051 C 
HETATM   10  C   UNL     1     -44.133 -47.723   8.058  1.00  0.00     0.115 A 
HETATM   11  N   UNL     1     -42.876 -47.961   8.435  1.00  0.00    -0.310 N 
ATOM     12  HN  UNL     1     -42.076 -48.201   7.849  1.00  0.00     0.186 HD
ENDBRANCH   5   6
ENDBRANCH   3   5
ENDBRANCH   1   3
BRANCH   1  13
HETATM   13  C   UNL     1     -40.737 -50.827  12.121  1.00  0.00     0.279 C 
BRANCH  13  14
HETATM   14  C   UNL     1     -40.831 -52.353  12.040  1.00  0.00     0.133 C 
BRANCH  14  15
HETATM   15  C   UNL     1     -42.110 -52.824  12.717  1.00  0.00     0.221 C 
HETATM   16  O   UNL     1     -43.192 -52.761  12.132  1.00  0.00    -0.273 OA
HETATM   17  N   UNL     1     -42.006 -53.326  14.007  1.00  0.00    -0.352 N 
HETATM   18  C   UNL     1     -40.780 -53.403  14.800  1.00  0.00     0.125 C 
HETATM   19  C   UNL     1     -43.223 -53.746  14.698  1.00  0.00     0.125 C 
HETATM   20  C   UNL     1     -40.589 -54.809  15.369  1.00  0.00     0.020 C 
HETATM   21  C   UNL     1     -41.834 -55.287  16.116  1.00  0.00     0.003 C 
HETATM   22  C   UNL     1     -43.077 -55.164  15.238  1.00  0.00     0.020 C 
ENDBRANCH  14  15
ENDBRANCH  13  14
ENDBRANCH   1  13
TORSDOF 6
ENDMDL
MODEL 3
REMARK VINA RESULT:      -5.8      3.466      4.803
REMARK  6 active torsions:
REMARK  status: ('A' for Active; 'I' for Inactive)
REMARK    1  A    between atoms: C_2  and  C_3 
REMARK    2  A    between atoms: C_2  and  N_11 
REMARK    3  A    between atoms: C_3  and  N_4 
REMARK    4  A    between atoms: N_11  and  C_12 
REMARK    5  A    between atoms: C_12  and  C_13 
REMARK    6  A    between atoms: C_13  and  C_14 
REMARK       I    between atoms: C_14  and  N_16 
ROOT
HETATM    1  N   UNL     1     -42.882 -52.931  13.680  1.00  0.00     0.089 N 
HETATM    2  H   UNL     1     -43.159 -51.991  13.967  1.00  0.00     0.316 HD
ENDROOT
BRANCH   1   3
HETATM    3  C   UNL     1     -41.471 -52.873  13.216  1.00  0.00     0.236 C 
HETATM    4  C   UNL     1     -40.977 -54.323  13.096  1.00  0.00     0.044 C 
BRANCH   3   5
HETATM    5  C   UNL     1     -41.297 -52.119  11.877  1.00  0.00     0.183 C 
BRANCH   5   6
HETATM    6  N   UNL     1     -40.377 -51.001  11.952  1.00  0.00    -0.301 N 
HETATM    7  C   UNL     1     -39.568 -50.678  13.002  1.00  0.00     0.118 A 
HETATM    8  C   UNL     1     -38.873 -49.550  12.624  1.00  0.00    -0.028 A 
HETATM    9  C   UNL     1     -37.874 -48.785  13.402  1.00  0.00     0.051 C 
HETATM   10  C   UNL     1     -39.331 -49.286  11.315  1.00  0.00     0.115 A 
HETATM   11  N   UNL     1     -40.240 -50.170  10.900  1.00  0.00    -0.310 N 
ATOM     12  HN  UNL     1     -40.718 -50.208  10.000  1.00  0.00     0.186 HD
ENDBRANCH   5   6
ENDBRANCH   3   5
ENDBRANCH   1   3
BRANCH   1  13
HETATM   13  C   UNL     1     -43.790 -53.386  12.616  1.00  0.00     0.279 C 
BRANCH  13  14
HETATM   14  C   UNL     1     -44.779 -54.439  13.124  1.00  0.00     0.133 C 
BRANCH  14  15
HETATM   15  C   UNL     1     -44.826 -54.407  14.645  1.00  0.00     0.221 C 
HETATM   16  O   UNL     1     -44.002 -55.031  15.315  1.00  0.00    -0.273 OA
HETATM   17  N   UNL     1     -45.827 -53.651  15.239  1.00  0.00    -0.352 N 
HETATM   18  C   UNL     1     -46.875 -52.912  14.537  1.00  0.00     0.125 C 
HETATM   19  C   UNL     1     -45.925 -53.636  16.698  1.00  0.00     0.125 C 
HETATM   20  C   UNL     1     -46.947 -51.468  15.032  1.00  0.00     0.020 C 
HETATM   21  C   UNL     1     -47.065 -51.401  16.555  1.00  0.00     0.003 C 
HETATM   22  C   UNL     1     -45.953 -52.205  17.223  1.00  0.00     0.020 C 
ENDBRANCH  14  15
ENDBRANCH  13  14
ENDBRANCH   1  13
TORSDOF 6
ENDMDL
MODEL 4
REMARK VINA RESULT:      -5.7      2.258      3.428
REMARK  6 active torsions:
REMARK  status: ('A' for Active; 'I' for Inactive)
REMARK    1  A    between atoms: C_2  and  C_3 
REMARK    2  A    between atoms: C_2  and  N_11 
REMARK    3  A    between atoms: C_3  and  N_4 
REMARK    4  A    between atoms: N_11  and  C_12 
REMARK    5  A    between atoms: C_12  and  C_13 
REMARK    6  A    between atoms: C_13  and  C_14 
REMARK       I    between atoms: C_14  and  N_16 
ROOT
HETATM    1  N   UNL     1     -41.499 -52.259  14.516  1.00  0.00     0.089 N 
HETATM    2  H   UNL     1     -42.347 -51.971  14.025  1.00  0.00     0.316 HD
ENDROOT
BRANCH   1   3
HETATM    3  C   UNL     1     -40.329 -51.743  13.757  1.00  0.00     0.236 C 
HETATM    4  C   UNL     1     -39.135 -52.645  14.103  1.00  0.00     0.044 C 
BRANCH   3   5
HETATM    5  C   UNL     1     -40.562 -51.698  12.229  1.00  0.00     0.183 C 
BRANCH   5   6
HETATM    6  N   UNL     1     -41.080 -50.429  11.754  1.00  0.00    -0.301 N 
HETATM    7  C   UNL     1     -42.117 -49.720  12.286  1.00  0.00     0.118 A 
HETATM    8  C   UNL     1     -42.248 -48.585  11.516  1.00  0.00    -0.028 A 
HETATM    9  C   UNL     1     -43.229 -47.488  11.658  1.00  0.00     0.051 C 
HETATM   10  C   UNL     1     -41.222 -48.704  10.552  1.00  0.00     0.115 A 
HETATM   11  N   UNL     1     -40.506 -49.820  10.698  1.00  0.00    -0.310 N 
ATOM     12  HN  UNL     1     -39.712 -50.137  10.142  1.00  0.00     0.186 HD
ENDBRANCH   5   6
ENDBRANCH   3   5
ENDBRANCH   1   3
BRANCH   1  13
HETATM   13  C   UNL     1     -41.486 -53.727  14.610  1.00  0.00     0.279 C 
BRANCH  13  14
HETATM   14  C   UNL     1     -42.483 -54.368  13.642  1.00  0.00     0.133 C 
BRANCH  14  15
HETATM   15  C   UNL     1     -43.829 -54.540  14.331  1.00  0.00     0.221 C 
HETATM   16  O   UNL     1     -43.988 -55.399  15.200  1.00  0.00    -0.273 OA
HETATM   17  N   UNL     1     -44.860 -53.695  13.945  1.00  0.00    -0.352 N 
HETATM   18  C   UNL     1     -44.786 -52.676  12.898  1.00  0.00     0.125 C 
HETATM   19  C   UNL     1     -46.176 -53.865  14.557  1.00  0.00     0.125 C 
HETATM   20  C   UNL     1     -45.290 -51.329  13.415  1.00  0.00     0.020 C 
HETATM   21  C   UNL     1     -46.674 -51.454  14.053  1.00  0.00     0.003 C 
HETATM   22  C   UNL     1     -46.685 -52.543  15.123  1.00  0.00     0.020 C 
ENDBRANCH  14  15
ENDBRANCH  13  14
ENDBRANCH   1  13
TORSDOF 6
ENDMDL
MODEL 5
REMARK VINA RESULT:      -5.7      2.341      2.871
REMARK  6 active torsions:
REMARK  status: ('A' for Active; 'I' for Inactive)
REMARK    1  A    between atoms: C_2  and  C_3 
REMARK    2  A    between atoms: C_2  and  N_11 
REMARK    3  A    between atoms: C_3  and  N_4 
REMARK    4  A    between atoms: N_11  and  C_12 
REMARK    5  A    between atoms: C_12  and  C_13 
REMARK    6  A    between atoms: C_13  and  C_14 
REMARK       I    between atoms: C_14  and  N_16 
ROOT
HETATM    1  N   UNL     1     -41.461 -49.540  12.686  1.00  0.00     0.089 N 
HETATM    2  H   UNL     1     -42.314 -49.975  13.040  1.00  0.00     0.316 HD
ENDROOT
BRANCH   1   3
HETATM    3  C   UNL     1     -41.817 -48.199  12.151  1.00  0.00     0.236 C 
HETATM    4  C   UNL     1     -41.008 -47.167  12.951  1.00  0.00     0.044 C 
BRANCH   3   5
HETATM    5  C   UNL     1     -41.549 -48.053  10.635  1.00  0.00     0.183 C 
BRANCH   5   6
HETATM    6  N   UNL     1     -42.750 -47.857   9.846  1.00  0.00    -0.301 N 
HETATM    7  C   UNL     1     -43.980 -47.492  10.309  1.00  0.00     0.118 A 
HETATM    8  C   UNL     1     -44.805 -47.423   9.207  1.00  0.00    -0.028 A 
HETATM    9  C   UNL     1     -46.243 -47.082   9.159  1.00  0.00     0.051 C 
HETATM   10  C   UNL     1     -43.960 -47.752   8.124  1.00  0.00     0.115 A 
HETATM   11  N   UNL     1     -42.709 -48.009   8.508  1.00  0.00    -0.310 N 
ATOM     12  HN  UNL     1     -41.911 -48.261   7.925  1.00  0.00     0.186 HD
ENDBRANCH   5   6
ENDBRANCH   3   5
ENDBRANCH   1   3
BRANCH   1  13
HETATM   13  C   UNL     1     -40.886 -50.409  11.647  1.00  0.00     0.279 C 
BRANCH  13  14
HETATM   14  C   UNL     1     -41.310 -51.868  11.828  1.00  0.00     0.133 C 
BRANCH  14  15
HETATM   15  C   UNL     1     -40.445 -52.526  12.893  1.00  0.00     0.221 C 
HETATM   16  O   UNL     1     -39.331 -52.078  13.166  1.00  0.00    -0.273 OA
HETATM   17  N   UNL     1     -40.962 -53.640  13.541  1.00  0.00    -0.352 N 
HETATM   18  C   UNL     1     -42.250 -54.273  13.262  1.00  0.00     0.125 C 
HETATM   19  C   UNL     1     -40.136 -54.319  14.538  1.00  0.00     0.125 C 
HETATM   20  C   UNL     1     -43.052 -54.462  14.549  1.00  0.00     0.020 C 
HETATM   21  C   UNL     1     -42.233 -55.183  15.620  1.00  0.00     0.003 C 
HETATM   22  C   UNL     1     -40.897 -54.482  15.849  1.00  0.00     0.020 C 
ENDBRANCH  14  15
ENDBRANCH  13  14
ENDBRANCH   1  13
TORSDOF 6
ENDMDL
MODEL 6
REMARK VINA RESULT:      -5.7      2.708      3.799
REMARK  6 active torsions:
REMARK  status: ('A' for Active; 'I' for Inactive)
REMARK    1  A    between atoms: C_2  and  C_3 
REMARK    2  A    between atoms: C_2  and  N_11 
REMARK    3  A    between atoms: C_3  and  N_4 
REMARK    4  A    between atoms: N_11  and  C_12 
REMARK    5  A    between atoms: C_12  and  C_13 
REMARK    6  A    between atoms: C_13  and  C_14 
REMARK       I    between atoms: C_14  and  N_16 
ROOT
HETATM    1  N   UNL     1     -38.150 -51.875  13.486  1.00  0.00     0.089 N 
HETATM    2  H   UNL     1     -37.160 -51.984  13.711  1.00  0.00     0.316 HD
ENDROOT
BRANCH   1   3
HETATM    3  C   UNL     1     -38.448 -50.420  13.411  1.00  0.00     0.236 C 
HETATM    4  C   UNL     1     -37.479 -49.713  14.370  1.00  0.00     0.044 C 
BRANCH   3   5
HETATM    5  C   UNL     1     -38.328 -49.843  11.981  1.00  0.00     0.183 C 
BRANCH   5   6
HETATM    6  N   UNL     1     -39.524 -49.161  11.525  1.00  0.00    -0.301 N 
HETATM    7  C   UNL     1     -39.876 -47.868  11.783  1.00  0.00     0.118 A 
HETATM    8  C   UNL     1     -41.079 -47.658  11.146  1.00  0.00    -0.028 A 
HETATM    9  C   UNL     1     -41.900 -46.429  11.118  1.00  0.00     0.051 C 
HETATM   10  C   UNL     1     -41.355 -48.893  10.517  1.00  0.00     0.115 A 
HETATM   11  N   UNL     1     -40.409 -49.806  10.739  1.00  0.00    -0.310 N 
ATOM     12  HN  UNL     1     -40.365 -50.765  10.396  1.00  0.00     0.186 HD
ENDBRANCH   5   6
ENDBRANCH   3   5
ENDBRANCH   1   3
BRANCH   1  13
HETATM   13  C   UNL     1     -38.946 -52.544  14.527  1.00  0.00     0.279 C 
BRANCH  13  14
HETATM   14  C   UNL     1     -39.713 -53.746  13.971  1.00  0.00     0.133 C 
BRANCH  14  15
HETATM   15  C   UNL     1     -40.839 -53.263  13.068  1.00  0.00     0.221 C 
HETATM   16  O   UNL     1     -40.596 -52.785  11.959  1.00  0.00    -0.273 OA
HETATM   17  N   UNL     1     -42.138 -53.385  13.541  1.00  0.00    -0.352 N 
HETATM   18  C   UNL     1     -42.528 -53.897  14.854  1.00  0.00     0.125 C 
HETATM   19  C   UNL     1     -43.237 -52.889  12.714  1.00  0.00     0.125 C 
HETATM   20  C   UNL     1     -43.597 -54.980  14.718  1.00  0.00     0.020 C 
HETATM   21  C   UNL     1     -44.777 -54.502  13.872  1.00  0.00     0.003 C 
HETATM   22  C   UNL     1     -44.300 -53.966  12.525  1.00  0.00     0.020 C 
ENDBRANCH  14  15
ENDBRANCH  13  14
ENDBRANCH   1  13
TORSDOF 6
ENDMDL
MODEL 7
REMARK VINA RESULT:      -5.6      2.588      4.076
REMARK  6 active torsions:
REMARK  status: ('A' for Active; 'I' for Inactive)
REMARK    1  A    between atoms: C_2  and  C_3 
REMARK    2  A    between atoms: C_2  and  N_11 
REMARK    3  A    between atoms: C_3  and  N_4 
REMARK    4  A    between atoms: N_11  and  C_12 
REMARK    5  A    between atoms: C_12  and  C_13 
REMARK    6  A    between atoms: C_13  and  C_14 
REMARK       I    between atoms: C_14  and  N_16 
ROOT
HETATM    1  N   UNL     1     -41.545 -53.287  14.663  1.00  0.00     0.089 N 
HETATM    2  H   UNL     1     -42.319 -52.678  14.395  1.00  0.00     0.316 HD
ENDROOT
BRANCH   1   3
HETATM    3  C   UNL     1     -40.402 -53.005  13.755  1.00  0.00     0.236 C 
HETATM    4  C   UNL     1     -39.444 -54.202  13.854  1.00  0.00     0.044 C 
BRANCH   3   5
HETATM    5  C   UNL     1     -40.829 -52.759  12.290  1.00  0.00     0.183 C 
BRANCH   5   6
HETATM    6  N   UNL     1     -41.110 -51.369  11.989  1.00  0.00    -0.301 N 
HETATM    7  C   UNL     1     -42.131 -50.615  12.489  1.00  0.00     0.118 A 
HETATM    8  C   UNL     1     -41.999 -49.362  11.931  1.00  0.00    -0.028 A 
HETATM    9  C   UNL     1     -42.856 -48.174  12.132  1.00  0.00     0.051 C 
HETATM   10  C   UNL     1     -40.849 -49.468  11.117  1.00  0.00     0.115 A 
HETATM   11  N   UNL     1     -40.302 -50.684  11.156  1.00  0.00    -0.310 N 
ATOM     12  HN  UNL     1     -39.470 -51.016  10.669  1.00  0.00     0.186 HD
ENDBRANCH   5   6
ENDBRANCH   3   5
ENDBRANCH   1   3
BRANCH   1  13
HETATM   13  C   UNL     1     -41.991 -54.686  14.563  1.00  0.00     0.279 C 
BRANCH  13  14
HETATM   14  C   UNL     1     -43.515 -54.804  14.651  1.00  0.00     0.133 C 
BRANCH  14  15
HETATM   15  C   UNL     1     -44.163 -53.652  13.898  1.00  0.00     0.221 C 
HETATM   16  O   UNL     1     -44.081 -53.574  12.671  1.00  0.00    -0.273 OA
HETATM   17  N   UNL     1     -44.847 -52.702  14.644  1.00  0.00    -0.352 N 
HETATM   18  C   UNL     1     -44.966 -52.681  16.102  1.00  0.00     0.125 C 
HETATM   19  C   UNL     1     -45.443 -51.560  13.953  1.00  0.00     0.125 C 
HETATM   20  C   UNL     1     -46.427 -52.529  16.525  1.00  0.00     0.020 C 
HETATM   21  C   UNL     1     -47.090 -51.336  15.838  1.00  0.00     0.003 C 
HETATM   22  C   UNL     1     -46.915 -51.412  14.323  1.00  0.00     0.020 C 
ENDBRANCH  14  15
ENDBRANCH  13  14
ENDBRANCH   1  13
TORSDOF 6
ENDMDL
MODEL 8
REMARK VINA RESULT:      -5.5      3.970      6.233
REMARK  6 active torsions:
REMARK  status: ('A' for Active; 'I' for Inactive)
REMARK    1  A    between atoms: C_2  and  C_3 
REMARK    2  A    between atoms: C_2  and  N_11 
REMARK    3  A    between atoms: C_3  and  N_4 
REMARK    4  A    between atoms: N_11  and  C_12 
REMARK    5  A    between atoms: C_12  and  C_13 
REMARK    6  A    between atoms: C_13  and  C_14 
REMARK       I    between atoms: C_14  and  N_16 
ROOT
HETATM    1  N   UNL     1     -41.396 -48.600  10.058  1.00  0.00     0.089 N 
HETATM    2  H   UNL     1     -40.696 -47.903   9.800  1.00  0.00     0.316 HD
ENDROOT
BRANCH   1   3
HETATM    3  C   UNL     1     -42.684 -47.894  10.294  1.00  0.00     0.236 C 
HETATM    4  C   UNL     1     -43.147 -48.264  11.710  1.00  0.00     0.044 C 
BRANCH   3   5
HETATM    5  C   UNL     1     -42.580 -46.360  10.130  1.00  0.00     0.183 C 
BRANCH   5   6
HETATM    6  N   UNL     1     -41.337 -45.802  10.627  1.00  0.00    -0.301 N 
HETATM    7  C   UNL     1     -41.049 -45.470  11.919  1.00  0.00     0.118 A 
HETATM    8  C   UNL     1     -39.759 -44.987  11.918  1.00  0.00    -0.028 A 
HETATM    9  C   UNL     1     -38.969 -44.480  13.060  1.00  0.00     0.051 C 
HETATM   10  C   UNL     1     -39.355 -45.088  10.568  1.00  0.00     0.115 A 
HETATM   11  N   UNL     1     -40.308 -45.590   9.782  1.00  0.00    -0.310 N 
ATOM     12  HN  UNL     1     -40.269 -45.770   8.779  1.00  0.00     0.186 HD
ENDBRANCH   5   6
ENDBRANCH   3   5
ENDBRANCH   1   3
BRANCH   1  13
HETATM   13  C   UNL     1     -40.933 -49.309  11.261  1.00  0.00     0.279 C 
BRANCH  13  14
HETATM   14  C   UNL     1     -39.438 -49.093  11.508  1.00  0.00     0.133 C 
BRANCH  14  15
HETATM   15  C   UNL     1     -38.956 -50.043  12.596  1.00  0.00     0.221 C 
HETATM   16  O   UNL     1     -38.960 -51.261  12.416  1.00  0.00    -0.273 OA
HETATM   17  N   UNL     1     -38.514 -49.483  13.786  1.00  0.00    -0.352 N 
HETATM   18  C   UNL     1     -38.510 -48.057  14.114  1.00  0.00     0.125 C 
HETATM   19  C   UNL     1     -38.086 -50.371  14.865  1.00  0.00     0.125 C 
HETATM   20  C   UNL     1     -37.137 -47.622  14.624  1.00  0.00     0.020 C 
HETATM   21  C   UNL     1     -36.652 -48.515  15.766  1.00  0.00     0.003 C 
HETATM   22  C   UNL     1     -36.698 -49.986  15.364  1.00  0.00     0.020 C 
ENDBRANCH  14  15
ENDBRANCH  13  14
ENDBRANCH   1  13
TORSDOF 6
ENDMDL
MODEL 9
REMARK VINA RESULT:      -5.4      2.098      3.194
REMARK  6 active torsions:
REMARK  status: ('A' for Active; 'I' for Inactive)
REMARK    1  A    between atoms: C_2  and  C_3 
REMARK    2  A    between atoms: C_2  and  N_11 
REMARK    3  A    between atoms: C_3  and  N_4 
REMARK    4  A    between atoms: N_11  and  C_12 
REMARK    5  A    between atoms: C_12  and  C_13 
REMARK    6  A    between atoms: C_13  and  C_14 
REMARK       I    between atoms: C_14  and  N_16 
ROOT
HETATM    1  N   UNL     1     -42.096 -49.807  11.435  1.00  0.00     0.089 N 
HETATM    2  H   UNL     1     -41.327 -50.440  11.657  1.00  0.00     0.316 HD
ENDROOT
BRANCH   1   3
HETATM    3  C   UNL     1     -41.518 -48.565  10.855  1.00  0.00     0.236 C 
HETATM    4  C   UNL     1     -42.682 -47.773  10.240  1.00  0.00     0.044 C 
BRANCH   3   5
HETATM    5  C   UNL     1     -40.750 -47.707  11.887  1.00  0.00     0.183 C 
BRANCH   5   6
HETATM    6  N   UNL     1     -40.480 -46.355  11.436  1.00  0.00    -0.301 N 
HETATM    7  C   UNL     1     -40.888 -45.198  12.033  1.00  0.00     0.118 A 
HETATM    8  C   UNL     1     -40.396 -44.168  11.261  1.00  0.00    -0.028 A 
HETATM    9  C   UNL     1     -40.562 -42.713  11.461  1.00  0.00     0.051 C 
HETATM   10  C   UNL     1     -39.689 -44.821  10.227  1.00  0.00     0.115 A 
HETATM   11  N   UNL     1     -39.731 -46.150  10.334  1.00  0.00    -0.310 N 
ATOM     12  HN  UNL     1     -39.300 -46.845   9.726  1.00  0.00     0.186 HD
ENDBRANCH   5   6
ENDBRANCH   3   5
ENDBRANCH   1   3
BRANCH   1  13
HETATM   13  C   UNL     1     -42.851 -49.534  12.668  1.00  0.00     0.279 C 
BRANCH  13  14
HETATM   14  C   UNL     1     -42.711 -50.671  13.683  1.00  0.00     0.133 C 
BRANCH  14  15
HETATM   15  C   UNL     1     -43.072 -51.995  13.025  1.00  0.00     0.221 C 
HETATM   16  O   UNL     1     -42.294 -52.542  12.242  1.00  0.00    -0.273 OA
HETATM   17  N   UNL     1     -44.301 -52.555  13.342  1.00  0.00    -0.352 N 
HETATM   18  C   UNL     1     -45.310 -51.966  14.223  1.00  0.00     0.125 C 
HETATM   19  C   UNL     1     -44.695 -53.803  12.691  1.00  0.00     0.125 C 
HETATM   20  C   UNL     1     -45.764 -52.974  15.278  1.00  0.00     0.020 C 
HETATM   21  C   UNL     1     -46.200 -54.294  14.643  1.00  0.00     0.003 C 
HETATM   22  C   UNL     1     -45.111 -54.844  13.725  1.00  0.00     0.020 C 
ENDBRANCH  14  15
ENDBRANCH  13  14
ENDBRANCH   1  13
TORSDOF 6
ENDMDL
