MODEL 1
REMARK VINA RESULT:      -6.3      0.000      0.000
REMARK  5 active torsions:
REMARK  status: ('A' for Active; 'I' for Inactive)
REMARK    1  A    between atoms: C_2  and  N_3 
REMARK    2  A    between atoms: C_7  and  C_8 
REMARK    3  A    between atoms: C_8  and  N_9 
REMARK       I    between atoms: N_9  and  C_10 
REMARK       I    between atoms: C_10  and  N_12 
REMARK    4  A    between atoms: N_12  and  C_13 
REMARK    5  A    between atoms: N_17  and  C_18 
ROOT
HETATM    1  N   UNL     1     -41.335 -53.044  11.897  1.00  0.00    -0.342 N 
HETATM    2  C   UNL     1     -40.961 -51.760  12.227  1.00  0.00     0.320 C 
HETATM    3  O   UNL     1     -40.842 -51.391  13.389  1.00  0.00    -0.247 OA
HETATM    4  N   UNL     1     -40.803 -50.976  11.110  1.00  0.00    -0.306 N 
HETATM    5  H   UNL     1     -40.893 -53.418  11.069  1.00  0.00     0.164 HD
HETATM    6  H   UNL     1     -41.176 -51.316  10.237  1.00  0.00     0.171 HD
ENDROOT
BRANCH   1   7
HETATM    7  C   UNL     1     -41.658 -53.984  12.955  1.00  0.00     0.130 C 
BRANCH   7   8
HETATM    8  C   UNL     1     -43.004 -53.654  13.604  1.00  0.00     0.032 C 
HETATM    9  C   UNL     1     -43.428 -54.738  14.609  1.00  0.00     0.010 C 
HETATM   10  C   UNL     1     -44.830 -54.466  15.148  1.00  0.00     0.031 C 
HETATM   11  C   UNL     1     -45.827 -54.243  14.010  1.00  0.00     0.272 C 
HETATM   12  N   UNL     1     -45.424 -53.191  13.065  1.00  0.00     0.088 N 
HETATM   13  C   UNL     1     -44.087 -53.493  12.519  1.00  0.00     0.278 C 
BRANCH  12  14
HETATM   14  C   UNL     1     -45.479 -51.825  13.609  1.00  0.00     0.268 C 
HETATM   15  C   UNL     1     -46.794 -51.483  14.298  1.00  0.00     0.037 C 
ENDBRANCH  12  14
ENDBRANCH   7   8
ENDBRANCH   1   7
BRANCH   4  16
HETATM   16  C   UNL     1     -40.446 -49.643  11.178  1.00  0.00     0.070 A 
HETATM   17  C   UNL     1     -39.246 -49.032  11.612  1.00  0.00     0.138 A 
HETATM   18  N   UNL     1     -39.301 -47.699  11.537  1.00  0.00    -0.308 N 
HETATM   19  N   UNL     1     -40.540 -47.459  11.075  1.00  0.00    -0.302 N 
ATOM     20  HN  UNL     1     -38.574 -47.023  11.773  1.00  0.00     0.186 HD
HETATM   21  C   UNL     1     -41.259 -48.594  10.819  1.00  0.00     0.141 A 
BRANCH  19  22
HETATM   22  C   UNL     1     -40.989 -46.090  10.921  1.00  0.00     0.143 C 
HETATM   23  C   UNL     1     -39.891 -45.191  10.383  1.00  0.00     0.028 C 
ENDBRANCH  19  22
ENDBRANCH   4  16
TORSDOF 5
ENDMDL
MODEL 2
REMARK VINA RESULT:      -6.2      1.477      1.886
REMARK  5 active torsions:
REMARK  status: ('A' for Active; 'I' for Inactive)
REMARK    1  A    between atoms: C_2  and  N_3 
REMARK    2  A    between atoms: C_7  and  C_8 
REMARK    3  A    between atoms: C_8  and  N_9 
REMARK       I    between atoms: N_9  and  C_10 
REMARK       I    between atoms: C_10  and  N_12 
REMARK    4  A    between atoms: N_12  and  C_13 
REMARK    5  A    between atoms: N_17  and  C_18 
ROOT
HETATM    1  N   UNL     1     -42.004 -51.500  11.772  1.00  0.00    -0.342 N 
HETATM    2  C   UNL     1     -41.820 -50.199  12.185  1.00  0.00     0.320 C 
HETATM    3  O   UNL     1     -41.342 -49.919  13.277  1.00  0.00    -0.247 OA
HETATM    4  N   UNL     1     -42.283 -49.302  11.252  1.00  0.00    -0.306 N 
HETATM    5  H   UNL     1     -41.848 -51.661  10.787  1.00  0.00     0.164 HD
HETATM    6  H   UNL     1     -42.883 -49.650  10.519  1.00  0.00     0.171 HD
ENDROOT
BRANCH   1   7
HETATM    7  C   UNL     1     -41.676 -52.585  12.679  1.00  0.00     0.130 C 
BRANCH   7   8
HETATM    8  C   UNL     1     -42.914 -53.077  13.432  1.00  0.00     0.032 C 
HETATM    9  C   UNL     1     -42.642 -54.402  14.164  1.00  0.00     0.010 C 
HETATM   10  C   UNL     1     -43.918 -54.949  14.798  1.00  0.00     0.031 C 
HETATM   11  C   UNL     1     -45.057 -55.018  13.780  1.00  0.00     0.272 C 
HETATM   12  N   UNL     1     -45.324 -53.742  13.099  1.00  0.00     0.088 N 
HETATM   13  C   UNL     1     -44.092 -53.250  12.453  1.00  0.00     0.278 C 
BRANCH  12  14
HETATM   14  C   UNL     1     -45.924 -52.706  13.955  1.00  0.00     0.268 C 
HETATM   15  C   UNL     1     -46.408 -51.477  13.197  1.00  0.00     0.037 C 
ENDBRANCH  12  14
ENDBRANCH   7   8
ENDBRANCH   1   7
BRANCH   4  16
HETATM   16  C   UNL     1     -42.228 -47.935  11.440  1.00  0.00     0.070 A 
HETATM   17  C   UNL     1     -43.106 -47.063  12.126  1.00  0.00     0.138 A 
HETATM   18  N   UNL     1     -42.704 -45.790  12.067  1.00  0.00    -0.308 N 
HETATM   19  N   UNL     1     -41.584 -45.846  11.327  1.00  0.00    -0.302 N 
ATOM     20  HN  UNL     1     -43.144 -44.969  12.484  1.00  0.00     0.186 HD
HETATM   21  C   UNL     1     -41.241 -47.114  10.948  1.00  0.00     0.141 A 
BRANCH  19  22
HETATM   22  C   UNL     1     -40.890 -44.618  10.994  1.00  0.00     0.143 C 
HETATM   23  C   UNL     1     -39.627 -44.880  10.194  1.00  0.00     0.028 C 
ENDBRANCH  19  22
ENDBRANCH   4  16
TORSDOF 5
ENDMDL
MODEL 3
REMARK VINA RESULT:      -6.0      1.739      7.374
REMARK  5 active torsions:
REMARK  status: ('A' for Active; 'I' for Inactive)
REMARK    1  A    between atoms: C_2  and  N_3 
REMARK    2  A    between atoms: C_7  and  C_8 
REMARK    3  A    between atoms: C_8  and  N_9 
REMARK       I    between atoms: N_9  and  C_10 
REMARK       I    between atoms: C_10  and  N_12 
REMARK    4  A    between atoms: N_12  and  C_13 
REMARK    5  A    between atoms: N_17  and  C_18 
ROOT
HETATM    1  N   UNL     1     -41.135 -50.301  11.262  1.00  0.00    -0.342 N 
HETATM    2  C   UNL     1     -41.681 -51.052  12.279  1.00  0.00     0.320 C 
HETATM    3  O   UNL     1     -41.625 -50.706  13.453  1.00  0.00    -0.247 OA
HETATM    4  N   UNL     1     -42.223 -52.224  11.808  1.00  0.00    -0.306 N 
HETATM    5  H   UNL     1     -41.658 -50.310  10.397  1.00  0.00     0.164 HD
HETATM    6  H   UNL     1     -41.981 -52.514  10.872  1.00  0.00     0.171 HD
ENDROOT
BRANCH   1   7
HETATM    7  C   UNL     1     -40.417 -49.082  11.586  1.00  0.00     0.130 C 
BRANCH   7   8
HETATM    8  C   UNL     1     -40.987 -47.879  10.832  1.00  0.00     0.032 C 
HETATM    9  C   UNL     1     -40.188 -46.597  11.123  1.00  0.00     0.010 C 
HETATM   10  C   UNL     1     -40.845 -45.383  10.472  1.00  0.00     0.031 C 
HETATM   11  C   UNL     1     -42.328 -45.294  10.837  1.00  0.00     0.272 C 
HETATM   12  N   UNL     1     -43.089 -46.517  10.536  1.00  0.00     0.088 N 
HETATM   13  C   UNL     1     -42.467 -47.673  11.210  1.00  0.00     0.278 C 
BRANCH  12  14
HETATM   14  C   UNL     1     -43.282 -46.779   9.101  1.00  0.00     0.268 C 
HETATM   15  C   UNL     1     -44.561 -47.541   8.776  1.00  0.00     0.037 C 
ENDBRANCH  12  14
ENDBRANCH   7   8
ENDBRANCH   1   7
BRANCH   4  16
HETATM   16  C   UNL     1     -42.816 -53.158  12.635  1.00  0.00     0.070 A 
HETATM   17  C   UNL     1     -42.260 -53.982  13.641  1.00  0.00     0.138 A 
HETATM   18  N   UNL     1     -43.174 -54.771  14.213  1.00  0.00    -0.308 N 
HETATM   19  N   UNL     1     -44.308 -54.465  13.559  1.00  0.00    -0.302 N 
ATOM     20  HN  UNL     1     -43.043 -55.445  14.967  1.00  0.00     0.186 HD
HETATM   21  C   UNL     1     -44.152 -53.483  12.620  1.00  0.00     0.141 A 
BRANCH  19  22
HETATM   22  C   UNL     1     -45.527 -55.183  13.875  1.00  0.00     0.143 C 
HETATM   23  C   UNL     1     -46.474 -54.350  14.718  1.00  0.00     0.028 C 
ENDBRANCH  19  22
ENDBRANCH   4  16
TORSDOF 5
ENDMDL
MODEL 4
REMARK VINA RESULT:      -5.7      1.810      2.777
REMARK  5 active torsions:
REMARK  status: ('A' for Active; 'I' for Inactive)
REMARK    1  A    between atoms: C_2  and  N_3 
REMARK    2  A    between atoms: C_7  and  C_8 
REMARK    3  A    between atoms: C_8  and  N_9 
REMARK       I    between atoms: N_9  and  C_10 
REMARK       I    between atoms: C_10  and  N_12 
REMARK    4  A    between atoms: N_12  and  C_13 
REMARK    5  A    between atoms: N_17  and  C_18 
ROOT
HETATM    1  N   UNL     1     -42.388 -51.074  12.322  1.00  0.00    -0.342 N 
HETATM    2  C   UNL     1     -42.141 -49.719  12.277  1.00  0.00     0.320 C 
HETATM    3  O   UNL     1     -42.127 -49.021  13.284  1.00  0.00    -0.247 OA
HETATM    4  N   UNL     1     -41.976 -49.278  10.986  1.00  0.00    -0.306 N 
HETATM    5  H   UNL     1     -41.865 -51.625  11.656  1.00  0.00     0.164 HD
HETATM    6  H   UNL     1     -42.263 -49.889  10.237  1.00  0.00     0.171 HD
ENDROOT
BRANCH   1   7
HETATM    7  C   UNL     1     -42.701 -51.696  13.595  1.00  0.00     0.130 C 
BRANCH   7   8
HETATM    8  C   UNL     1     -44.154 -52.171  13.643  1.00  0.00     0.032 C 
HETATM    9  C   UNL     1     -45.135 -51.024  13.346  1.00  0.00     0.010 C 
HETATM   10  C   UNL     1     -46.580 -51.479  13.528  1.00  0.00     0.031 C 
HETATM   11  C   UNL     1     -46.785 -52.140  14.891  1.00  0.00     0.272 C 
HETATM   12  N   UNL     1     -45.857 -53.249  15.160  1.00  0.00     0.088 N 
HETATM   13  C   UNL     1     -44.464 -52.782  15.024  1.00  0.00     0.278 C 
BRANCH  12  14
HETATM   14  C   UNL     1     -46.094 -54.454  14.349  1.00  0.00     0.268 C 
HETATM   15  C   UNL     1     -44.844 -55.286  14.092  1.00  0.00     0.037 C 
ENDBRANCH  12  14
ENDBRANCH   7   8
ENDBRANCH   1   7
BRANCH   4  16
HETATM   16  C   UNL     1     -41.734 -47.953  10.676  1.00  0.00     0.070 A 
HETATM   17  C   UNL     1     -42.489 -47.033   9.911  1.00  0.00     0.138 A 
HETATM   18  N   UNL     1     -41.901 -45.837   9.832  1.00  0.00    -0.308 N 
HETATM   19  N   UNL     1     -40.762 -45.998  10.528  1.00  0.00    -0.302 N 
ATOM     20  HN  UNL     1     -42.236 -44.999   9.357  1.00  0.00     0.186 HD
HETATM   21  C   UNL     1     -40.627 -47.243  11.076  1.00  0.00     0.141 A 
BRANCH  19  22
HETATM   22  C   UNL     1     -39.817 -44.902  10.609  1.00  0.00     0.143 C 
HETATM   23  C   UNL     1     -38.995 -44.766   9.341  1.00  0.00     0.028 C 
ENDBRANCH  19  22
ENDBRANCH   4  16
TORSDOF 5
ENDMDL
MODEL 5
REMARK VINA RESULT:      -5.6      1.306      7.179
REMARK  5 active torsions:
REMARK  status: ('A' for Active; 'I' for Inactive)
REMARK    1  A    between atoms: C_2  and  N_3 
REMARK    2  A    between atoms: C_7  and  C_8 
REMARK    3  A    between atoms: C_8  and  N_9 
REMARK       I    between atoms: N_9  and  C_10 
REMARK       I    between atoms: C_10  and  N_12 
REMARK    4  A    between atoms: N_12  and  C_13 
REMARK    5  A    between atoms: N_17  and  C_18 
ROOT
HETATM    1  N   UNL     1     -40.648 -50.752  11.412  1.00  0.00    -0.342 N 
HETATM    2  C   UNL     1     -41.387 -51.352  12.407  1.00  0.00     0.320 C 
HETATM    3  O   UNL     1     -41.000 -51.408  13.568  1.00  0.00    -0.247 OA
HETATM    4  N   UNL     1     -42.546 -51.903  11.915  1.00  0.00    -0.306 N 
HETATM    5  H   UNL     1     -41.190 -50.263  10.714  1.00  0.00     0.164 HD
HETATM    6  H   UNL     1     -42.627 -52.018  10.916  1.00  0.00     0.171 HD
ENDROOT
BRANCH   1   7
HETATM    7  C   UNL     1     -39.337 -50.215  11.727  1.00  0.00     0.130 C 
BRANCH   7   8
HETATM    8  C   UNL     1     -39.387 -48.698  11.923  1.00  0.00     0.032 C 
HETATM    9  C   UNL     1     -39.198 -48.311  13.400  1.00  0.00     0.010 C 
HETATM   10  C   UNL     1     -39.383 -46.810  13.600  1.00  0.00     0.031 C 
HETATM   11  C   UNL     1     -40.700 -46.328  12.990  1.00  0.00     0.272 C 
HETATM   12  N   UNL     1     -40.864 -46.685  11.572  1.00  0.00     0.088 N 
HETATM   13  C   UNL     1     -40.727 -48.144  11.403  1.00  0.00     0.278 C 
BRANCH  12  14
HETATM   14  C   UNL     1     -39.975 -45.958  10.652  1.00  0.00     0.268 C 
HETATM   15  C   UNL     1     -40.078 -44.441  10.756  1.00  0.00     0.037 C 
ENDBRANCH  12  14
ENDBRANCH   7   8
ENDBRANCH   1   7
BRANCH   4  16
HETATM   16  C   UNL     1     -43.450 -52.576  12.713  1.00  0.00     0.070 A 
HETATM   17  C   UNL     1     -43.468 -53.921  13.153  1.00  0.00     0.138 A 
HETATM   18  N   UNL     1     -44.535 -54.192  13.910  1.00  0.00    -0.308 N 
HETATM   19  N   UNL     1     -45.207 -53.028  13.937  1.00  0.00    -0.302 N 
ATOM     20  HN  UNL     1     -44.781 -55.073  14.361  1.00  0.00     0.186 HD
HETATM   21  C   UNL     1     -44.584 -52.019  13.255  1.00  0.00     0.141 A 
BRANCH  19  22
HETATM   22  C   UNL     1     -46.478 -52.957  14.630  1.00  0.00     0.143 C 
HETATM   23  C   UNL     1     -46.875 -51.527  14.943  1.00  0.00     0.028 C 
ENDBRANCH  19  22
ENDBRANCH   4  16
TORSDOF 5
ENDMDL
MODEL 6
REMARK VINA RESULT:      -5.6      1.979      3.454
REMARK  5 active torsions:
REMARK  status: ('A' for Active; 'I' for Inactive)
REMARK    1  A    between atoms: C_2  and  N_3 
REMARK    2  A    between atoms: C_7  and  C_8 
REMARK    3  A    between atoms: C_8  and  N_9 
REMARK       I    between atoms: N_9  and  C_10 
REMARK       I    between atoms: C_10  and  N_12 
REMARK    4  A    between atoms: N_12  and  C_13 
REMARK    5  A    between atoms: N_17  and  C_18 
ROOT
HETATM    1  N   UNL     1     -41.852 -52.699  12.068  1.00  0.00    -0.342 N 
HETATM    2  C   UNL     1     -41.719 -51.336  12.220  1.00  0.00     0.320 C 
HETATM    3  O   UNL     1     -42.311 -50.713  13.092  1.00  0.00    -0.247 OA
HETATM    4  N   UNL     1     -40.903 -50.798  11.255  1.00  0.00    -0.306 N 
HETATM    5  H   UNL     1     -41.012 -53.181  11.783  1.00  0.00     0.164 HD
HETATM    6  H   UNL     1     -40.686 -51.364  10.449  1.00  0.00     0.171 HD
ENDROOT
BRANCH   1   7
HETATM    7  C   UNL     1     -42.769 -53.423  12.931  1.00  0.00     0.130 C 
BRANCH   7   8
HETATM    8  C   UNL     1     -42.017 -54.271  13.958  1.00  0.00     0.032 C 
HETATM    9  C   UNL     1     -42.984 -54.997  14.909  1.00  0.00     0.010 C 
HETATM   10  C   UNL     1     -42.222 -55.730  16.009  1.00  0.00     0.031 C 
HETATM   11  C   UNL     1     -41.232 -54.800  16.712  1.00  0.00     0.272 C 
HETATM   12  N   UNL     1     -40.297 -54.126  15.797  1.00  0.00     0.088 N 
HETATM   13  C   UNL     1     -41.051 -53.385  14.768  1.00  0.00     0.278 C 
BRANCH  12  14
HETATM   14  C   UNL     1     -39.294 -55.012  15.186  1.00  0.00     0.268 C 
HETATM   15  C   UNL     1     -38.361 -55.680  16.188  1.00  0.00     0.037 C 
ENDBRANCH  12  14
ENDBRANCH   7   8
ENDBRANCH   1   7
BRANCH   4  16
HETATM   16  C   UNL     1     -40.625 -49.446  11.182  1.00  0.00     0.070 A 
HETATM   17  C   UNL     1     -39.480 -48.718  11.584  1.00  0.00     0.138 A 
HETATM   18  N   UNL     1     -39.607 -47.408  11.354  1.00  0.00    -0.308 N 
HETATM   19  N   UNL     1     -40.837 -47.298  10.825  1.00  0.00    -0.302 N 
ATOM     20  HN  UNL     1     -38.930 -46.667  11.537  1.00  0.00     0.186 HD
HETATM   21  C   UNL     1     -41.480 -48.495  10.677  1.00  0.00     0.141 A 
BRANCH  19  22
HETATM   22  C   UNL     1     -41.356 -45.984  10.499  1.00  0.00     0.143 C 
HETATM   23  C   UNL     1     -40.286 -44.913  10.594  1.00  0.00     0.028 C 
ENDBRANCH  19  22
ENDBRANCH   4  16
TORSDOF 5
ENDMDL
MODEL 7
REMARK VINA RESULT:      -5.3      2.110      2.542
REMARK  5 active torsions:
REMARK  status: ('A' for Active; 'I' for Inactive)
REMARK    1  A    between atoms: C_2  and  N_3 
REMARK    2  A    between atoms: C_7  and  C_8 
REMARK    3  A    between atoms: C_8  and  N_9 
REMARK       I    between atoms: N_9  and  C_10 
REMARK       I    between atoms: C_10  and  N_12 
REMARK    4  A    between atoms: N_12  and  C_13 
REMARK    5  A    between atoms: N_17  and  C_18 
ROOT
HETATM    1  N   UNL     1     -42.795 -52.446  11.839  1.00  0.00    -0.342 N 
HETATM    2  C   UNL     1     -41.548 -52.038  12.260  1.00  0.00     0.320 C 
HETATM    3  O   UNL     1     -40.859 -52.710  13.016  1.00  0.00    -0.247 OA
HETATM    4  N   UNL     1     -41.232 -50.793  11.770  1.00  0.00    -0.306 N 
HETATM    5  H   UNL     1     -43.027 -52.197  10.888  1.00  0.00     0.164 HD
HETATM    6  H   UNL     1     -41.976 -50.236  11.377  1.00  0.00     0.171 HD
ENDROOT
BRANCH   1   7
HETATM    7  C   UNL     1     -43.344 -53.689  12.350  1.00  0.00     0.130 C 
BRANCH   7   8
HETATM    8  C   UNL     1     -44.299 -53.439  13.518  1.00  0.00     0.032 C 
HETATM    9  C   UNL     1     -45.128 -54.692  13.850  1.00  0.00     0.010 C 
HETATM   10  C   UNL     1     -46.168 -54.391  14.925  1.00  0.00     0.031 C 
HETATM   11  C   UNL     1     -47.005 -53.165  14.559  1.00  0.00     0.272 C 
HETATM   12  N   UNL     1     -46.205 -51.966  14.264  1.00  0.00     0.088 N 
HETATM   13  C   UNL     1     -45.237 -52.261  13.191  1.00  0.00     0.278 C 
BRANCH  12  14
HETATM   14  C   UNL     1     -45.538 -51.373  15.433  1.00  0.00     0.268 C 
HETATM   15  C   UNL     1     -46.488 -50.976  16.556  1.00  0.00     0.037 C 
ENDBRANCH  12  14
ENDBRANCH   7   8
ENDBRANCH   1   7
BRANCH   4  16
HETATM   16  C   UNL     1     -40.042 -50.156  12.064  1.00  0.00     0.070 A 
HETATM   17  C   UNL     1     -38.802 -50.162  11.382  1.00  0.00     0.138 A 
HETATM   18  N   UNL     1     -37.880 -49.420  12.003  1.00  0.00    -0.308 N 
HETATM   19  N   UNL     1     -38.524 -48.959  13.089  1.00  0.00    -0.302 N 
ATOM     20  HN  UNL     1     -36.915 -49.246  11.720  1.00  0.00     0.186 HD
HETATM   21  C   UNL     1     -39.832 -49.351  13.158  1.00  0.00     0.141 A 
BRANCH  19  22
HETATM   22  C   UNL     1     -37.804 -48.149  14.052  1.00  0.00     0.143 C 
HETATM   23  C   UNL     1     -37.431 -48.940  15.292  1.00  0.00     0.028 C 
ENDBRANCH  19  22
ENDBRANCH   4  16
TORSDOF 5
ENDMDL
MODEL 8
REMARK VINA RESULT:      -5.3      2.620      4.616
REMARK  5 active torsions:
REMARK  status: ('A' for Active; 'I' for Inactive)
REMARK    1  A    between atoms: C_2  and  N_3 
REMARK    2  A    between atoms: C_7  and  C_8 
REMARK    3  A    between atoms: C_8  and  N_9 
REMARK       I    between atoms: N_9  and  C_10 
REMARK       I    between atoms: C_10  and  N_12 
REMARK    4  A    between atoms: N_12  and  C_13 
REMARK    5  A    between atoms: N_17  and  C_18 
ROOT
HETATM    1  N   UNL     1     -39.661 -49.134  11.255  1.00  0.00    -0.342 N 
HETATM    2  C   UNL     1     -39.736 -47.801  11.595  1.00  0.00     0.320 C 
HETATM    3  O   UNL     1     -39.329 -47.374  12.668  1.00  0.00    -0.247 OA
HETATM    4  N   UNL     1     -40.358 -47.064  10.616  1.00  0.00    -0.306 N 
HETATM    5  H   UNL     1     -39.470 -49.316  10.280  1.00  0.00     0.164 HD
HETATM    6  H   UNL     1     -40.873 -47.561   9.905  1.00  0.00     0.171 HD
ENDROOT
BRANCH   1   7
HETATM    7  C   UNL     1     -39.135 -50.084  12.219  1.00  0.00     0.130 C 
BRANCH   7   8
HETATM    8  C   UNL     1     -40.100 -51.251  12.436  1.00  0.00     0.032 C 
HETATM    9  C   UNL     1     -41.548 -50.860  12.093  1.00  0.00     0.010 C 
HETATM   10  C   UNL     1     -42.516 -51.987  12.441  1.00  0.00     0.031 C 
HETATM   11  C   UNL     1     -42.320 -52.461  13.881  1.00  0.00     0.272 C 
HETATM   12  N   UNL     1     -40.937 -52.853  14.195  1.00  0.00     0.088 N 
HETATM   13  C   UNL     1     -40.020 -51.736  13.897  1.00  0.00     0.278 C 
BRANCH  12  14
HETATM   14  C   UNL     1     -40.491 -54.095  13.545  1.00  0.00     0.268 C 
HETATM   15  C   UNL     1     -39.152 -54.615  14.051  1.00  0.00     0.037 C 
ENDBRANCH  12  14
ENDBRANCH   7   8
ENDBRANCH   1   7
BRANCH   4  16
HETATM   16  C   UNL     1     -40.570 -45.703  10.728  1.00  0.00     0.070 A 
HETATM   17  C   UNL     1     -39.719 -44.611  10.435  1.00  0.00     0.138 A 
HETATM   18  N   UNL     1     -40.297 -43.435  10.696  1.00  0.00    -0.308 N 
HETATM   19  N   UNL     1     -41.507 -43.776  11.173  1.00  0.00    -0.302 N 
ATOM     20  HN  UNL     1     -39.912 -42.500  10.564  1.00  0.00     0.186 HD
HETATM   21  C   UNL     1     -41.729 -45.125  11.188  1.00  0.00     0.141 A 
BRANCH  19  22
HETATM   22  C   UNL     1     -42.410 -42.738  11.627  1.00  0.00     0.143 C 
HETATM   23  C   UNL     1     -42.085 -41.392  11.008  1.00  0.00     0.028 C 
ENDBRANCH  19  22
ENDBRANCH   4  16
TORSDOF 5
ENDMDL
MODEL 9
REMARK VINA RESULT:      -5.2      1.913      2.482
REMARK  5 active torsions:
REMARK  status: ('A' for Active; 'I' for Inactive)
REMARK    1  A    between atoms: C_2  and  N_3 
REMARK    2  A    between atoms: C_7  and  C_8 
REMARK    3  A    between atoms: C_8  and  N_9 
REMARK       I    between atoms: N_9  and  C_10 
REMARK       I    between atoms: C_10  and  N_12 
REMARK    4  A    between atoms: N_12  and  C_13 
REMARK    5  A    between atoms: N_17  and  C_18 
ROOT
HETATM    1  N   UNL     1     -43.126 -51.050  12.890  1.00  0.00    -0.342 N 
HETATM    2  C   UNL     1     -42.362 -50.195  12.126  1.00  0.00     0.320 C 
HETATM    3  O   UNL     1     -41.226 -50.477  11.763  1.00  0.00    -0.247 OA
HETATM    4  N   UNL     1     -43.013 -49.009  11.890  1.00  0.00    -0.306 N 
HETATM    5  H   UNL     1     -44.114 -51.043  12.679  1.00  0.00     0.164 HD
HETATM    6  H   UNL     1     -43.825 -48.795  12.450  1.00  0.00     0.171 HD
ENDROOT
BRANCH   1   7
HETATM    7  C   UNL     1     -42.554 -52.308  13.334  1.00  0.00     0.130 C 
BRANCH   7   8
HETATM    8  C   UNL     1     -43.587 -53.162  14.071  1.00  0.00     0.032 C 
HETATM    9  C   UNL     1     -44.239 -54.194  13.135  1.00  0.00     0.010 C 
HETATM   10  C   UNL     1     -45.360 -54.947  13.847  1.00  0.00     0.031 C 
HETATM   11  C   UNL     1     -46.349 -53.980  14.499  1.00  0.00     0.272 C 
HETATM   12  N   UNL     1     -45.720 -53.010  15.408  1.00  0.00     0.088 N 
HETATM   13  C   UNL     1     -44.671 -52.259  14.692  1.00  0.00     0.278 C 
BRANCH  12  14
HETATM   14  C   UNL     1     -45.200 -53.589  16.657  1.00  0.00     0.268 C 
HETATM   15  C   UNL     1     -44.589 -52.569  17.609  1.00  0.00     0.037 C 
ENDBRANCH  12  14
ENDBRANCH   7   8
ENDBRANCH   1   7
BRANCH   4  16
HETATM   16  C   UNL     1     -42.449 -47.979  11.161  1.00  0.00     0.070 A 
HETATM   17  C   UNL     1     -42.727 -47.516   9.853  1.00  0.00     0.138 A 
HETATM   18  N   UNL     1     -41.943 -46.494   9.501  1.00  0.00    -0.308 N 
HETATM   19  N   UNL     1     -41.152 -46.318  10.573  1.00  0.00    -0.302 N 
ATOM     20  HN  UNL     1     -41.944 -45.970   8.625  1.00  0.00     0.186 HD
HETATM   21  C   UNL     1     -41.433 -47.168  11.607  1.00  0.00     0.141 A 
BRANCH  19  22
HETATM   22  C   UNL     1     -40.109 -45.311  10.531  1.00  0.00     0.143 C 
HETATM   23  C   UNL     1     -40.557 -44.005  11.158  1.00  0.00     0.028 C 
ENDBRANCH  19  22
ENDBRANCH   4  16
TORSDOF 5
ENDMDL
