MODEL 1
REMARK VINA RESULT:      -6.5      0.000      0.000
REMARK  5 active torsions:
REMARK  status: ('A' for Active; 'I' for Inactive)
REMARK    1  A    between atoms: C_6  and  N_7 
REMARK       I    between atoms: N_7  and  C_8 
REMARK    2  A    between atoms: C_8  and  C_10 
REMARK    3  A    between atoms: C_10  and  N_11 
REMARK    4  A    between atoms: C_18  and  C_19 
REMARK    5  A    between atoms: C_19  and  N_20 
ROOT
HETATM    1  N   UNL     1     -41.395 -53.331  12.935  1.00  0.00    -0.247 N 
HETATM    2  N   UNL     1     -42.696 -53.683  13.200  1.00  0.00    -0.299 N 
ATOM      3  HN  UNL     1     -43.453 -53.367  12.593  1.00  0.00     0.187 HD
HETATM    4  C   UNL     1     -42.945 -54.425  14.233  1.00  0.00     0.029 A 
HETATM    5  C   UNL     1     -44.390 -54.801  14.470  1.00  0.00     0.070 C 
HETATM    6  C   UNL     1     -41.911 -54.910  15.180  1.00  0.00    -0.013 A 
HETATM    7  C   UNL     1     -42.269 -55.763  16.363  1.00  0.00     0.052 C 
HETATM    8  C   UNL     1     -40.651 -54.542  14.887  1.00  0.00     0.103 A 
HETATM    9  C   UNL     1     -40.315 -53.740  13.698  1.00  0.00     0.282 A 
HETATM   10  O   UNL     1     -39.147 -53.490  13.408  1.00  0.00    -0.265 OA
ENDROOT
BRANCH   1  11
HETATM   11  C   UNL     1     -41.186 -52.463  11.780  1.00  0.00     0.255 C 
BRANCH  11  12
HETATM   12  C   UNL     1     -41.493 -51.000  12.082  1.00  0.00     0.237 C 
HETATM   13  N   UNL     1     -40.945 -50.081  11.206  1.00  0.00    -0.355 N 
HETATM   14  H   UNL     1     -40.437 -50.416  10.389  1.00  0.00     0.162 HD
HETATM   15  O   UNL     1     -42.091 -50.665  13.105  1.00  0.00    -0.272 OA
BRANCH  13  16
HETATM   16  C   UNL     1     -41.103 -48.648  11.415  1.00  0.00     0.088 C 
HETATM   17  C   UNL     1     -41.887 -48.027  10.251  1.00  0.00     0.025 C 
HETATM   18  C   UNL     1     -42.099 -46.529  10.444  1.00  0.00     0.002 C 
HETATM   19  C   UNL     1     -40.780 -45.799  10.687  1.00  0.00     0.005 C 
HETATM   20  C   UNL     1     -39.961 -46.403  11.840  1.00  0.00    -0.013 C 
HETATM   21  C   UNL     1     -40.604 -46.070  13.195  1.00  0.00     0.010 C 
HETATM   22  C   UNL     1     -39.748 -47.924  11.603  1.00  0.00     0.008 C 
HETATM   23  C   UNL     1     -38.901 -48.560  12.712  1.00  0.00     0.012 C 
ENDBRANCH  13  16
ENDBRANCH  11  12
ENDBRANCH   1  11
BRANCH   8  24
HETATM   24  C   UNL     1     -39.528 -55.032  15.786  1.00  0.00    -0.031 C 
BRANCH  24  25
HETATM   25  N   UNL     1     -38.595 -55.438  16.532  1.00  0.00    -0.365 N 
ATOM     26  HN2 UNL     1     -39.360 -55.095  15.950  1.00  0.00     0.165 HD
ATOM     27  HN1 UNL     1     -37.840 -55.767  17.135  1.00  0.00     0.165 HD
ENDBRANCH  24  25
ENDBRANCH   8  24
TORSDOF 5
ENDMDL
MODEL 2
REMARK VINA RESULT:      -6.4      1.362      2.684
REMARK  5 active torsions:
REMARK  status: ('A' for Active; 'I' for Inactive)
REMARK    1  A    between atoms: C_6  and  N_7 
REMARK       I    between atoms: N_7  and  C_8 
REMARK    2  A    between atoms: C_8  and  C_10 
REMARK    3  A    between atoms: C_10  and  N_11 
REMARK    4  A    between atoms: C_18  and  C_19 
REMARK    5  A    between atoms: C_19  and  N_20 
ROOT
HETATM    1  N   UNL     1     -41.766 -53.011  12.840  1.00  0.00    -0.247 N 
HETATM    2  N   UNL     1     -40.845 -53.387  13.787  1.00  0.00    -0.299 N 
ATOM      3  HN  UNL     1     -39.889 -53.032  13.752  1.00  0.00     0.187 HD
HETATM    4  C   UNL     1     -41.212 -54.201  14.727  1.00  0.00     0.029 A 
HETATM    5  C   UNL     1     -40.168 -54.569  15.756  1.00  0.00     0.070 C 
HETATM    6  C   UNL     1     -42.572 -54.783  14.842  1.00  0.00    -0.013 A 
HETATM    7  C   UNL     1     -42.930 -55.727  15.955  1.00  0.00     0.052 C 
HETATM    8  C   UNL     1     -43.443 -54.392  13.894  1.00  0.00     0.103 A 
HETATM    9  C   UNL     1     -43.084 -53.433  12.836  1.00  0.00     0.282 A 
HETATM   10  O   UNL     1     -43.923 -53.027  12.033  1.00  0.00    -0.265 OA
ENDROOT
BRANCH   1  11
HETATM   11  C   UNL     1     -41.279 -52.125  11.787  1.00  0.00     0.255 C 
BRANCH  11  12
HETATM   12  C   UNL     1     -41.483 -50.651  12.121  1.00  0.00     0.237 C 
HETATM   13  N   UNL     1     -41.148 -49.758  11.118  1.00  0.00    -0.355 N 
HETATM   14  H   UNL     1     -40.857 -50.119  10.211  1.00  0.00     0.162 HD
HETATM   15  O   UNL     1     -41.811 -50.285  13.250  1.00  0.00    -0.272 OA
BRANCH  13  16
HETATM   16  C   UNL     1     -41.230 -48.319  11.327  1.00  0.00     0.088 C 
HETATM   17  C   UNL     1     -42.037 -47.666  10.195  1.00  0.00     0.025 C 
HETATM   18  C   UNL     1     -42.169 -46.159  10.390  1.00  0.00     0.002 C 
HETATM   19  C   UNL     1     -40.809 -45.490  10.570  1.00  0.00     0.005 C 
HETATM   20  C   UNL     1     -39.968 -46.129  11.689  1.00  0.00    -0.013 C 
HETATM   21  C   UNL     1     -40.534 -45.762  13.069  1.00  0.00     0.010 C 
HETATM   22  C   UNL     1     -39.837 -47.659  11.451  1.00  0.00     0.008 C 
HETATM   23  C   UNL     1     -38.971 -48.330  12.524  1.00  0.00     0.012 C 
ENDBRANCH  13  16
ENDBRANCH  11  12
ENDBRANCH   1  11
BRANCH   8  24
HETATM   24  C   UNL     1     -44.869 -54.912  13.964  1.00  0.00    -0.031 C 
BRANCH  24  25
HETATM   25  N   UNL     1     -46.053 -55.344  14.022  1.00  0.00    -0.365 N 
ATOM     26  HN2 UNL     1     -45.087 -55.021  13.971  1.00  0.00     0.165 HD
ATOM     27  HN1 UNL     1     -47.011 -55.693  14.068  1.00  0.00     0.165 HD
ENDBRANCH  24  25
ENDBRANCH   8  24
TORSDOF 5
ENDMDL
MODEL 3
REMARK VINA RESULT:      -6.4      2.404      7.607
REMARK  5 active torsions:
REMARK  status: ('A' for Active; 'I' for Inactive)
REMARK    1  A    between atoms: C_6  and  N_7 
REMARK       I    between atoms: N_7  and  C_8 
REMARK    2  A    between atoms: C_8  and  C_10 
REMARK    3  A    between atoms: C_10  and  N_11 
REMARK    4  A    between atoms: C_18  and  C_19 
REMARK    5  A    between atoms: C_19  and  N_20 
ROOT
HETATM    1  N   UNL     1     -41.275 -49.219  11.615  1.00  0.00    -0.247 N 
HETATM    2  N   UNL     1     -42.445 -48.900  10.971  1.00  0.00    -0.299 N 
ATOM      3  HN  UNL     1     -43.054 -49.634  10.609  1.00  0.00     0.187 HD
HETATM    4  C   UNL     1     -42.761 -47.651  10.830  1.00  0.00     0.029 A 
HETATM    5  C   UNL     1     -44.068 -47.353  10.132  1.00  0.00     0.070 C 
HETATM    6  C   UNL     1     -41.925 -46.521  11.305  1.00  0.00    -0.013 A 
HETATM    7  C   UNL     1     -42.349 -45.093  11.105  1.00  0.00     0.052 C 
HETATM    8  C   UNL     1     -40.787 -46.874  11.929  1.00  0.00     0.103 A 
HETATM    9  C   UNL     1     -40.410 -48.280  12.152  1.00  0.00     0.282 A 
HETATM   10  O   UNL     1     -39.407 -48.575  12.800  1.00  0.00    -0.265 OA
ENDROOT
BRANCH   1  11
HETATM   11  C   UNL     1     -40.957 -50.640  11.706  1.00  0.00     0.255 C 
BRANCH  11  12
HETATM   12  C   UNL     1     -41.752 -51.351  12.796  1.00  0.00     0.237 C 
HETATM   13  N   UNL     1     -42.846 -52.078  12.361  1.00  0.00    -0.355 N 
HETATM   14  H   UNL     1     -43.022 -52.157  11.361  1.00  0.00     0.162 HD
HETATM   15  O   UNL     1     -41.498 -51.188  13.989  1.00  0.00    -0.272 OA
BRANCH  13  16
HETATM   16  C   UNL     1     -43.730 -52.751  13.303  1.00  0.00     0.088 C 
HETATM   17  C   UNL     1     -43.285 -54.207  13.498  1.00  0.00     0.025 C 
HETATM   18  C   UNL     1     -44.171 -54.941  14.500  1.00  0.00     0.002 C 
HETATM   19  C   UNL     1     -45.647 -54.851  14.121  1.00  0.00     0.005 C 
HETATM   20  C   UNL     1     -46.125 -53.405  13.904  1.00  0.00    -0.013 C 
HETATM   21  C   UNL     1     -46.236 -52.664  15.245  1.00  0.00     0.010 C 
HETATM   22  C   UNL     1     -45.214 -52.692  12.867  1.00  0.00     0.008 C 
HETATM   23  C   UNL     1     -45.680 -51.257  12.590  1.00  0.00     0.012 C 
ENDBRANCH  13  16
ENDBRANCH  11  12
ENDBRANCH   1  11
BRANCH   8  24
HETATM   24  C   UNL     1     -39.894 -45.776  12.480  1.00  0.00    -0.031 C 
BRANCH  24  25
HETATM   25  N   UNL     1     -39.153 -44.863  12.938  1.00  0.00    -0.365 N 
ATOM     26  HN2 UNL     1     -39.768 -45.582  12.557  1.00  0.00     0.165 HD
ATOM     27  HN1 UNL     1     -38.553 -44.126  13.309  1.00  0.00     0.165 HD
ENDBRANCH  24  25
ENDBRANCH   8  24
TORSDOF 5
ENDMDL
MODEL 4
REMARK VINA RESULT:      -6.3      4.256      6.735
REMARK  5 active torsions:
REMARK  status: ('A' for Active; 'I' for Inactive)
REMARK    1  A    between atoms: C_6  and  N_7 
REMARK       I    between atoms: N_7  and  C_8 
REMARK    2  A    between atoms: C_8  and  C_10 
REMARK    3  A    between atoms: C_10  and  N_11 
REMARK    4  A    between atoms: C_18  and  C_19 
REMARK    5  A    between atoms: C_19  and  N_20 
ROOT
HETATM    1  N   UNL     1     -44.107 -54.424  14.483  1.00  0.00    -0.247 N 
HETATM    2  N   UNL     1     -43.294 -55.026  15.411  1.00  0.00    -0.299 N 
ATOM      3  HN  UNL     1     -43.694 -55.530  16.203  1.00  0.00     0.187 HD
HETATM    4  C   UNL     1     -42.008 -54.943  15.263  1.00  0.00     0.029 A 
HETATM    5  C   UNL     1     -41.156 -55.639  16.300  1.00  0.00     0.070 C 
HETATM    6  C   UNL     1     -41.342 -54.214  14.157  1.00  0.00    -0.013 A 
HETATM    7  C   UNL     1     -39.845 -54.152  14.047  1.00  0.00     0.052 C 
HETATM    8  C   UNL     1     -42.173 -53.636  13.271  1.00  0.00     0.103 A 
HETATM    9  C   UNL     1     -43.638 -53.743  13.372  1.00  0.00     0.282 A 
HETATM   10  O   UNL     1     -44.373 -53.279  12.503  1.00  0.00    -0.265 OA
ENDROOT
BRANCH   1  11
HETATM   11  C   UNL     1     -45.543 -54.520  14.728  1.00  0.00     0.255 C 
BRANCH  11  12
HETATM   12  C   UNL     1     -45.965 -53.831  16.021  1.00  0.00     0.237 C 
HETATM   13  N   UNL     1     -46.177 -52.467  15.931  1.00  0.00    -0.355 N 
HETATM   14  H   UNL     1     -46.110 -52.014  15.021  1.00  0.00     0.162 HD
HETATM   15  O   UNL     1     -45.999 -54.437  17.092  1.00  0.00    -0.272 OA
BRANCH  13  16
HETATM   16  C   UNL     1     -46.519 -51.675  17.104  1.00  0.00     0.088 C 
HETATM   17  C   UNL     1     -47.984 -51.222  17.027  1.00  0.00     0.025 C 
HETATM   18  C   UNL     1     -48.392 -50.410  18.253  1.00  0.00     0.002 C 
HETATM   19  C   UNL     1     -47.450 -49.231  18.489  1.00  0.00     0.005 C 
HETATM   20  C   UNL     1     -45.971 -49.647  18.557  1.00  0.00    -0.013 C 
HETATM   21  C   UNL     1     -45.675 -50.381  19.874  1.00  0.00     0.010 C 
HETATM   22  C   UNL     1     -45.584 -50.456  17.288  1.00  0.00     0.008 C 
HETATM   23  C   UNL     1     -44.104 -50.857  17.298  1.00  0.00     0.012 C 
ENDBRANCH  13  16
ENDBRANCH  11  12
ENDBRANCH   1  11
BRANCH   8  24
HETATM   24  C   UNL     1     -41.569 -52.902  12.085  1.00  0.00    -0.031 C 
BRANCH  24  25
HETATM   25  N   UNL     1     -41.067 -52.293  11.101  1.00  0.00    -0.365 N 
ATOM     26  HN2 UNL     1     -41.497 -52.785  11.884  1.00  0.00     0.165 HD
ATOM     27  HN1 UNL     1     -40.661 -51.800  10.305  1.00  0.00     0.165 HD
ENDBRANCH  24  25
ENDBRANCH   8  24
TORSDOF 5
ENDMDL
MODEL 5
REMARK VINA RESULT:      -6.3      1.724      2.379
REMARK  5 active torsions:
REMARK  status: ('A' for Active; 'I' for Inactive)
REMARK    1  A    between atoms: C_6  and  N_7 
REMARK       I    between atoms: N_7  and  C_8 
REMARK    2  A    between atoms: C_8  and  C_10 
REMARK    3  A    between atoms: C_10  and  N_11 
REMARK    4  A    between atoms: C_18  and  C_19 
REMARK    5  A    between atoms: C_19  and  N_20 
ROOT
HETATM    1  N   UNL     1     -40.895 -51.396  11.951  1.00  0.00    -0.247 N 
HETATM    2  N   UNL     1     -42.217 -51.752  11.844  1.00  0.00    -0.299 N 
ATOM      3  HN  UNL     1     -42.834 -51.267  11.193  1.00  0.00     0.187 HD
HETATM    4  C   UNL     1     -42.667 -52.716  12.585  1.00  0.00     0.029 A 
HETATM    5  C   UNL     1     -44.123 -53.084  12.416  1.00  0.00     0.070 C 
HETATM    6  C   UNL     1     -41.847 -53.460  13.573  1.00  0.00    -0.013 A 
HETATM    7  C   UNL     1     -42.433 -54.565  14.405  1.00  0.00     0.052 C 
HETATM    8  C   UNL     1     -40.559 -53.080  13.649  1.00  0.00     0.103 A 
HETATM    9  C   UNL     1     -39.993 -52.022  12.794  1.00  0.00     0.282 A 
HETATM   10  O   UNL     1     -38.794 -51.753  12.824  1.00  0.00    -0.265 OA
ENDROOT
BRANCH   1  11
HETATM   11  C   UNL     1     -40.461 -50.278  11.119  1.00  0.00     0.255 C 
BRANCH  11  12
HETATM   12  C   UNL     1     -40.821 -48.924  11.720  1.00  0.00     0.237 C 
HETATM   13  N   UNL     1     -39.859 -47.938  11.596  1.00  0.00    -0.355 N 
HETATM   14  H   UNL     1     -39.012 -48.138  11.066  1.00  0.00     0.162 HD
HETATM   15  O   UNL     1     -41.852 -48.763  12.373  1.00  0.00    -0.272 OA
BRANCH  13  16
HETATM   16  C   UNL     1     -40.045 -46.619  12.183  1.00  0.00     0.088 C 
HETATM   17  C   UNL     1     -39.945 -45.538  11.097  1.00  0.00     0.025 C 
HETATM   18  C   UNL     1     -40.162 -44.139  11.668  1.00  0.00     0.002 C 
HETATM   19  C   UNL     1     -39.221 -43.853  12.835  1.00  0.00     0.005 C 
HETATM   20  C   UNL     1     -39.285 -44.925  13.937  1.00  0.00    -0.013 C 
HETATM   21  C   UNL     1     -40.597 -44.810  14.729  1.00  0.00     0.010 C 
HETATM   22  C   UNL     1     -39.043 -46.333  13.327  1.00  0.00     0.008 C 
HETATM   23  C   UNL     1     -39.059 -47.429  14.399  1.00  0.00     0.012 C 
ENDBRANCH  13  16
ENDBRANCH  11  12
ENDBRANCH   1  11
BRANCH   8  24
HETATM   24  C   UNL     1     -39.643 -53.820  14.609  1.00  0.00    -0.031 C 
BRANCH  24  25
HETATM   25  N   UNL     1     -38.882 -54.434  15.407  1.00  0.00    -0.365 N 
ATOM     26  HN2 UNL     1     -39.496 -53.915  14.778  1.00  0.00     0.165 HD
ATOM     27  HN1 UNL     1     -38.268 -54.931  16.052  1.00  0.00     0.165 HD
ENDBRANCH  24  25
ENDBRANCH   8  24
TORSDOF 5
ENDMDL
MODEL 6
REMARK VINA RESULT:      -6.2      2.689      6.878
REMARK  5 active torsions:
REMARK  status: ('A' for Active; 'I' for Inactive)
REMARK    1  A    between atoms: C_6  and  N_7 
REMARK       I    between atoms: N_7  and  C_8 
REMARK    2  A    between atoms: C_8  and  C_10 
REMARK    3  A    between atoms: C_10  and  N_11 
REMARK    4  A    between atoms: C_18  and  C_19 
REMARK    5  A    between atoms: C_19  and  N_20 
ROOT
HETATM    1  N   UNL     1     -39.352 -50.162  13.231  1.00  0.00    -0.247 N 
HETATM    2  N   UNL     1     -38.807 -49.678  14.395  1.00  0.00    -0.299 N 
ATOM      3  HN  UNL     1     -38.535 -50.314  15.144  1.00  0.00     0.187 HD
HETATM    4  C   UNL     1     -38.643 -48.398  14.524  1.00  0.00     0.029 A 
HETATM    5  C   UNL     1     -38.020 -47.917  15.815  1.00  0.00     0.070 C 
HETATM    6  C   UNL     1     -39.029 -47.400  13.496  1.00  0.00    -0.013 A 
HETATM    7  C   UNL     1     -38.816 -45.929  13.712  1.00  0.00     0.052 C 
HETATM    8  C   UNL     1     -39.561 -47.914  12.373  1.00  0.00     0.103 A 
HETATM    9  C   UNL     1     -39.723 -49.363  12.163  1.00  0.00     0.282 A 
HETATM   10  O   UNL     1     -40.133 -49.809  11.093  1.00  0.00    -0.265 OA
ENDROOT
BRANCH   1  11
HETATM   11  C   UNL     1     -39.546 -51.606  13.164  1.00  0.00     0.255 C 
BRANCH  11  12
HETATM   12  C   UNL     1     -40.893 -52.045  13.731  1.00  0.00     0.237 C 
HETATM   13  N   UNL     1     -41.987 -51.819  12.916  1.00  0.00    -0.355 N 
HETATM   14  H   UNL     1     -41.839 -51.446  11.979  1.00  0.00     0.162 HD
HETATM   15  O   UNL     1     -41.001 -52.462  14.884  1.00  0.00    -0.272 OA
BRANCH  13  16
HETATM   16  C   UNL     1     -43.339 -52.128  13.361  1.00  0.00     0.088 C 
HETATM   17  C   UNL     1     -43.955 -53.212  12.465  1.00  0.00     0.025 C 
HETATM   18  C   UNL     1     -45.365 -53.585  12.914  1.00  0.00     0.002 C 
HETATM   19  C   UNL     1     -46.269 -52.359  13.017  1.00  0.00     0.005 C 
HETATM   20  C   UNL     1     -45.675 -51.246  13.897  1.00  0.00    -0.013 C 
HETATM   21  C   UNL     1     -45.734 -51.639  15.381  1.00  0.00     0.010 C 
HETATM   22  C   UNL     1     -44.249 -50.877  13.403  1.00  0.00     0.008 C 
HETATM   23  C   UNL     1     -43.635 -49.742  14.230  1.00  0.00     0.012 C 
ENDBRANCH  13  16
ENDBRANCH  11  12
ENDBRANCH   1  11
BRANCH   8  24
HETATM   24  C   UNL     1     -39.947 -46.960  11.254  1.00  0.00    -0.031 C 
BRANCH  24  25
HETATM   25  N   UNL     1     -40.268 -46.169  10.326  1.00  0.00    -0.365 N 
ATOM     26  HN2 UNL     1     -40.024 -46.828  11.065  1.00  0.00     0.165 HD
ATOM     27  HN1 UNL     1     -40.527 -45.528   9.575  1.00  0.00     0.165 HD
ENDBRANCH  24  25
ENDBRANCH   8  24
TORSDOF 5
ENDMDL
MODEL 7
REMARK VINA RESULT:      -6.2      2.709      5.015
REMARK  5 active torsions:
REMARK  status: ('A' for Active; 'I' for Inactive)
REMARK    1  A    between atoms: C_6  and  N_7 
REMARK       I    between atoms: N_7  and  C_8 
REMARK    2  A    between atoms: C_8  and  C_10 
REMARK    3  A    between atoms: C_10  and  N_11 
REMARK    4  A    between atoms: C_18  and  C_19 
REMARK    5  A    between atoms: C_19  and  N_20 
ROOT
HETATM    1  N   UNL     1     -43.323 -53.470  14.327  1.00  0.00    -0.247 N 
HETATM    2  N   UNL     1     -43.629 -53.006  15.583  1.00  0.00    -0.299 N 
ATOM      3  HN  UNL     1     -43.003 -53.183  16.368  1.00  0.00     0.187 HD
HETATM    4  C   UNL     1     -44.728 -52.340  15.753  1.00  0.00     0.029 A 
HETATM    5  C   UNL     1     -45.010 -51.835  17.149  1.00  0.00     0.070 C 
HETATM    6  C   UNL     1     -45.706 -52.056  14.674  1.00  0.00    -0.013 A 
HETATM    7  C   UNL     1     -46.966 -51.282  14.941  1.00  0.00     0.052 C 
HETATM    8  C   UNL     1     -45.372 -52.529  13.460  1.00  0.00     0.103 A 
HETATM    9  C   UNL     1     -44.112 -53.250  13.210  1.00  0.00     0.282 A 
HETATM   10  O   UNL     1     -43.790 -53.596  12.075  1.00  0.00    -0.265 OA
ENDROOT
BRANCH   1  11
HETATM   11  C   UNL     1     -42.092 -54.245  14.210  1.00  0.00     0.255 C 
BRANCH  11  12
HETATM   12  C   UNL     1     -40.935 -53.429  13.643  1.00  0.00     0.237 C 
HETATM   13  N   UNL     1     -40.622 -52.274  14.335  1.00  0.00    -0.355 N 
HETATM   14  H   UNL     1     -41.118 -52.065  15.201  1.00  0.00     0.162 HD
HETATM   15  O   UNL     1     -40.400 -53.727  12.575  1.00  0.00    -0.272 OA
BRANCH  13  16
HETATM   16  C   UNL     1     -39.584 -51.367  13.865  1.00  0.00     0.088 C 
HETATM   17  C   UNL     1     -38.573 -51.094  14.988  1.00  0.00     0.025 C 
HETATM   18  C   UNL     1     -37.451 -50.168  14.529  1.00  0.00     0.002 C 
HETATM   19  C   UNL     1     -37.996 -48.872  13.934  1.00  0.00     0.005 C 
HETATM   20  C   UNL     1     -39.023 -49.108  12.814  1.00  0.00    -0.013 C 
HETATM   21  C   UNL     1     -38.328 -49.614  11.540  1.00  0.00     0.010 C 
HETATM   22  C   UNL     1     -40.160 -50.039  13.319  1.00  0.00     0.008 C 
HETATM   23  C   UNL     1     -41.228 -50.270  12.243  1.00  0.00     0.012 C 
ENDBRANCH  13  16
ENDBRANCH  11  12
ENDBRANCH   1  11
BRANCH   8  24
HETATM   24  C   UNL     1     -46.302 -52.246  12.293  1.00  0.00    -0.031 C 
BRANCH  24  25
HETATM   25  N   UNL     1     -47.075 -52.011  11.324  1.00  0.00    -0.365 N 
ATOM     26  HN2 UNL     1     -46.452 -52.174  12.115  1.00  0.00     0.165 HD
ATOM     27  HN1 UNL     1     -47.700 -51.822  10.540  1.00  0.00     0.165 HD
ENDBRANCH  24  25
ENDBRANCH   8  24
TORSDOF 5
ENDMDL
MODEL 8
REMARK VINA RESULT:      -6.2      2.823      8.183
REMARK  5 active torsions:
REMARK  status: ('A' for Active; 'I' for Inactive)
REMARK    1  A    between atoms: C_6  and  N_7 
REMARK       I    between atoms: N_7  and  C_8 
REMARK    2  A    between atoms: C_8  and  C_10 
REMARK    3  A    between atoms: C_10  and  N_11 
REMARK    4  A    between atoms: C_18  and  C_19 
REMARK    5  A    between atoms: C_19  and  N_20 
ROOT
HETATM    1  N   UNL     1     -42.758 -46.933  12.004  1.00  0.00    -0.247 N 
HETATM    2  N   UNL     1     -43.096 -46.012  12.965  1.00  0.00    -0.299 N 
ATOM      3  HN  UNL     1     -43.842 -46.209  13.633  1.00  0.00     0.187 HD
HETATM    4  C   UNL     1     -42.451 -44.889  13.010  1.00  0.00     0.029 A 
HETATM    5  C   UNL     1     -42.847 -43.917  14.098  1.00  0.00     0.070 C 
HETATM    6  C   UNL     1     -41.370 -44.510  12.066  1.00  0.00    -0.013 A 
HETATM    7  C   UNL     1     -40.666 -43.187  12.169  1.00  0.00     0.052 C 
HETATM    8  C   UNL     1     -41.071 -45.437  11.139  1.00  0.00     0.103 A 
HETATM    9  C   UNL     1     -41.745 -46.746  11.080  1.00  0.00     0.282 A 
HETATM   10  O   UNL     1     -41.393 -47.608  10.276  1.00  0.00    -0.265 OA
ENDROOT
BRANCH   1  11
HETATM   11  C   UNL     1     -43.548 -48.160  11.983  1.00  0.00     0.255 C 
BRANCH  11  12
HETATM   12  C   UNL     1     -42.939 -49.265  12.840  1.00  0.00     0.237 C 
HETATM   13  N   UNL     1     -42.761 -50.483  12.208  1.00  0.00    -0.355 N 
HETATM   14  H   UNL     1     -42.975 -50.561  11.215  1.00  0.00     0.162 HD
HETATM   15  O   UNL     1     -42.732 -49.107  14.043  1.00  0.00    -0.272 OA
BRANCH  13  16
HETATM   16  C   UNL     1     -42.252 -51.642  12.928  1.00  0.00     0.088 C 
HETATM   17  C   UNL     1     -40.728 -51.738  12.762  1.00  0.00     0.025 C 
HETATM   18  C   UNL     1     -40.149 -52.927  13.524  1.00  0.00     0.002 C 
HETATM   19  C   UNL     1     -40.841 -54.233  13.144  1.00  0.00     0.005 C 
HETATM   20  C   UNL     1     -42.372 -54.168  13.285  1.00  0.00    -0.013 C 
HETATM   21  C   UNL     1     -42.780 -54.171  14.766  1.00  0.00     0.010 C 
HETATM   22  C   UNL     1     -42.930 -52.959  12.484  1.00  0.00     0.008 C 
HETATM   23  C   UNL     1     -44.459 -52.880  12.565  1.00  0.00     0.012 C 
ENDBRANCH  13  16
ENDBRANCH  11  12
ENDBRANCH   1  11
BRANCH   8  24
HETATM   24  C   UNL     1     -39.948 -45.143  10.159  1.00  0.00    -0.031 C 
BRANCH  24  25
HETATM   25  N   UNL     1     -39.015 -44.898   9.345  1.00  0.00    -0.365 N 
ATOM     26  HN2 UNL     1     -39.784 -45.076   9.991  1.00  0.00     0.165 HD
ATOM     27  HN1 UNL     1     -38.261 -44.701   8.687  1.00  0.00     0.165 HD
ENDBRANCH  24  25
ENDBRANCH   8  24
TORSDOF 5
ENDMDL
MODEL 9
REMARK VINA RESULT:      -6.0      3.462      6.116
REMARK  5 active torsions:
REMARK  status: ('A' for Active; 'I' for Inactive)
REMARK    1  A    between atoms: C_6  and  N_7 
REMARK       I    between atoms: N_7  and  C_8 
REMARK    2  A    between atoms: C_8  and  C_10 
REMARK    3  A    between atoms: C_10  and  N_11 
REMARK    4  A    between atoms: C_18  and  C_19 
REMARK    5  A    between atoms: C_19  and  N_20 
ROOT
HETATM    1  N   UNL     1     -42.833 -52.755  12.557  1.00  0.00    -0.247 N 
HETATM    2  N   UNL     1     -42.516 -51.512  12.067  1.00  0.00    -0.299 N 
ATOM      3  HN  UNL     1     -43.227 -50.935  11.617  1.00  0.00     0.187 HD
HETATM    4  C   UNL     1     -41.298 -51.084  12.185  1.00  0.00     0.029 A 
HETATM    5  C   UNL     1     -41.005 -49.702  11.648  1.00  0.00     0.070 C 
HETATM    6  C   UNL     1     -40.198 -51.863  12.803  1.00  0.00    -0.013 A 
HETATM    7  C   UNL     1     -38.805 -51.310  12.904  1.00  0.00     0.052 C 
HETATM    8  C   UNL     1     -40.547 -53.076  13.269  1.00  0.00     0.103 A 
HETATM    9  C   UNL     1     -41.928 -53.584  13.198  1.00  0.00     0.282 A 
HETATM   10  O   UNL     1     -42.238 -54.659  13.707  1.00  0.00    -0.265 OA
ENDROOT
BRANCH   1  11
HETATM   11  C   UNL     1     -44.210 -53.193  12.357  1.00  0.00     0.255 C 
BRANCH  11  12
HETATM   12  C   UNL     1     -45.021 -53.188  13.648  1.00  0.00     0.237 C 
HETATM   13  N   UNL     1     -45.030 -51.994  14.345  1.00  0.00    -0.355 N 
HETATM   14  H   UNL     1     -44.567 -51.181  13.941  1.00  0.00     0.162 HD
HETATM   15  O   UNL     1     -45.532 -54.217  14.091  1.00  0.00    -0.272 OA
BRANCH  13  16
HETATM   16  C   UNL     1     -45.710 -51.870  15.627  1.00  0.00     0.088 C 
HETATM   17  C   UNL     1     -47.145 -51.367  15.419  1.00  0.00     0.025 C 
HETATM   18  C   UNL     1     -47.902 -51.248  16.738  1.00  0.00     0.002 C 
HETATM   19  C   UNL     1     -47.146 -50.390  17.749  1.00  0.00     0.005 C 
HETATM   20  C   UNL     1     -45.698 -50.859  17.973  1.00  0.00    -0.013 C 
HETATM   21  C   UNL     1     -45.670 -52.163  18.785  1.00  0.00     0.010 C 
HETATM   22  C   UNL     1     -44.950 -50.951  16.614  1.00  0.00     0.008 C 
HETATM   23  C   UNL     1     -43.489 -51.378  16.795  1.00  0.00     0.012 C 
ENDBRANCH  13  16
ENDBRANCH  11  12
ENDBRANCH   1  11
BRANCH   8  24
HETATM   24  C   UNL     1     -39.486 -53.922  13.952  1.00  0.00    -0.031 C 
BRANCH  24  25
HETATM   25  N   UNL     1     -38.605 -54.624  14.520  1.00  0.00    -0.365 N 
ATOM     26  HN2 UNL     1     -39.330 -54.079  14.053  1.00  0.00     0.165 HD
ATOM     27  HN1 UNL     1     -37.892 -55.192  14.979  1.00  0.00     0.165 HD
ENDBRANCH  24  25
ENDBRANCH   8  24
TORSDOF 5
ENDMDL
