MODEL 1
REMARK VINA RESULT:      -6.4      0.000      0.000
REMARK  5 active torsions:
REMARK  status: ('A' for Active; 'I' for Inactive)
REMARK    1  A    between atoms: O_2  and  C_3 
REMARK    2  A    between atoms: C_6  and  N_7 
REMARK    3  A    between atoms: N_7  and  C_8 
REMARK    4  A    between atoms: C_8  and  C_10 
REMARK    5  A    between atoms: C_10  and  C_11 
ROOT
HETATM    1  N   UNL     1     -43.672 -50.417  12.592  1.00  0.00     0.093 N 
HETATM    2  H   UNL     1     -44.011 -49.626  12.055  1.00  0.00     0.316 HD
ENDROOT
BRANCH   1   3
HETATM    3  C   UNL     1     -44.435 -50.773  13.792  1.00  0.00     0.234 C 
HETATM    4  C   UNL     1     -43.751 -52.024  14.401  1.00  0.00     0.075 C 
HETATM    5  C   UNL     1     -44.811 -52.953  13.732  1.00  0.00     0.067 C 
HETATM    6  C   UNL     1     -44.339 -53.667  12.459  1.00  0.00     0.047 C 
HETATM    7  C   UNL     1     -45.708 -51.648  13.530  1.00  0.00     0.014 C 
HETATM    8  C   UNL     1     -46.478 -51.553  12.214  1.00  0.00     0.020 C 
HETATM    9  C   UNL     1     -46.707 -51.416  14.689  1.00  0.00     0.020 C 
BRANCH   5  10
HETATM   10  O   UNL     1     -45.426 -53.942  14.611  1.00  0.00    -0.384 OA
HETATM   11  C   UNL     1     -45.758 -55.212  14.063  1.00  0.00     0.202 C 
ENDBRANCH   5  10
ENDBRANCH   1   3
BRANCH   1  12
HETATM   12  C   UNL     1     -42.217 -50.286  12.786  1.00  0.00     0.222 C 
HETATM   13  C   UNL     1     -41.400 -51.339  12.034  1.00  0.00     0.043 C 
BRANCH  12  14
HETATM   14  C   UNL     1     -41.757 -48.848  12.417  1.00  0.00     0.093 C 
BRANCH  14  15
HETATM   15  C   UNL     1     -42.335 -48.301  11.151  1.00  0.00     0.029 A 
HETATM   16  C   UNL     1     -43.495 -47.503  10.992  1.00  0.00     0.052 A 
HETATM   17  C   UNL     1     -43.580 -47.248   9.641  1.00  0.00     0.024 A 
HETATM   18  C   UNL     1     -44.556 -46.485   8.834  1.00  0.00     0.070 C 
HETATM   19  N   UNL     1     -42.509 -47.889   9.084  1.00  0.00    -0.305 N 
HETATM   20  N   UNL     1     -41.723 -48.507   9.975  1.00  0.00    -0.305 N 
HETATM   21  H   UNL     1     -42.253 -47.943   8.102  1.00  0.00     0.186 HD
ATOM     22  HN  UNL     1     -40.856 -49.017   9.800  1.00  0.00     0.186 HD
ENDBRANCH  14  15
ENDBRANCH  12  14
ENDBRANCH   1  12
TORSDOF 5
ENDMDL
MODEL 2
REMARK VINA RESULT:      -6.4      2.149      3.770
REMARK  5 active torsions:
REMARK  status: ('A' for Active; 'I' for Inactive)
REMARK    1  A    between atoms: O_2  and  C_3 
REMARK    2  A    between atoms: C_6  and  N_7 
REMARK    3  A    between atoms: N_7  and  C_8 
REMARK    4  A    between atoms: C_8  and  C_10 
REMARK    5  A    between atoms: C_10  and  C_11 
ROOT
HETATM    1  N   UNL     1     -43.776 -50.427  12.619  1.00  0.00     0.093 N 
HETATM    2  H   UNL     1     -44.305 -50.312  11.761  1.00  0.00     0.316 HD
ENDROOT
BRANCH   1   3
HETATM    3  C   UNL     1     -44.541 -50.782  13.819  1.00  0.00     0.234 C 
HETATM    4  C   UNL     1     -43.854 -52.029  14.433  1.00  0.00     0.075 C 
HETATM    5  C   UNL     1     -44.911 -52.963  13.765  1.00  0.00     0.067 C 
HETATM    6  C   UNL     1     -44.434 -53.680  12.495  1.00  0.00     0.047 C 
HETATM    7  C   UNL     1     -45.811 -51.661  13.558  1.00  0.00     0.014 C 
HETATM    8  C   UNL     1     -46.579 -51.572  12.240  1.00  0.00     0.020 C 
HETATM    9  C   UNL     1     -46.813 -51.428  14.714  1.00  0.00     0.020 C 
BRANCH   5  10
HETATM   10  O   UNL     1     -45.525 -53.951  14.646  1.00  0.00    -0.384 OA
HETATM   11  C   UNL     1     -45.825 -55.233  14.109  1.00  0.00     0.202 C 
ENDBRANCH   5  10
ENDBRANCH   1   3
BRANCH   1  12
HETATM   12  C   UNL     1     -42.847 -49.295  12.775  1.00  0.00     0.222 C 
HETATM   13  C   UNL     1     -42.719 -48.801  14.218  1.00  0.00     0.043 C 
BRANCH  12  14
HETATM   14  C   UNL     1     -41.458 -49.658  12.180  1.00  0.00     0.093 C 
BRANCH  14  15
HETATM   15  C   UNL     1     -41.084 -51.103  12.275  1.00  0.00     0.029 A 
HETATM   16  C   UNL     1     -40.616 -51.813  13.408  1.00  0.00     0.052 A 
HETATM   17  C   UNL     1     -40.438 -53.109  12.978  1.00  0.00     0.024 A 
HETATM   18  C   UNL     1     -39.969 -54.329  13.668  1.00  0.00     0.070 C 
HETATM   19  N   UNL     1     -40.790 -53.104  11.657  1.00  0.00    -0.305 N 
HETATM   20  N   UNL     1     -41.214 -51.913  11.214  1.00  0.00    -0.305 N 
HETATM   21  H   UNL     1     -40.769 -53.878  11.001  1.00  0.00     0.186 HD
ATOM     22  HN  UNL     1     -41.558 -51.676  10.283  1.00  0.00     0.186 HD
ENDBRANCH  14  15
ENDBRANCH  12  14
ENDBRANCH   1  12
TORSDOF 5
ENDMDL
MODEL 3
REMARK VINA RESULT:      -5.9      4.073      5.315
REMARK  5 active torsions:
REMARK  status: ('A' for Active; 'I' for Inactive)
REMARK    1  A    between atoms: O_2  and  C_3 
REMARK    2  A    between atoms: C_6  and  N_7 
REMARK    3  A    between atoms: N_7  and  C_8 
REMARK    4  A    between atoms: C_8  and  C_10 
REMARK    5  A    between atoms: C_10  and  C_11 
ROOT
HETATM    1  N   UNL     1     -40.274 -47.711  11.942  1.00  0.00     0.093 N 
HETATM    2  H   UNL     1     -39.891 -46.785  11.786  1.00  0.00     0.316 HD
ENDROOT
BRANCH   1   3
HETATM    3  C   UNL     1     -39.536 -48.835  11.358  1.00  0.00     0.234 C 
HETATM    4  C   UNL     1     -40.448 -50.082  11.487  1.00  0.00     0.075 C 
HETATM    5  C   UNL     1     -39.675 -50.538  12.764  1.00  0.00     0.067 C 
HETATM    6  C   UNL     1     -40.381 -50.240  14.092  1.00  0.00     0.047 C 
HETATM    7  C   UNL     1     -38.518 -49.531  12.324  1.00  0.00     0.014 C 
HETATM    8  C   UNL     1     -37.835 -48.754  13.448  1.00  0.00     0.020 C 
HETATM    9  C   UNL     1     -37.418 -50.207  11.470  1.00  0.00     0.020 C 
BRANCH   5  10
HETATM   10  O   UNL     1     -39.248 -51.934  12.776  1.00  0.00    -0.384 OA
HETATM   11  C   UNL     1     -39.215 -52.614  14.025  1.00  0.00     0.202 C 
ENDBRANCH   5  10
ENDBRANCH   1   3
BRANCH   1  12
HETATM   12  C   UNL     1     -41.721 -47.693  11.662  1.00  0.00     0.222 C 
HETATM   13  C   UNL     1     -42.572 -47.259  12.858  1.00  0.00     0.043 C 
BRANCH  12  14
HETATM   14  C   UNL     1     -42.012 -46.813  10.416  1.00  0.00     0.093 C 
BRANCH  14  15
HETATM   15  C   UNL     1     -43.167 -47.259   9.577  1.00  0.00     0.029 A 
HETATM   16  C   UNL     1     -44.508 -47.477   9.979  1.00  0.00     0.052 A 
HETATM   17  C   UNL     1     -45.175 -47.855   8.835  1.00  0.00     0.024 A 
HETATM   18  C   UNL     1     -46.584 -48.225   8.583  1.00  0.00     0.070 C 
HETATM   19  N   UNL     1     -44.231 -47.850   7.847  1.00  0.00    -0.305 N 
HETATM   20  N   UNL     1     -43.016 -47.464   8.260  1.00  0.00    -0.305 N 
HETATM   21  H   UNL     1     -44.348 -48.095   6.869  1.00  0.00     0.186 HD
ATOM     22  HN  UNL     1     -42.170 -47.351   7.701  1.00  0.00     0.186 HD
ENDBRANCH  14  15
ENDBRANCH  12  14
ENDBRANCH   1  12
TORSDOF 5
ENDMDL
MODEL 4
REMARK VINA RESULT:      -5.9      2.907      3.869
REMARK  5 active torsions:
REMARK  status: ('A' for Active; 'I' for Inactive)
REMARK    1  A    between atoms: O_2  and  C_3 
REMARK    2  A    between atoms: C_6  and  N_7 
REMARK    3  A    between atoms: N_7  and  C_8 
REMARK    4  A    between atoms: C_8  and  C_10 
REMARK    5  A    between atoms: C_10  and  C_11 
ROOT
HETATM    1  N   UNL     1     -43.050 -52.547  14.473  1.00  0.00     0.093 N 
HETATM    2  H   UNL     1     -43.329 -53.445  14.851  1.00  0.00     0.316 HD
ENDROOT
BRANCH   1   3
HETATM    3  C   UNL     1     -44.120 -51.694  13.946  1.00  0.00     0.234 C 
HETATM    4  C   UNL     1     -44.632 -50.836  15.133  1.00  0.00     0.075 C 
HETATM    5  C   UNL     1     -45.830 -51.813  15.346  1.00  0.00     0.067 C 
HETATM    6  C   UNL     1     -45.663 -52.803  16.506  1.00  0.00     0.047 C 
HETATM    7  C   UNL     1     -45.532 -52.370  13.880  1.00  0.00     0.014 C 
HETATM    8  C   UNL     1     -45.680 -53.878  13.687  1.00  0.00     0.020 C 
HETATM    9  C   UNL     1     -46.363 -51.661  12.783  1.00  0.00     0.020 C 
BRANCH   5  10
HETATM   10  O   UNL     1     -47.142 -51.184  15.466  1.00  0.00    -0.384 OA
HETATM   11  C   UNL     1     -47.826 -51.292  16.708  1.00  0.00     0.202 C 
ENDBRANCH   5  10
ENDBRANCH   1   3
BRANCH   1  12
HETATM   12  C   UNL     1     -41.894 -52.731  13.578  1.00  0.00     0.222 C 
HETATM   13  C   UNL     1     -41.656 -54.188  13.175  1.00  0.00     0.043 C 
BRANCH  12  14
HETATM   14  C   UNL     1     -42.035 -51.819  12.329  1.00  0.00     0.093 C 
BRANCH  14  15
HETATM   15  C   UNL     1     -40.795 -51.083  11.934  1.00  0.00     0.029 A 
HETATM   16  C   UNL     1     -39.548 -51.045  12.606  1.00  0.00     0.052 A 
HETATM   17  C   UNL     1     -38.737 -50.250  11.827  1.00  0.00     0.024 A 
HETATM   18  C   UNL     1     -37.332 -49.816  11.978  1.00  0.00     0.070 C 
HETATM   19  N   UNL     1     -39.515 -49.863  10.772  1.00  0.00    -0.305 N 
HETATM   20  N   UNL     1     -40.753 -50.377  10.795  1.00  0.00    -0.305 N 
HETATM   21  H   UNL     1     -39.264 -49.254  10.000  1.00  0.00     0.186 HD
ATOM     22  HN  UNL     1     -41.493 -50.258  10.103  1.00  0.00     0.186 HD
ENDBRANCH  14  15
ENDBRANCH  12  14
ENDBRANCH   1  12
TORSDOF 5
ENDMDL
MODEL 5
REMARK VINA RESULT:      -5.9      1.753      2.984
REMARK  5 active torsions:
REMARK  status: ('A' for Active; 'I' for Inactive)
REMARK    1  A    between atoms: O_2  and  C_3 
REMARK    2  A    between atoms: C_6  and  N_7 
REMARK    3  A    between atoms: N_7  and  C_8 
REMARK    4  A    between atoms: C_8  and  C_10 
REMARK    5  A    between atoms: C_10  and  C_11 
ROOT
HETATM    1  N   UNL     1     -43.790 -50.267  12.643  1.00  0.00     0.093 N 
HETATM    2  H   UNL     1     -44.266 -50.441  11.764  1.00  0.00     0.316 HD
ENDROOT
BRANCH   1   3
HETATM    3  C   UNL     1     -44.479 -50.704  13.861  1.00  0.00     0.234 C 
HETATM    4  C   UNL     1     -43.701 -51.934  14.396  1.00  0.00     0.075 C 
HETATM    5  C   UNL     1     -44.738 -52.898  13.740  1.00  0.00     0.067 C 
HETATM    6  C   UNL     1     -44.284 -53.543  12.424  1.00  0.00     0.047 C 
HETATM    7  C   UNL     1     -45.712 -51.640  13.623  1.00  0.00     0.014 C 
HETATM    8  C   UNL     1     -46.544 -51.545  12.346  1.00  0.00     0.020 C 
HETATM    9  C   UNL     1     -46.670 -51.502  14.832  1.00  0.00     0.020 C 
BRANCH   5  10
HETATM   10  O   UNL     1     -45.258 -53.949  14.610  1.00  0.00    -0.384 OA
HETATM   11  C   UNL     1     -45.690 -55.164  14.009  1.00  0.00     0.202 C 
ENDBRANCH   5  10
ENDBRANCH   1   3
BRANCH   1  12
HETATM   12  C   UNL     1     -43.295 -48.879  12.662  1.00  0.00     0.222 C 
HETATM   13  C   UNL     1     -42.585 -48.499  13.964  1.00  0.00     0.043 C 
BRANCH  12  14
HETATM   14  C   UNL     1     -42.385 -48.620  11.430  1.00  0.00     0.093 C 
BRANCH  14  15
HETATM   15  C   UNL     1     -41.038 -49.268  11.486  1.00  0.00     0.029 A 
HETATM   16  C   UNL     1     -39.787 -48.666  11.766  1.00  0.00     0.052 A 
HETATM   17  C   UNL     1     -38.869 -49.691  11.717  1.00  0.00     0.024 A 
HETATM   18  C   UNL     1     -37.404 -49.722  11.911  1.00  0.00     0.070 C 
HETATM   19  N   UNL     1     -39.593 -50.811  11.416  1.00  0.00    -0.305 N 
HETATM   20  N   UNL     1     -40.909 -50.591  11.302  1.00  0.00    -0.305 N 
HETATM   21  H   UNL     1     -39.252 -51.757  11.278  1.00  0.00     0.186 HD
ATOM     22  HN  UNL     1     -41.645 -51.273  11.117  1.00  0.00     0.186 HD
ENDBRANCH  14  15
ENDBRANCH  12  14
ENDBRANCH   1  12
TORSDOF 5
ENDMDL
MODEL 6
REMARK VINA RESULT:      -5.7      3.896      7.298
REMARK  5 active torsions:
REMARK  status: ('A' for Active; 'I' for Inactive)
REMARK    1  A    between atoms: O_2  and  C_3 
REMARK    2  A    between atoms: C_6  and  N_7 
REMARK    3  A    between atoms: N_7  and  C_8 
REMARK    4  A    between atoms: C_8  and  C_10 
REMARK    5  A    between atoms: C_10  and  C_11 
ROOT
HETATM    1  N   UNL     1     -39.599 -47.907  11.176  1.00  0.00     0.093 N 
HETATM    2  H   UNL     1     -38.761 -47.337  11.194  1.00  0.00     0.316 HD
ENDROOT
BRANCH   1   3
HETATM    3  C   UNL     1     -40.818 -47.299  11.720  1.00  0.00     0.234 C 
HETATM    4  C   UNL     1     -41.460 -46.481  10.569  1.00  0.00     0.075 C 
HETATM    5  C   UNL     1     -40.831 -45.167  11.129  1.00  0.00     0.067 C 
HETATM    6  C   UNL     1     -39.577 -44.680  10.392  1.00  0.00     0.047 C 
HETATM    7  C   UNL     1     -40.598 -45.957  12.496  1.00  0.00     0.014 C 
HETATM    8  C   UNL     1     -39.288 -45.671  13.228  1.00  0.00     0.020 C 
HETATM    9  C   UNL     1     -41.759 -45.779  13.504  1.00  0.00     0.020 C 
BRANCH   5  10
HETATM   10  O   UNL     1     -41.748 -44.039  11.267  1.00  0.00    -0.384 OA
HETATM   11  C   UNL     1     -41.208 -42.725  11.206  1.00  0.00     0.202 C 
ENDBRANCH   5  10
ENDBRANCH   1   3
BRANCH   1  12
HETATM   12  C   UNL     1     -39.285 -49.253  11.687  1.00  0.00     0.222 C 
HETATM   13  C   UNL     1     -37.866 -49.382  12.246  1.00  0.00     0.043 C 
BRANCH  12  14
HETATM   14  C   UNL     1     -40.345 -49.686  12.738  1.00  0.00     0.093 C 
BRANCH  14  15
HETATM   15  C   UNL     1     -41.112 -50.923  12.396  1.00  0.00     0.029 A 
HETATM   16  C   UNL     1     -42.255 -51.451  13.045  1.00  0.00     0.052 A 
HETATM   17  C   UNL     1     -42.588 -52.583  12.334  1.00  0.00     0.024 A 
HETATM   18  C   UNL     1     -43.669 -53.578  12.500  1.00  0.00     0.070 C 
HETATM   19  N   UNL     1     -41.657 -52.671  11.337  1.00  0.00    -0.305 N 
HETATM   20  N   UNL     1     -40.773 -51.665  11.331  1.00  0.00    -0.305 N 
HETATM   21  H   UNL     1     -41.570 -53.389  10.625  1.00  0.00     0.186 HD
ATOM     22  HN  UNL     1     -40.014 -51.501  10.668  1.00  0.00     0.186 HD
ENDBRANCH  14  15
ENDBRANCH  12  14
ENDBRANCH   1  12
TORSDOF 5
ENDMDL
MODEL 7
REMARK VINA RESULT:      -5.7      2.106      3.310
REMARK  5 active torsions:
REMARK  status: ('A' for Active; 'I' for Inactive)
REMARK    1  A    between atoms: O_2  and  C_3 
REMARK    2  A    between atoms: C_6  and  N_7 
REMARK    3  A    between atoms: N_7  and  C_8 
REMARK    4  A    between atoms: C_8  and  C_10 
REMARK    5  A    between atoms: C_10  and  C_11 
ROOT
HETATM    1  N   UNL     1     -41.521 -51.950  14.327  1.00  0.00     0.093 N 
HETATM    2  H   UNL     1     -41.912 -51.535  15.166  1.00  0.00     0.316 HD
ENDROOT
BRANCH   1   3
HETATM    3  C   UNL     1     -42.233 -53.105  13.772  1.00  0.00     0.234 C 
HETATM    4  C   UNL     1     -42.834 -52.650  12.417  1.00  0.00     0.075 C 
HETATM    5  C   UNL     1     -44.220 -52.409  13.091  1.00  0.00     0.067 C 
HETATM    6  C   UNL     1     -44.547 -50.943  13.401  1.00  0.00     0.047 C 
HETATM    7  C   UNL     1     -43.693 -53.300  14.306  1.00  0.00     0.014 C 
HETATM    8  C   UNL     1     -44.093 -52.838  15.706  1.00  0.00     0.020 C 
HETATM    9  C   UNL     1     -44.069 -54.795  14.168  1.00  0.00     0.020 C 
BRANCH   5  10
HETATM   10  O   UNL     1     -45.366 -52.998  12.402  1.00  0.00    -0.384 OA
HETATM   11  C   UNL     1     -46.519 -52.188  12.208  1.00  0.00     0.202 C 
ENDBRANCH   5  10
ENDBRANCH   1   3
BRANCH   1  12
HETATM   12  C   UNL     1     -40.069 -52.130  14.503  1.00  0.00     0.222 C 
HETATM   13  C   UNL     1     -39.546 -53.462  13.959  1.00  0.00     0.043 C 
BRANCH  12  14
HETATM   14  C   UNL     1     -39.303 -50.930  13.880  1.00  0.00     0.093 C 
BRANCH  14  15
HETATM   15  C   UNL     1     -39.919 -50.353  12.646  1.00  0.00     0.029 A 
HETATM   16  C   UNL     1     -40.779 -49.232  12.538  1.00  0.00     0.052 A 
HETATM   17  C   UNL     1     -41.045 -49.105  11.193  1.00  0.00     0.024 A 
HETATM   18  C   UNL     1     -41.873 -48.145  10.431  1.00  0.00     0.070 C 
HETATM   19  N   UNL     1     -40.361 -50.122  10.590  1.00  0.00    -0.305 N 
HETATM   20  N   UNL     1     -39.647 -50.873  11.440  1.00  0.00    -0.305 N 
HETATM   21  H   UNL     1     -40.333 -50.360   9.603  1.00  0.00     0.186 HD
ATOM     22  HN  UNL     1     -39.036 -51.660  11.219  1.00  0.00     0.186 HD
ENDBRANCH  14  15
ENDBRANCH  12  14
ENDBRANCH   1  12
TORSDOF 5
ENDMDL
MODEL 8
REMARK VINA RESULT:      -5.5      2.930      4.227
REMARK  5 active torsions:
REMARK  status: ('A' for Active; 'I' for Inactive)
REMARK    1  A    between atoms: O_2  and  C_3 
REMARK    2  A    between atoms: C_6  and  N_7 
REMARK    3  A    between atoms: N_7  and  C_8 
REMARK    4  A    between atoms: C_8  and  C_10 
REMARK    5  A    between atoms: C_10  and  C_11 
ROOT
HETATM    1  N   UNL     1     -39.883 -50.762  13.935  1.00  0.00     0.093 N 
HETATM    2  H   UNL     1     -40.103 -50.648  14.918  1.00  0.00     0.316 HD
ENDROOT
BRANCH   1   3
HETATM    3  C   UNL     1     -39.796 -52.138  13.436  1.00  0.00     0.234 C 
HETATM    4  C   UNL     1     -41.193 -52.495  12.866  1.00  0.00     0.075 C 
HETATM    5  C   UNL     1     -41.561 -53.242  14.187  1.00  0.00     0.067 C 
HETATM    6  C   UNL     1     -42.468 -52.459  15.144  1.00  0.00     0.047 C 
HETATM    7  C   UNL     1     -40.000 -53.248  14.522  1.00  0.00     0.014 C 
HETATM    8  C   UNL     1     -39.621 -53.008  15.982  1.00  0.00     0.020 C 
HETATM    9  C   UNL     1     -39.285 -54.536  14.046  1.00  0.00     0.020 C 
BRANCH   5  10
HETATM   10  O   UNL     1     -42.118 -54.581  14.019  1.00  0.00    -0.384 OA
HETATM   11  C   UNL     1     -43.140 -54.998  14.916  1.00  0.00     0.202 C 
ENDBRANCH   5  10
ENDBRANCH   1   3
BRANCH   1  12
HETATM   12  C   UNL     1     -38.746 -49.892  13.585  1.00  0.00     0.222 C 
HETATM   13  C   UNL     1     -37.420 -50.336  14.206  1.00  0.00     0.043 C 
BRANCH  12  14
HETATM   14  C   UNL     1     -38.628 -49.764  12.041  1.00  0.00     0.093 C 
BRANCH  14  15
HETATM   15  C   UNL     1     -39.788 -49.102  11.367  1.00  0.00     0.029 A 
HETATM   16  C   UNL     1     -40.258 -47.776  11.535  1.00  0.00     0.052 A 
HETATM   17  C   UNL     1     -41.328 -47.657  10.677  1.00  0.00     0.024 A 
HETATM   18  C   UNL     1     -42.247 -46.535  10.385  1.00  0.00     0.070 C 
HETATM   19  N   UNL     1     -41.442 -48.875  10.068  1.00  0.00    -0.305 N 
HETATM   20  N   UNL     1     -40.505 -49.757  10.442  1.00  0.00    -0.305 N 
HETATM   21  H   UNL     1     -42.132 -49.171   9.385  1.00  0.00     0.186 HD
ATOM     22  HN  UNL     1     -40.369 -50.709  10.102  1.00  0.00     0.186 HD
ENDBRANCH  14  15
ENDBRANCH  12  14
ENDBRANCH   1  12
TORSDOF 5
ENDMDL
MODEL 9
REMARK VINA RESULT:      -5.3      1.758      2.959
REMARK  5 active torsions:
REMARK  status: ('A' for Active; 'I' for Inactive)
REMARK    1  A    between atoms: O_2  and  C_3 
REMARK    2  A    between atoms: C_6  and  N_7 
REMARK    3  A    between atoms: N_7  and  C_8 
REMARK    4  A    between atoms: C_8  and  C_10 
REMARK    5  A    between atoms: C_10  and  C_11 
ROOT
HETATM    1  N   UNL     1     -41.303 -50.478  13.893  1.00  0.00     0.093 N 
HETATM    2  H   UNL     1     -40.381 -50.118  14.115  1.00  0.00     0.316 HD
ENDROOT
BRANCH   1   3
HETATM    3  C   UNL     1     -41.355 -51.683  13.060  1.00  0.00     0.234 C 
HETATM    4  C   UNL     1     -42.835 -51.866  12.633  1.00  0.00     0.075 C 
HETATM    5  C   UNL     1     -43.050 -52.919  13.764  1.00  0.00     0.067 C 
HETATM    6  C   UNL     1     -43.774 -52.394  15.011  1.00  0.00     0.047 C 
HETATM    7  C   UNL     1     -41.460 -53.030  13.852  1.00  0.00     0.014 C 
HETATM    8  C   UNL     1     -40.868 -53.174  15.253  1.00  0.00     0.020 C 
HETATM    9  C   UNL     1     -40.884 -54.163  12.968  1.00  0.00     0.020 C 
BRANCH   5  10
HETATM   10  O   UNL     1     -43.691 -54.164  13.352  1.00  0.00    -0.384 OA
HETATM   11  C   UNL     1     -44.535 -54.824  14.287  1.00  0.00     0.202 C 
ENDBRANCH   5  10
ENDBRANCH   1   3
BRANCH   1  12
HETATM   12  C   UNL     1     -42.166 -49.368  13.451  1.00  0.00     0.222 C 
HETATM   13  C   UNL     1     -42.701 -48.512  14.601  1.00  0.00     0.043 C 
BRANCH  12  14
HETATM   14  C   UNL     1     -41.420 -48.498  12.402  1.00  0.00     0.093 C 
BRANCH  14  15
HETATM   15  C   UNL     1     -42.189 -48.209  11.153  1.00  0.00     0.029 A 
HETATM   16  C   UNL     1     -43.479 -47.636  11.031  1.00  0.00     0.052 A 
HETATM   17  C   UNL     1     -43.721 -47.563   9.678  1.00  0.00     0.024 A 
HETATM   18  C   UNL     1     -44.879 -47.073   8.900  1.00  0.00     0.070 C 
HETATM   19  N   UNL     1     -42.606 -48.084   9.083  1.00  0.00    -0.305 N 
HETATM   20  N   UNL     1     -41.652 -48.453   9.948  1.00  0.00    -0.305 N 
HETATM   21  H   UNL     1     -42.428 -48.213   8.091  1.00  0.00     0.186 HD
ATOM     22  HN  UNL     1     -40.728 -48.832   9.739  1.00  0.00     0.186 HD
ENDBRANCH  14  15
ENDBRANCH  12  14
ENDBRANCH   1  12
TORSDOF 5
ENDMDL
