MODEL 1
REMARK VINA RESULT:      -5.8      0.000      0.000
REMARK  5 active torsions:
REMARK  status: ('A' for Active; 'I' for Inactive)
REMARK    1  A    between atoms: O_2  and  C_3 
REMARK    2  A    between atoms: C_3  and  C_4 
REMARK    3  A    between atoms: C_4  and  N_5 
REMARK    4  A    between atoms: N_5  and  C_6 
REMARK    5  A    between atoms: C_9  and  S_13 
ROOT
HETATM    1  C   UNL     1     -41.607 -52.017  12.070  1.00  0.00     0.079 A 
HETATM    2  C   UNL     1     -41.130 -53.236  12.555  1.00  0.00     0.043 A 
HETATM    3  C   UNL     1     -41.987 -54.092  13.246  1.00  0.00     0.028 A 
HETATM    4  C   UNL     1     -43.293 -53.681  13.473  1.00  0.00     0.074 A 
HETATM    5  C   UNL     1     -43.677 -52.426  13.045  1.00  0.00     0.112 A 
HETATM    6  N   UNL     1     -42.867 -51.608  12.325  1.00  0.00    -0.355 N 
ATOM      7  HN  UNL     1     -43.203 -50.707  11.985  1.00  0.00     0.166 HD
ENDROOT
BRANCH   1   8
HETATM    8  N   UNL     1     -40.754 -51.255  11.272  1.00  0.00    -0.276 NA
HETATM    9  H   UNL     1     -40.217 -51.833  10.629  1.00  0.00     0.129 HD
BRANCH   8  10
HETATM   10  C   UNL     1     -39.961 -50.209  11.925  1.00  0.00     0.132 C 
BRANCH  10  11
HETATM   11  C   UNL     1     -40.642 -48.815  11.922  1.00  0.00     0.076 C 
HETATM   12  C   UNL     1     -39.553 -47.723  12.010  1.00  0.00     0.065 C 
HETATM   13  C   UNL     1     -40.155 -46.337  11.843  1.00  0.00     0.170 C 
HETATM   14  O   UNL     1     -40.816 -46.241  10.584  1.00  0.00    -0.391 OA
HETATM   15  C   UNL     1     -41.906 -47.161  10.489  1.00  0.00     0.170 C 
HETATM   16  C   UNL     1     -41.418 -48.601  10.607  1.00  0.00     0.065 C 
BRANCH  11  17
HETATM   17  O   UNL     1     -41.619 -48.695  12.982  1.00  0.00    -0.384 OA
HETATM   18  C   UNL     1     -41.186 -48.998  14.303  1.00  0.00     0.202 C 
ENDBRANCH  11  17
ENDBRANCH  10  11
ENDBRANCH   8  10
ENDBRANCH   1   8
BRANCH   4  19
HETATM   19  S   UNL     1     -44.447 -54.715  14.308  1.00  0.00     0.173 S 
HETATM   20  O   UNL     1     -45.458 -55.106  13.345  1.00  0.00    -0.223 OA
HETATM   21  O   UNL     1     -43.691 -55.714  15.037  1.00  0.00    -0.223 OA
HETATM   22  C   UNL     1     -45.209 -53.629  15.487  1.00  0.00     0.167 C 
ENDBRANCH   4  19
TORSDOF 5
ENDMDL
MODEL 2
REMARK VINA RESULT:      -5.6      1.581      2.163
REMARK  5 active torsions:
REMARK  status: ('A' for Active; 'I' for Inactive)
REMARK    1  A    between atoms: O_2  and  C_3 
REMARK    2  A    between atoms: C_3  and  C_4 
REMARK    3  A    between atoms: C_4  and  N_5 
REMARK    4  A    between atoms: N_5  and  C_6 
REMARK    5  A    between atoms: C_9  and  S_13 
ROOT
HETATM    1  C   UNL     1     -42.131 -52.269  12.279  1.00  0.00     0.079 A 
HETATM    2  C   UNL     1     -42.073 -52.198  13.671  1.00  0.00     0.043 A 
HETATM    3  C   UNL     1     -43.031 -52.857  14.440  1.00  0.00     0.028 A 
HETATM    4  C   UNL     1     -44.054 -53.533  13.790  1.00  0.00     0.074 A 
HETATM    5  C   UNL     1     -44.104 -53.489  12.411  1.00  0.00     0.112 A 
HETATM    6  N   UNL     1     -43.147 -52.897  11.652  1.00  0.00    -0.355 N 
ATOM      7  HN  UNL     1     -43.195 -52.927  10.634  1.00  0.00     0.166 HD
ENDROOT
BRANCH   1   8
HETATM    8  N   UNL     1     -41.079 -51.709  11.553  1.00  0.00    -0.276 NA
HETATM    9  H   UNL     1     -40.803 -52.297  10.770  1.00  0.00     0.129 HD
BRANCH   8  10
HETATM   10  C   UNL     1     -39.948 -51.159  12.305  1.00  0.00     0.132 C 
BRANCH  10  11
HETATM   11  C   UNL     1     -39.709 -49.646  12.058  1.00  0.00     0.076 C 
HETATM   12  C   UNL     1     -40.891 -49.077  11.241  1.00  0.00     0.065 C 
HETATM   13  C   UNL     1     -40.788 -47.566  11.114  1.00  0.00     0.170 C 
HETATM   14  O   UNL     1     -40.781 -46.967  12.408  1.00  0.00    -0.391 OA
HETATM   15  C   UNL     1     -39.645 -47.379  13.172  1.00  0.00     0.170 C 
HETATM   16  C   UNL     1     -39.656 -48.887  13.398  1.00  0.00     0.065 C 
BRANCH  11  17
HETATM   17  O   UNL     1     -38.436 -49.403  11.414  1.00  0.00    -0.384 OA
HETATM   18  C   UNL     1     -37.402 -50.353  11.641  1.00  0.00     0.202 C 
ENDBRANCH  11  17
ENDBRANCH  10  11
ENDBRANCH   8  10
ENDBRANCH   1   8
BRANCH   4  19
HETATM   19  S   UNL     1     -45.284 -54.416  14.686  1.00  0.00     0.173 S 
HETATM   20  O   UNL     1     -45.634 -55.588  13.907  1.00  0.00    -0.223 OA
HETATM   21  O   UNL     1     -44.821 -54.544  16.054  1.00  0.00    -0.223 OA
HETATM   22  C   UNL     1     -46.680 -53.320  14.676  1.00  0.00     0.167 C 
ENDBRANCH   4  19
TORSDOF 5
ENDMDL
MODEL 3
REMARK VINA RESULT:      -5.6      3.199      6.731
REMARK  5 active torsions:
REMARK  status: ('A' for Active; 'I' for Inactive)
REMARK    1  A    between atoms: O_2  and  C_3 
REMARK    2  A    between atoms: C_3  and  C_4 
REMARK    3  A    between atoms: C_4  and  N_5 
REMARK    4  A    between atoms: N_5  and  C_6 
REMARK    5  A    between atoms: C_9  and  S_13 
ROOT
HETATM    1  C   UNL     1     -42.007 -52.340  12.127  1.00  0.00     0.079 A 
HETATM    2  C   UNL     1     -41.139 -53.178  12.828  1.00  0.00     0.043 A 
HETATM    3  C   UNL     1     -39.864 -52.729  13.169  1.00  0.00     0.028 A 
HETATM    4  C   UNL     1     -39.474 -51.463  12.755  1.00  0.00     0.074 A 
HETATM    5  C   UNL     1     -40.348 -50.719  11.988  1.00  0.00     0.112 A 
HETATM    6  N   UNL     1     -41.610 -51.124  11.697  1.00  0.00    -0.355 N 
ATOM      7  HN  UNL     1     -42.242 -50.525  11.167  1.00  0.00     0.166 HD
ENDROOT
BRANCH   1   8
HETATM    8  N   UNL     1     -43.315 -52.779  11.925  1.00  0.00    -0.276 NA
HETATM    9  H   UNL     1     -43.986 -52.017  11.994  1.00  0.00     0.129 HD
BRANCH   8  10
HETATM   10  C   UNL     1     -43.740 -54.001  12.613  1.00  0.00     0.132 C 
BRANCH  10  11
HETATM   11  C   UNL     1     -44.637 -53.742  13.851  1.00  0.00     0.076 C 
HETATM   12  C   UNL     1     -45.335 -52.372  13.689  1.00  0.00     0.065 C 
HETATM   13  C   UNL     1     -46.352 -52.144  14.795  1.00  0.00     0.170 C 
HETATM   14  O   UNL     1     -47.335 -53.177  14.774  1.00  0.00    -0.391 OA
HETATM   15  C   UNL     1     -46.757 -54.460  15.025  1.00  0.00     0.170 C 
HETATM   16  C   UNL     1     -45.736 -54.819  13.951  1.00  0.00     0.065 C 
BRANCH  11  17
HETATM   17  O   UNL     1     -43.885 -53.827  15.084  1.00  0.00    -0.384 OA
HETATM   18  C   UNL     1     -43.098 -54.994  15.286  1.00  0.00     0.202 C 
ENDBRANCH  11  17
ENDBRANCH  10  11
ENDBRANCH   8  10
ENDBRANCH   1   8
BRANCH   4  19
HETATM   19  S   UNL     1     -37.894 -50.810  13.171  1.00  0.00     0.173 S 
HETATM   20  O   UNL     1     -37.820 -50.737  14.618  1.00  0.00    -0.223 OA
HETATM   21  O   UNL     1     -36.902 -51.546  12.412  1.00  0.00    -0.223 OA
HETATM   22  C   UNL     1     -37.948 -49.149  12.545  1.00  0.00     0.167 C 
ENDBRANCH   4  19
TORSDOF 5
ENDMDL
MODEL 4
REMARK VINA RESULT:      -5.5      2.811      3.882
REMARK  5 active torsions:
REMARK  status: ('A' for Active; 'I' for Inactive)
REMARK    1  A    between atoms: O_2  and  C_3 
REMARK    2  A    between atoms: C_3  and  C_4 
REMARK    3  A    between atoms: C_4  and  N_5 
REMARK    4  A    between atoms: N_5  and  C_6 
REMARK    5  A    between atoms: C_9  and  S_13 
ROOT
HETATM    1  C   UNL     1     -40.861 -49.723  11.253  1.00  0.00     0.079 A 
HETATM    2  C   UNL     1     -39.560 -49.938  11.708  1.00  0.00     0.043 A 
HETATM    3  C   UNL     1     -39.293 -51.004  12.567  1.00  0.00     0.028 A 
HETATM    4  C   UNL     1     -40.350 -51.799  12.987  1.00  0.00     0.074 A 
HETATM    5  C   UNL     1     -41.626 -51.478  12.570  1.00  0.00     0.112 A 
HETATM    6  N   UNL     1     -41.890 -50.478  11.691  1.00  0.00    -0.355 N 
ATOM      7  HN  UNL     1     -42.841 -50.301  11.370  1.00  0.00     0.166 HD
ENDROOT
BRANCH   1   8
HETATM    8  N   UNL     1     -41.059 -48.731  10.292  1.00  0.00    -0.276 NA
HETATM    9  H   UNL     1     -40.227 -48.160  10.159  1.00  0.00     0.129 HD
BRANCH   8  10
HETATM   10  C   UNL     1     -42.300 -47.954  10.358  1.00  0.00     0.132 C 
BRANCH  10  11
HETATM   11  C   UNL     1     -42.079 -46.444  10.629  1.00  0.00     0.076 C 
HETATM   12  C   UNL     1     -42.617 -46.100  12.036  1.00  0.00     0.065 C 
HETATM   13  C   UNL     1     -42.274 -44.669  12.417  1.00  0.00     0.170 C 
HETATM   14  O   UNL     1     -40.861 -44.484  12.396  1.00  0.00    -0.391 OA
HETATM   15  C   UNL     1     -40.322 -44.685  11.088  1.00  0.00     0.170 C 
HETATM   16  C   UNL     1     -40.574 -46.110  10.607  1.00  0.00     0.065 C 
BRANCH  11  17
HETATM   17  O   UNL     1     -42.682 -45.621   9.602  1.00  0.00    -0.384 OA
HETATM   18  C   UNL     1     -43.455 -46.285   8.609  1.00  0.00     0.202 C 
ENDBRANCH  11  17
ENDBRANCH  10  11
ENDBRANCH   8  10
ENDBRANCH   1   8
BRANCH   4  19
HETATM   19  S   UNL     1     -40.093 -53.181  14.044  1.00  0.00     0.173 S 
HETATM   20  O   UNL     1     -38.907 -53.874  13.577  1.00  0.00    -0.223 OA
HETATM   21  O   UNL     1     -40.187 -52.709  15.412  1.00  0.00    -0.223 OA
HETATM   22  C   UNL     1     -41.493 -54.224  13.722  1.00  0.00     0.167 C 
ENDBRANCH   4  19
TORSDOF 5
ENDMDL
MODEL 5
REMARK VINA RESULT:      -5.4      3.590      7.340
REMARK  5 active torsions:
REMARK  status: ('A' for Active; 'I' for Inactive)
REMARK    1  A    between atoms: O_2  and  C_3 
REMARK    2  A    between atoms: C_3  and  C_4 
REMARK    3  A    between atoms: C_4  and  N_5 
REMARK    4  A    between atoms: N_5  and  C_6 
REMARK    5  A    between atoms: C_9  and  S_13 
ROOT
HETATM    1  C   UNL     1     -41.179 -48.043  10.834  1.00  0.00     0.079 A 
HETATM    2  C   UNL     1     -42.486 -47.695  11.176  1.00  0.00     0.043 A 
HETATM    3  C   UNL     1     -42.857 -46.351  11.224  1.00  0.00     0.028 A 
HETATM    4  C   UNL     1     -41.891 -45.387  10.973  1.00  0.00     0.074 A 
HETATM    5  C   UNL     1     -40.595 -45.796  10.729  1.00  0.00     0.112 A 
HETATM    6  N   UNL     1     -40.236 -47.101  10.626  1.00  0.00    -0.355 N 
ATOM      7  HN  UNL     1     -39.277 -47.362  10.397  1.00  0.00     0.166 HD
ENDROOT
BRANCH   1   8
HETATM    8  N   UNL     1     -40.887 -49.397  10.669  1.00  0.00    -0.276 NA
HETATM    9  H   UNL     1     -41.724 -49.974  10.716  1.00  0.00     0.129 HD
BRANCH   8  10
HETATM   10  C   UNL     1     -39.750 -49.947  11.412  1.00  0.00     0.132 C 
BRANCH  10  11
HETATM   11  C   UNL     1     -40.147 -51.020  12.458  1.00  0.00     0.076 C 
HETATM   12  C   UNL     1     -40.772 -50.321  13.685  1.00  0.00     0.065 C 
HETATM   13  C   UNL     1     -41.330 -51.338  14.667  1.00  0.00     0.170 C 
HETATM   14  O   UNL     1     -42.321 -52.141  14.029  1.00  0.00    -0.391 OA
HETATM   15  C   UNL     1     -41.770 -52.895  12.947  1.00  0.00     0.170 C 
HETATM   16  C   UNL     1     -41.206 -51.974  11.870  1.00  0.00     0.065 C 
BRANCH  11  17
HETATM   17  O   UNL     1     -39.022 -51.854  12.822  1.00  0.00    -0.384 OA
HETATM   18  C   UNL     1     -37.815 -51.195  13.184  1.00  0.00     0.202 C 
ENDBRANCH  11  17
ENDBRANCH  10  11
ENDBRANCH   8  10
ENDBRANCH   1   8
BRANCH   4  19
HETATM   19  S   UNL     1     -42.284 -43.672  10.982  1.00  0.00     0.173 S 
HETATM   20  O   UNL     1     -41.056 -42.941  10.737  1.00  0.00    -0.223 OA
HETATM   21  O   UNL     1     -43.443 -43.485  10.130  1.00  0.00    -0.223 OA
HETATM   22  C   UNL     1     -42.776 -43.362  12.659  1.00  0.00     0.167 C 
ENDBRANCH   4  19
TORSDOF 5
ENDMDL
MODEL 6
REMARK VINA RESULT:      -5.4      3.285      7.229
REMARK  5 active torsions:
REMARK  status: ('A' for Active; 'I' for Inactive)
REMARK    1  A    between atoms: O_2  and  C_3 
REMARK    2  A    between atoms: C_3  and  C_4 
REMARK    3  A    between atoms: C_4  and  N_5 
REMARK    4  A    between atoms: N_5  and  C_6 
REMARK    5  A    between atoms: C_9  and  S_13 
ROOT
HETATM    1  C   UNL     1     -40.916 -49.342  11.057  1.00  0.00     0.079 A 
HETATM    2  C   UNL     1     -39.859 -48.604  11.591  1.00  0.00     0.043 A 
HETATM    3  C   UNL     1     -39.884 -47.211  11.528  1.00  0.00     0.028 A 
HETATM    4  C   UNL     1     -40.950 -46.594  10.888  1.00  0.00     0.074 A 
HETATM    5  C   UNL     1     -41.918 -47.386  10.304  1.00  0.00     0.112 A 
HETATM    6  N   UNL     1     -41.932 -48.739  10.406  1.00  0.00    -0.355 N 
ATOM      7  HN  UNL     1     -42.691 -49.286  10.000  1.00  0.00     0.166 HD
ENDROOT
BRANCH   1   8
HETATM    8  N   UNL     1     -40.914 -50.722  11.260  1.00  0.00    -0.276 NA
HETATM    9  H   UNL     1     -40.935 -51.235  10.380  1.00  0.00     0.129 HD
BRANCH   8  10
HETATM   10  C   UNL     1     -41.818 -51.264  12.278  1.00  0.00     0.132 C 
BRANCH  10  11
HETATM   11  C   UNL     1     -41.116 -52.187  13.309  1.00  0.00     0.076 C 
HETATM   12  C   UNL     1     -40.858 -53.564  12.659  1.00  0.00     0.065 C 
HETATM   13  C   UNL     1     -40.024 -54.450  13.570  1.00  0.00     0.170 C 
HETATM   14  O   UNL     1     -38.775 -53.822  13.851  1.00  0.00    -0.391 OA
HETATM   15  C   UNL     1     -38.951 -52.589  14.551  1.00  0.00     0.170 C 
HETATM   16  C   UNL     1     -39.750 -51.595  13.714  1.00  0.00     0.065 C 
BRANCH  11  17
HETATM   17  O   UNL     1     -41.878 -52.298  14.534  1.00  0.00    -0.384 OA
HETATM   18  C   UNL     1     -43.246 -52.670  14.416  1.00  0.00     0.202 C 
ENDBRANCH  11  17
ENDBRANCH  10  11
ENDBRANCH   8  10
ENDBRANCH   1   8
BRANCH   4  19
HETATM   19  S   UNL     1     -41.072 -44.842  10.795  1.00  0.00     0.173 S 
HETATM   20  O   UNL     1     -39.971 -44.370   9.977  1.00  0.00    -0.223 OA
HETATM   21  O   UNL     1     -42.444 -44.517  10.453  1.00  0.00    -0.223 OA
HETATM   22  C   UNL     1     -40.778 -44.310  12.462  1.00  0.00     0.167 C 
ENDBRANCH   4  19
TORSDOF 5
ENDMDL
MODEL 7
REMARK VINA RESULT:      -5.4      3.167      7.306
REMARK  5 active torsions:
REMARK  status: ('A' for Active; 'I' for Inactive)
REMARK    1  A    between atoms: O_2  and  C_3 
REMARK    2  A    between atoms: C_3  and  C_4 
REMARK    3  A    between atoms: C_4  and  N_5 
REMARK    4  A    between atoms: N_5  and  C_6 
REMARK    5  A    between atoms: C_9  and  S_13 
ROOT
HETATM    1  C   UNL     1     -41.544 -49.311  11.422  1.00  0.00     0.079 A 
HETATM    2  C   UNL     1     -40.311 -48.816  11.845  1.00  0.00     0.043 A 
HETATM    3  C   UNL     1     -39.984 -47.479  11.619  1.00  0.00     0.028 A 
HETATM    4  C   UNL     1     -40.887 -46.683  10.929  1.00  0.00     0.074 A 
HETATM    5  C   UNL     1     -42.051 -47.257  10.459  1.00  0.00     0.112 A 
HETATM    6  N   UNL     1     -42.404 -48.541  10.721  1.00  0.00    -0.355 N 
ATOM      7  HN  UNL     1     -43.295 -48.916  10.397  1.00  0.00     0.166 HD
ENDROOT
BRANCH   1   8
HETATM    8  N   UNL     1     -41.884 -50.614  11.786  1.00  0.00    -0.276 NA
HETATM    9  H   UNL     1     -42.592 -51.008  11.170  1.00  0.00     0.129 HD
BRANCH   8  10
HETATM   10  C   UNL     1     -42.122 -50.886  13.206  1.00  0.00     0.132 C 
BRANCH  10  11
HETATM   11  C   UNL     1     -43.337 -51.812  13.470  1.00  0.00     0.076 C 
HETATM   12  C   UNL     1     -44.638 -51.029  13.185  1.00  0.00     0.065 C 
HETATM   13  C   UNL     1     -45.853 -51.939  13.267  1.00  0.00     0.170 C 
HETATM   14  O   UNL     1     -45.729 -53.004  12.327  1.00  0.00    -0.391 OA
HETATM   15  C   UNL     1     -44.596 -53.828  12.609  1.00  0.00     0.170 C 
HETATM   16  C   UNL     1     -43.302 -53.026  12.520  1.00  0.00     0.065 C 
BRANCH  11  17
HETATM   17  O   UNL     1     -43.314 -52.357  14.810  1.00  0.00    -0.384 OA
HETATM   18  C   UNL     1     -42.071 -52.857  15.287  1.00  0.00     0.202 C 
ENDBRANCH  11  17
ENDBRANCH  10  11
ENDBRANCH   8  10
ENDBRANCH   1   8
BRANCH   4  19
HETATM   19  S   UNL     1     -40.565 -44.979  10.631  1.00  0.00     0.173 S 
HETATM   20  O   UNL     1     -39.578 -44.901   9.572  1.00  0.00    -0.223 OA
HETATM   21  O   UNL     1     -41.844 -44.308  10.505  1.00  0.00    -0.223 OA
HETATM   22  C   UNL     1     -39.797 -44.427  12.133  1.00  0.00     0.167 C 
ENDBRANCH   4  19
TORSDOF 5
ENDMDL
MODEL 8
REMARK VINA RESULT:      -5.4      2.047      2.725
REMARK  5 active torsions:
REMARK  status: ('A' for Active; 'I' for Inactive)
REMARK    1  A    between atoms: O_2  and  C_3 
REMARK    2  A    between atoms: C_3  and  C_4 
REMARK    3  A    between atoms: C_4  and  N_5 
REMARK    4  A    between atoms: N_5  and  C_6 
REMARK    5  A    between atoms: C_9  and  S_13 
ROOT
HETATM    1  C   UNL     1     -41.709 -52.903  12.535  1.00  0.00     0.079 A 
HETATM    2  C   UNL     1     -41.558 -53.652  13.702  1.00  0.00     0.043 A 
HETATM    3  C   UNL     1     -42.682 -54.180  14.339  1.00  0.00     0.028 A 
HETATM    4  C   UNL     1     -43.935 -53.900  13.812  1.00  0.00     0.074 A 
HETATM    5  C   UNL     1     -44.020 -53.078  12.706  1.00  0.00     0.112 A 
HETATM    6  N   UNL     1     -42.931 -52.605  12.048  1.00  0.00    -0.355 N 
ATOM      7  HN  UNL     1     -43.034 -52.039  11.206  1.00  0.00     0.166 HD
ENDROOT
BRANCH   1   8
HETATM    8  N   UNL     1     -40.553 -52.509  11.860  1.00  0.00    -0.276 NA
HETATM    9  H   UNL     1     -39.736 -53.030  12.171  1.00  0.00     0.129 HD
BRANCH   8  10
HETATM   10  C   UNL     1     -40.311 -51.072  11.702  1.00  0.00     0.132 C 
BRANCH  10  11
HETATM   11  C   UNL     1     -39.715 -50.396  12.964  1.00  0.00     0.076 C 
HETATM   12  C   UNL     1     -38.647 -51.328  13.578  1.00  0.00     0.065 C 
HETATM   13  C   UNL     1     -37.916 -50.642  14.720  1.00  0.00     0.170 C 
HETATM   14  O   UNL     1     -37.286 -49.452  14.251  1.00  0.00    -0.391 OA
HETATM   15  C   UNL     1     -38.242 -48.506  13.767  1.00  0.00     0.170 C 
HETATM   16  C   UNL     1     -39.021 -49.072  12.585  1.00  0.00     0.065 C 
BRANCH  11  17
HETATM   17  O   UNL     1     -40.744 -50.045  13.919  1.00  0.00    -0.384 OA
HETATM   18  C   UNL     1     -41.836 -49.268  13.441  1.00  0.00     0.202 C 
ENDBRANCH  11  17
ENDBRANCH  10  11
ENDBRANCH   8  10
ENDBRANCH   1   8
BRANCH   4  19
HETATM   19  S   UNL     1     -45.399 -54.553  14.536  1.00  0.00     0.173 S 
HETATM   20  O   UNL     1     -45.766 -55.738  13.784  1.00  0.00    -0.223 OA
HETATM   21  O   UNL     1     -45.188 -54.618  15.969  1.00  0.00    -0.223 OA
HETATM   22  C   UNL     1     -46.620 -53.306  14.214  1.00  0.00     0.167 C 
ENDBRANCH   4  19
TORSDOF 5
ENDMDL
MODEL 9
REMARK VINA RESULT:      -5.3      2.090      3.059
REMARK  5 active torsions:
REMARK  status: ('A' for Active; 'I' for Inactive)
REMARK    1  A    between atoms: O_2  and  C_3 
REMARK    2  A    between atoms: C_3  and  C_4 
REMARK    3  A    between atoms: C_4  and  N_5 
REMARK    4  A    between atoms: N_5  and  C_6 
REMARK    5  A    between atoms: C_9  and  S_13 
ROOT
HETATM    1  C   UNL     1     -41.466 -52.531  12.478  1.00  0.00     0.079 A 
HETATM    2  C   UNL     1     -41.336 -53.674  13.268  1.00  0.00     0.043 A 
HETATM    3  C   UNL     1     -42.468 -54.256  13.839  1.00  0.00     0.028 A 
HETATM    4  C   UNL     1     -43.699 -53.647  13.640  1.00  0.00     0.074 A 
HETATM    5  C   UNL     1     -43.746 -52.468  12.923  1.00  0.00     0.112 A 
HETATM    6  N   UNL     1     -42.660 -51.923  12.318  1.00  0.00    -0.355 N 
ATOM      7  HN  UNL     1     -42.745 -51.077  11.756  1.00  0.00     0.166 HD
ENDROOT
BRANCH   1   8
HETATM    8  N   UNL     1     -40.330 -52.061  11.820  1.00  0.00    -0.276 NA
HETATM    9  H   UNL     1     -39.486 -52.539  12.131  1.00  0.00     0.129 HD
BRANCH   8  10
HETATM   10  C   UNL     1     -40.169 -50.610  11.686  1.00  0.00     0.132 C 
BRANCH  10  11
HETATM   11  C   UNL     1     -39.184 -49.993  12.713  1.00  0.00     0.076 C 
HETATM   12  C   UNL     1     -39.982 -49.141  13.726  1.00  0.00     0.065 C 
HETATM   13  C   UNL     1     -39.086 -48.650  14.851  1.00  0.00     0.170 C 
HETATM   14  O   UNL     1     -38.501 -49.759  15.528  1.00  0.00    -0.391 OA
HETATM   15  C   UNL     1     -37.662 -50.525  14.660  1.00  0.00     0.170 C 
HETATM   16  C   UNL     1     -38.464 -51.106  13.500  1.00  0.00     0.065 C 
BRANCH  11  17
HETATM   17  O   UNL     1     -38.141 -49.229  12.063  1.00  0.00    -0.384 OA
HETATM   18  C   UNL     1     -37.363 -49.899  11.079  1.00  0.00     0.202 C 
ENDBRANCH  11  17
ENDBRANCH  10  11
ENDBRANCH   8  10
ENDBRANCH   1   8
BRANCH   4  19
HETATM   19  S   UNL     1     -45.178 -54.335  14.299  1.00  0.00     0.173 S 
HETATM   20  O   UNL     1     -45.606 -55.390  13.400  1.00  0.00    -0.223 OA
HETATM   21  O   UNL     1     -44.947 -54.605  15.704  1.00  0.00    -0.223 OA
HETATM   22  C   UNL     1     -46.350 -53.007  14.177  1.00  0.00     0.167 C 
ENDBRANCH   4  19
TORSDOF 5
ENDMDL
