MODEL 1
REMARK VINA RESULT:      -5.8      0.000      0.000
REMARK  4 active torsions:
REMARK  status: ('A' for Active; 'I' for Inactive)
REMARK       I    between atoms: N_2  and  C_3 
REMARK    1  A    between atoms: C_3  and  C_5 
REMARK    2  A    between atoms: C_5  and  C_6 
REMARK    3  A    between atoms: C_10  and  C_11 
REMARK    4  A    between atoms: C_11  and  C_12 
ROOT
HETATM    1  C   UNL     1     -42.541 -47.145  10.022  1.00  0.00     0.112 A 
HETATM    2  N   UNL     1     -42.433 -46.688  11.276  1.00  0.00    -0.247 N 
ATOM      3  HN  UNL     1     -42.905 -45.890  11.701  1.00  0.00     0.196 HD
HETATM    4  O   UNL     1     -41.520 -47.565  11.860  1.00  0.00    -0.223 OA
HETATM    5  C   UNL     1     -41.169 -48.465  10.895  1.00  0.00     0.148 A 
HETATM    6  N   UNL     1     -41.766 -48.247   9.742  1.00  0.00    -0.326 N 
ATOM      7  HN  UNL     1     -41.677 -48.762   8.866  1.00  0.00     0.169 HD
ENDROOT
BRANCH   1   8
HETATM    8  C   UNL     1     -43.454 -46.548   9.025  1.00  0.00     0.181 C 
BRANCH   8   9
HETATM    9  C   UNL     1     -44.187 -47.612   8.242  1.00  0.00     0.224 C 
HETATM   10  N   UNL     1     -45.526 -47.750   8.559  1.00  0.00    -0.365 N 
HETATM   11  C   UNL     1     -46.327 -48.765   7.926  1.00  0.00     0.149 C 
HETATM   12  H   UNL     1     -45.859 -47.337   9.425  1.00  0.00     0.161 HD
HETATM   13  O   UNL     1     -43.648 -48.252   7.341  1.00  0.00    -0.273 OA
ENDBRANCH   8   9
ENDBRANCH   1   8
BRANCH   5  14
HETATM   14  C   UNL     1     -40.296 -49.590  11.319  1.00  0.00     0.095 C 
BRANCH  14  15
HETATM   15  C   UNL     1     -38.928 -49.195  11.888  1.00  0.00     0.015 C 
HETATM   16  C   UNL     1     -37.729 -49.976  11.321  1.00  0.00     0.012 C 
HETATM   17  C   UNL     1     -37.242 -50.903  12.437  1.00  0.00     0.027 C 
HETATM   18  C   UNL     1     -37.862 -50.318  13.661  1.00  0.00    -0.030 C 
HETATM   19  C   UNL     1     -38.784 -49.397  13.367  1.00  0.00    -0.026 C 
ENDBRANCH  14  15
ENDBRANCH   5  14
TORSDOF 4
ENDMDL
MODEL 2
REMARK VINA RESULT:      -5.7      4.053      4.893
REMARK  4 active torsions:
REMARK  status: ('A' for Active; 'I' for Inactive)
REMARK       I    between atoms: N_2  and  C_3 
REMARK    1  A    between atoms: C_3  and  C_5 
REMARK    2  A    between atoms: C_5  and  C_6 
REMARK    3  A    between atoms: C_10  and  C_11 
REMARK    4  A    between atoms: C_11  and  C_12 
ROOT
HETATM    1  C   UNL     1     -41.448 -49.437  11.308  1.00  0.00     0.112 A 
HETATM    2  N   UNL     1     -40.531 -50.372  11.028  1.00  0.00    -0.247 N 
ATOM      3  HN  UNL     1     -39.752 -50.317  10.372  1.00  0.00     0.196 HD
HETATM    4  O   UNL     1     -40.898 -51.438  11.848  1.00  0.00    -0.223 OA
HETATM    5  C   UNL     1     -42.003 -51.036  12.542  1.00  0.00     0.148 A 
HETATM    6  N   UNL     1     -42.386 -49.813  12.241  1.00  0.00    -0.326 N 
ATOM      7  HN  UNL     1     -43.176 -49.281  12.607  1.00  0.00     0.169 HD
ENDROOT
BRANCH   1   8
HETATM    8  C   UNL     1     -41.432 -48.089  10.703  1.00  0.00     0.181 C 
BRANCH   8   9
HETATM    9  C   UNL     1     -42.696 -47.820   9.921  1.00  0.00     0.224 C 
HETATM   10  N   UNL     1     -42.611 -48.087   8.567  1.00  0.00    -0.365 N 
HETATM   11  C   UNL     1     -43.727 -47.822   7.698  1.00  0.00     0.149 C 
HETATM   12  H   UNL     1     -41.688 -48.194   8.156  1.00  0.00     0.161 HD
HETATM   13  O   UNL     1     -43.739 -47.462  10.464  1.00  0.00    -0.273 OA
ENDBRANCH   8   9
ENDBRANCH   1   8
BRANCH   5  14
HETATM   14  C   UNL     1     -42.507 -51.964  13.586  1.00  0.00     0.095 C 
BRANCH  14  15
HETATM   15  C   UNL     1     -42.812 -53.393  13.119  1.00  0.00     0.015 C 
HETATM   16  C   UNL     1     -44.196 -53.596  12.478  1.00  0.00     0.012 C 
HETATM   17  C   UNL     1     -45.030 -54.399  13.478  1.00  0.00     0.027 C 
HETATM   18  C   UNL     1     -44.003 -54.972  14.396  1.00  0.00    -0.030 C 
HETATM   19  C   UNL     1     -42.799 -54.423  14.210  1.00  0.00    -0.026 C 
ENDBRANCH  14  15
ENDBRANCH   5  14
TORSDOF 4
ENDMDL
MODEL 3
REMARK VINA RESULT:      -5.7      5.848      7.454
REMARK  4 active torsions:
REMARK  status: ('A' for Active; 'I' for Inactive)
REMARK       I    between atoms: N_2  and  C_3 
REMARK    1  A    between atoms: C_3  and  C_5 
REMARK    2  A    between atoms: C_5  and  C_6 
REMARK    3  A    between atoms: C_10  and  C_11 
REMARK    4  A    between atoms: C_11  and  C_12 
ROOT
HETATM    1  C   UNL     1     -43.184 -52.911  12.466  1.00  0.00     0.112 A 
HETATM    2  N   UNL     1     -43.918 -54.019  12.299  1.00  0.00    -0.247 N 
ATOM      3  HN  UNL     1     -43.597 -54.965  12.093  1.00  0.00     0.196 HD
HETATM    4  O   UNL     1     -45.226 -53.568  12.474  1.00  0.00    -0.223 OA
HETATM    5  C   UNL     1     -45.147 -52.229  12.730  1.00  0.00     0.148 A 
HETATM    6  N   UNL     1     -43.911 -51.774  12.731  1.00  0.00    -0.326 N 
ATOM      7  HN  UNL     1     -43.578 -50.822  12.887  1.00  0.00     0.169 HD
ENDROOT
BRANCH   1   8
HETATM    8  C   UNL     1     -41.707 -52.912  12.420  1.00  0.00     0.181 C 
BRANCH   8   9
HETATM    9  C   UNL     1     -41.153 -51.508  12.463  1.00  0.00     0.224 C 
HETATM   10  N   UNL     1     -40.808 -50.980  11.233  1.00  0.00    -0.365 N 
HETATM   11  C   UNL     1     -40.216 -49.671  11.137  1.00  0.00     0.149 C 
HETATM   12  H   UNL     1     -40.708 -51.618  10.448  1.00  0.00     0.161 HD
HETATM   13  O   UNL     1     -41.086 -50.860  13.506  1.00  0.00    -0.273 OA
ENDBRANCH   8   9
ENDBRANCH   1   8
BRANCH   5  14
HETATM   14  C   UNL     1     -46.416 -51.543  13.083  1.00  0.00     0.095 C 
BRANCH  14  15
HETATM   15  C   UNL     1     -46.777 -51.530  14.573  1.00  0.00     0.015 C 
HETATM   16  C   UNL     1     -45.692 -50.969  15.510  1.00  0.00     0.012 C 
HETATM   17  C   UNL     1     -45.123 -52.160  16.285  1.00  0.00     0.027 C 
HETATM   18  C   UNL     1     -46.158 -53.217  16.095  1.00  0.00    -0.030 C 
HETATM   19  C   UNL     1     -47.053 -52.883  15.160  1.00  0.00    -0.026 C 
ENDBRANCH  14  15
ENDBRANCH   5  14
TORSDOF 4
ENDMDL
MODEL 4
REMARK VINA RESULT:      -5.6      5.023      7.236
REMARK  4 active torsions:
REMARK  status: ('A' for Active; 'I' for Inactive)
REMARK       I    between atoms: N_2  and  C_3 
REMARK    1  A    between atoms: C_3  and  C_5 
REMARK    2  A    between atoms: C_5  and  C_6 
REMARK    3  A    between atoms: C_10  and  C_11 
REMARK    4  A    between atoms: C_11  and  C_12 
ROOT
HETATM    1  C   UNL     1     -39.862 -51.199  12.384  1.00  0.00     0.112 A 
HETATM    2  N   UNL     1     -40.697 -51.153  11.337  1.00  0.00    -0.247 N 
ATOM      3  HN  UNL     1     -40.681 -50.513  10.543  1.00  0.00     0.196 HD
HETATM    4  O   UNL     1     -41.593 -52.189  11.595  1.00  0.00    -0.223 OA
HETATM    5  C   UNL     1     -41.205 -52.758  12.774  1.00  0.00     0.148 A 
HETATM    6  N   UNL     1     -40.148 -52.180  13.304  1.00  0.00    -0.326 N 
ATOM      7  HN  UNL     1     -39.663 -52.403  14.174  1.00  0.00     0.169 HD
ENDROOT
BRANCH   1   8
HETATM    8  C   UNL     1     -38.696 -50.302  12.521  1.00  0.00     0.181 C 
BRANCH   8   9
HETATM    9  C   UNL     1     -37.553 -50.744  11.637  1.00  0.00     0.224 C 
HETATM   10  N   UNL     1     -37.399 -50.011  10.474  1.00  0.00    -0.365 N 
HETATM   11  C   UNL     1     -36.384 -50.363   9.517  1.00  0.00     0.149 C 
HETATM   12  H   UNL     1     -38.171 -49.423  10.172  1.00  0.00     0.161 HD
HETATM   13  O   UNL     1     -36.777 -51.639  11.966  1.00  0.00    -0.273 OA
ENDBRANCH   8   9
ENDBRANCH   1   8
BRANCH   5  14
HETATM   14  C   UNL     1     -41.937 -53.979  13.197  1.00  0.00     0.095 C 
BRANCH  14  15
HETATM   15  C   UNL     1     -43.158 -53.750  14.095  1.00  0.00     0.015 C 
HETATM   16  C   UNL     1     -43.828 -55.026  14.636  1.00  0.00     0.012 C 
HETATM   17  C   UNL     1     -45.162 -55.167  13.900  1.00  0.00     0.027 C 
HETATM   18  C   UNL     1     -45.385 -53.805  13.334  1.00  0.00    -0.030 C 
HETATM   19  C   UNL     1     -44.297 -53.035  13.431  1.00  0.00    -0.026 C 
ENDBRANCH  14  15
ENDBRANCH   5  14
TORSDOF 4
ENDMDL
MODEL 5
REMARK VINA RESULT:      -5.5      5.997      8.081
REMARK  4 active torsions:
REMARK  status: ('A' for Active; 'I' for Inactive)
REMARK       I    between atoms: N_2  and  C_3 
REMARK    1  A    between atoms: C_3  and  C_5 
REMARK    2  A    between atoms: C_5  and  C_6 
REMARK    3  A    between atoms: C_10  and  C_11 
REMARK    4  A    between atoms: C_11  and  C_12 
ROOT
HETATM    1  C   UNL     1     -42.278 -54.186  13.476  1.00  0.00     0.112 A 
HETATM    2  N   UNL     1     -43.020 -54.641  14.493  1.00  0.00    -0.247 N 
ATOM      3  HN  UNL     1     -42.717 -55.175  15.308  1.00  0.00     0.196 HD
HETATM    4  O   UNL     1     -44.306 -54.210  14.170  1.00  0.00    -0.223 OA
HETATM    5  C   UNL     1     -44.208 -53.536  12.987  1.00  0.00     0.148 A 
HETATM    6  N   UNL     1     -42.980 -53.498  12.514  1.00  0.00    -0.326 N 
ATOM      7  HN  UNL     1     -42.637 -53.068  11.654  1.00  0.00     0.169 HD
ENDROOT
BRANCH   1   8
HETATM    8  C   UNL     1     -40.812 -54.363  13.409  1.00  0.00     0.181 C 
BRANCH   8   9
HETATM    9  C   UNL     1     -40.100 -53.035  13.305  1.00  0.00     0.224 C 
HETATM   10  N   UNL     1     -39.268 -52.736  14.368  1.00  0.00    -0.365 N 
HETATM   11  C   UNL     1     -38.573 -51.477  14.421  1.00  0.00     0.149 C 
HETATM   12  H   UNL     1     -39.374 -53.270  15.226  1.00  0.00     0.161 HD
HETATM   13  O   UNL     1     -40.199 -52.313  12.315  1.00  0.00    -0.273 OA
ENDBRANCH   8   9
ENDBRANCH   1   8
BRANCH   5  14
HETATM   14  C   UNL     1     -45.439 -52.864  12.499  1.00  0.00     0.095 C 
BRANCH  14  15
HETATM   15  C   UNL     1     -45.771 -51.519  13.157  1.00  0.00     0.015 C 
HETATM   16  C   UNL     1     -44.586 -50.805  13.832  1.00  0.00     0.012 C 
HETATM   17  C   UNL     1     -44.817 -50.904  15.341  1.00  0.00     0.027 C 
HETATM   18  C   UNL     1     -46.264 -51.253  15.443  1.00  0.00    -0.030 C 
HETATM   19  C   UNL     1     -46.783 -51.595  14.260  1.00  0.00    -0.026 C 
ENDBRANCH  14  15
ENDBRANCH   5  14
TORSDOF 4
ENDMDL
MODEL 6
REMARK VINA RESULT:      -5.4      3.917      5.371
REMARK  4 active torsions:
REMARK  status: ('A' for Active; 'I' for Inactive)
REMARK       I    between atoms: N_2  and  C_3 
REMARK    1  A    between atoms: C_3  and  C_5 
REMARK    2  A    between atoms: C_5  and  C_6 
REMARK    3  A    between atoms: C_10  and  C_11 
REMARK    4  A    between atoms: C_11  and  C_12 
ROOT
HETATM    1  C   UNL     1     -41.529 -49.267  10.939  1.00  0.00     0.112 A 
HETATM    2  N   UNL     1     -40.496 -50.070  10.655  1.00  0.00    -0.247 N 
ATOM      3  HN  UNL     1     -39.755 -49.929   9.969  1.00  0.00     0.196 HD
HETATM    4  O   UNL     1     -40.677 -51.145  11.525  1.00  0.00    -0.223 OA
HETATM    5  C   UNL     1     -41.805 -50.879  12.247  1.00  0.00     0.148 A 
HETATM    6  N   UNL     1     -42.371 -49.737  11.920  1.00  0.00    -0.326 N 
ATOM      7  HN  UNL     1     -43.218 -49.310  12.297  1.00  0.00     0.169 HD
ENDROOT
BRANCH   1   8
HETATM    8  C   UNL     1     -41.729 -47.955  10.287  1.00  0.00     0.181 C 
BRANCH   8   9
HETATM    9  C   UNL     1     -40.781 -46.916  10.838  1.00  0.00     0.224 C 
HETATM   10  N   UNL     1     -40.708 -45.747  10.103  1.00  0.00    -0.365 N 
HETATM   11  C   UNL     1     -39.801 -44.698  10.487  1.00  0.00     0.149 C 
HETATM   12  H   UNL     1     -41.073 -45.753   9.155  1.00  0.00     0.161 HD
HETATM   13  O   UNL     1     -40.180 -47.073  11.899  1.00  0.00    -0.273 OA
ENDBRANCH   8   9
ENDBRANCH   1   8
BRANCH   5  14
HETATM   14  C   UNL     1     -42.134 -51.828  13.341  1.00  0.00     0.095 C 
BRANCH  14  15
HETATM   15  C   UNL     1     -42.563 -53.233  12.900  1.00  0.00     0.015 C 
HETATM   16  C   UNL     1     -44.008 -53.350  12.383  1.00  0.00     0.012 C 
HETATM   17  C   UNL     1     -44.796 -54.110  13.451  1.00  0.00     0.027 C 
HETATM   18  C   UNL     1     -43.728 -54.748  14.274  1.00  0.00    -0.030 C 
HETATM   19  C   UNL     1     -42.515 -54.269  13.983  1.00  0.00    -0.026 C 
ENDBRANCH  14  15
ENDBRANCH   5  14
TORSDOF 4
ENDMDL
MODEL 7
REMARK VINA RESULT:      -5.4      4.316      5.573
REMARK  4 active torsions:
REMARK  status: ('A' for Active; 'I' for Inactive)
REMARK       I    between atoms: N_2  and  C_3 
REMARK    1  A    between atoms: C_3  and  C_5 
REMARK    2  A    between atoms: C_5  and  C_6 
REMARK    3  A    between atoms: C_10  and  C_11 
REMARK    4  A    between atoms: C_11  and  C_12 
ROOT
HETATM    1  C   UNL     1     -42.253 -49.579  11.935  1.00  0.00     0.112 A 
HETATM    2  N   UNL     1     -41.976 -50.889  11.926  1.00  0.00    -0.247 N 
ATOM      3  HN  UNL     1     -41.331 -51.395  11.320  1.00  0.00     0.196 HD
HETATM    4  O   UNL     1     -42.784 -51.395  12.944  1.00  0.00    -0.223 OA
HETATM    5  C   UNL     1     -43.467 -50.334  13.465  1.00  0.00     0.148 A 
HETATM    6  N   UNL     1     -43.180 -49.193  12.875  1.00  0.00    -0.326 N 
ATOM      7  HN  UNL     1     -43.550 -48.261  13.065  1.00  0.00     0.169 HD
ENDROOT
BRANCH   1   8
HETATM    8  C   UNL     1     -41.582 -48.610  11.042  1.00  0.00     0.181 C 
BRANCH   8   9
HETATM    9  C   UNL     1     -42.585 -47.798  10.257  1.00  0.00     0.224 C 
HETATM   10  N   UNL     1     -42.714 -48.159   8.929  1.00  0.00    -0.365 N 
HETATM   11  C   UNL     1     -43.594 -47.429   8.055  1.00  0.00     0.149 C 
HETATM   12  H   UNL     1     -41.988 -48.738   8.516  1.00  0.00     0.161 HD
HETATM   13  O   UNL     1     -43.283 -46.933  10.782  1.00  0.00    -0.273 OA
ENDBRANCH   8   9
ENDBRANCH   1   8
BRANCH   5  14
HETATM   14  C   UNL     1     -44.303 -50.604  14.662  1.00  0.00     0.095 C 
BRANCH  14  15
HETATM   15  C   UNL     1     -45.605 -51.374  14.408  1.00  0.00     0.015 C 
HETATM   16  C   UNL     1     -45.545 -52.884  14.700  1.00  0.00     0.012 C 
HETATM   17  C   UNL     1     -45.579 -53.595  13.345  1.00  0.00     0.027 C 
HETATM   18  C   UNL     1     -46.081 -52.540  12.419  1.00  0.00    -0.030 C 
HETATM   19  C   UNL     1     -46.089 -51.331  12.989  1.00  0.00    -0.026 C 
ENDBRANCH  14  15
ENDBRANCH   5  14
TORSDOF 4
ENDMDL
MODEL 8
REMARK VINA RESULT:      -5.4      5.841      7.639
REMARK  4 active torsions:
REMARK  status: ('A' for Active; 'I' for Inactive)
REMARK       I    between atoms: N_2  and  C_3 
REMARK    1  A    between atoms: C_3  and  C_5 
REMARK    2  A    between atoms: C_5  and  C_6 
REMARK    3  A    between atoms: C_10  and  C_11 
REMARK    4  A    between atoms: C_11  and  C_12 
ROOT
HETATM    1  C   UNL     1     -42.005 -53.453  13.206  1.00  0.00     0.112 A 
HETATM    2  N   UNL     1     -42.097 -53.047  14.478  1.00  0.00    -0.247 N 
ATOM      3  HN  UNL     1     -41.413 -52.526  15.027  1.00  0.00     0.196 HD
HETATM    4  O   UNL     1     -43.352 -53.508  14.873  1.00  0.00    -0.223 OA
HETATM    5  C   UNL     1     -43.892 -54.147  13.793  1.00  0.00     0.148 A 
HETATM    6  N   UNL     1     -43.099 -54.147  12.742  1.00  0.00    -0.326 N 
ATOM      7  HN  UNL     1     -43.256 -54.556  11.821  1.00  0.00     0.169 HD
ENDROOT
BRANCH   1   8
HETATM    8  C   UNL     1     -40.844 -53.143  12.345  1.00  0.00     0.181 C 
BRANCH   8   9
HETATM    9  C   UNL     1     -40.499 -51.673  12.393  1.00  0.00     0.224 C 
HETATM   10  N   UNL     1     -40.791 -50.969  11.240  1.00  0.00    -0.365 N 
HETATM   11  C   UNL     1     -40.462 -49.572  11.133  1.00  0.00     0.149 C 
HETATM   12  H   UNL     1     -40.968 -51.494  10.389  1.00  0.00     0.161 HD
HETATM   13  O   UNL     1     -40.062 -51.135  13.408  1.00  0.00    -0.273 OA
ENDBRANCH   8   9
ENDBRANCH   1   8
BRANCH   5  14
HETATM   14  C   UNL     1     -45.295 -54.615  13.930  1.00  0.00     0.095 C 
BRANCH  14  15
HETATM   15  C   UNL     1     -46.379 -53.570  13.641  1.00  0.00     0.015 C 
HETATM   16  C   UNL     1     -46.008 -52.509  12.589  1.00  0.00     0.012 C 
HETATM   17  C   UNL     1     -45.806 -51.194  13.346  1.00  0.00     0.027 C 
HETATM   18  C   UNL     1     -46.471 -51.449  14.656  1.00  0.00    -0.030 C 
HETATM   19  C   UNL     1     -46.777 -52.738  14.824  1.00  0.00    -0.026 C 
ENDBRANCH  14  15
ENDBRANCH   5  14
TORSDOF 4
ENDMDL
MODEL 9
REMARK VINA RESULT:      -5.3      4.914      7.111
REMARK  4 active torsions:
REMARK  status: ('A' for Active; 'I' for Inactive)
REMARK       I    between atoms: N_2  and  C_3 
REMARK    1  A    between atoms: C_3  and  C_5 
REMARK    2  A    between atoms: C_5  and  C_6 
REMARK    3  A    between atoms: C_10  and  C_11 
REMARK    4  A    between atoms: C_11  and  C_12 
ROOT
HETATM    1  C   UNL     1     -41.323 -51.064  11.715  1.00  0.00     0.112 A 
HETATM    2  N   UNL     1     -41.231 -52.360  11.389  1.00  0.00    -0.247 N 
ATOM      3  HN  UNL     1     -40.522 -52.820  10.819  1.00  0.00     0.196 HD
HETATM    4  O   UNL     1     -42.340 -52.928  12.016  1.00  0.00    -0.223 OA
HETATM    5  C   UNL     1     -42.988 -51.913  12.659  1.00  0.00     0.148 A 
HETATM    6  N   UNL     1     -42.406 -50.743  12.500  1.00  0.00    -0.326 N 
ATOM      7  HN  UNL     1     -42.686 -49.832  12.865  1.00  0.00     0.169 HD
ENDROOT
BRANCH   1   8
HETATM    8  C   UNL     1     -40.317 -50.060  11.308  1.00  0.00     0.181 C 
BRANCH   8   9
HETATM    9  C   UNL     1     -39.084 -50.131  12.177  1.00  0.00     0.224 C 
HETATM   10  N   UNL     1     -38.876 -49.028  12.985  1.00  0.00    -0.365 N 
HETATM   11  C   UNL     1     -37.709 -48.942  13.821  1.00  0.00     0.149 C 
HETATM   12  H   UNL     1     -39.387 -48.175  12.772  1.00  0.00     0.161 HD
HETATM   13  O   UNL     1     -38.364 -51.127  12.216  1.00  0.00    -0.273 OA
ENDBRANCH   8   9
ENDBRANCH   1   8
BRANCH   5  14
HETATM   14  C   UNL     1     -44.140 -52.295  13.515  1.00  0.00     0.095 C 
BRANCH  14  15
HETATM   15  C   UNL     1     -45.045 -51.145  13.972  1.00  0.00     0.015 C 
HETATM   16  C   UNL     1     -44.822 -50.665  15.417  1.00  0.00     0.012 C 
HETATM   17  C   UNL     1     -46.037 -51.128  16.225  1.00  0.00     0.027 C 
HETATM   18  C   UNL     1     -47.048 -51.438  15.173  1.00  0.00    -0.030 C 
HETATM   19  C   UNL     1     -46.512 -51.456  13.949  1.00  0.00    -0.026 C 
ENDBRANCH  14  15
ENDBRANCH   5  14
TORSDOF 4
ENDMDL
