MODEL 1
REMARK VINA RESULT:      -5.5      0.000      0.000
REMARK  2 active torsions:
REMARK  status: ('A' for Active; 'I' for Inactive)
REMARK       I    between atoms: N_6  and  C_7 
REMARK    1  A    between atoms: C_7  and  C_9 
REMARK    2  A    between atoms: N_12  and  C_15 
ROOT
HETATM    1  C   UNL     3     -41.469 -48.825  11.017  1.00  0.00     0.117 A 
HETATM    2  C   UNL     3     -42.414 -48.435  11.948  1.00  0.00     0.055 A 
HETATM    3  C   UNL     3     -43.307 -47.661  11.247  1.00  0.00     0.113 A 
HETATM    4  N   UNL     3     -42.887 -47.588   9.966  1.00  0.00    -0.296 N 
HETATM    5  N   UNL     3     -41.785 -48.308   9.811  1.00  0.00    -0.293 N 
ATOM      6  HN  UNL     3     -41.272 -48.446   8.941  1.00  0.00     0.187 HD
ENDROOT
BRANCH   4   7
HETATM    7  C   UNL     3     -43.516 -46.759   8.929  1.00  0.00     0.135 C 
HETATM    8  C   UNL     3     -45.007 -46.499   9.215  1.00  0.00     0.031 C 
HETATM    9  C   UNL     3     -45.817 -47.789   9.048  1.00  0.00     0.032 C 
HETATM   10  C   UNL     3     -45.585 -48.367   7.646  1.00  0.00     0.270 C 
HETATM   11  N   UNL     3     -44.153 -48.629   7.433  1.00  0.00     0.085 N 
HETATM   12  C   UNL     3     -43.376 -47.385   7.526  1.00  0.00     0.296 C 
HETATM   13  H   UNL     3     -44.028 -49.030   6.475  1.00  0.00     0.315 HD
ENDBRANCH   4   7
BRANCH   1  14
HETATM   14  C   UNL     3     -40.275 -49.632  11.322  1.00  0.00     0.269 C 
HETATM   15  N   UNL     3     -39.016 -49.134  11.202  1.00  0.00    -0.360 N 
HETATM   16  C   UNL     3     -37.852 -49.949  11.485  1.00  0.00     0.149 C 
HETATM   17  H   UNL     3     -38.876 -48.172  10.859  1.00  0.00     0.162 HD
HETATM   18  O   UNL     3     -40.441 -50.785  11.683  1.00  0.00    -0.266 OA
ENDBRANCH   1  14
TORSDOF 2
ENDMDL
MODEL 2
REMARK VINA RESULT:      -5.4      5.499      6.610
REMARK  2 active torsions:
REMARK  status: ('A' for Active; 'I' for Inactive)
REMARK       I    between atoms: N_6  and  C_7 
REMARK    1  A    between atoms: C_7  and  C_9 
REMARK    2  A    between atoms: N_12  and  C_15 
ROOT
HETATM    1  C   UNL     3     -42.691 -52.647  12.585  1.00  0.00     0.117 A 
HETATM    2  C   UNL     3     -42.639 -53.907  13.152  1.00  0.00     0.055 A 
HETATM    3  C   UNL     3     -43.936 -54.195  13.501  1.00  0.00     0.113 A 
HETATM    4  N   UNL     3     -44.707 -53.139  13.169  1.00  0.00    -0.296 N 
HETATM    5  N   UNL     3     -43.966 -52.203  12.593  1.00  0.00    -0.293 N 
ATOM      6  HN  UNL     3     -44.298 -51.312  12.224  1.00  0.00     0.187 HD
ENDROOT
BRANCH   4   7
HETATM    7  C   UNL     3     -46.137 -53.019  13.484  1.00  0.00     0.135 C 
HETATM    8  C   UNL     3     -46.533 -51.578  13.858  1.00  0.00     0.031 C 
HETATM    9  C   UNL     3     -45.931 -51.191  15.212  1.00  0.00     0.032 C 
HETATM   10  C   UNL     3     -46.360 -52.208  16.278  1.00  0.00     0.270 C 
HETATM   11  N   UNL     3     -45.930 -53.561  15.894  1.00  0.00     0.085 N 
HETATM   12  C   UNL     3     -46.556 -53.967  14.627  1.00  0.00     0.296 C 
HETATM   13  H   UNL     3     -46.228 -54.229  16.642  1.00  0.00     0.315 HD
ENDBRANCH   4   7
BRANCH   1  14
HETATM   14  C   UNL     3     -41.519 -51.895  12.105  1.00  0.00     0.269 C 
HETATM   15  N   UNL     3     -41.617 -50.615  11.654  1.00  0.00    -0.360 N 
HETATM   16  C   UNL     3     -40.458 -49.898  11.164  1.00  0.00     0.149 C 
HETATM   17  H   UNL     3     -42.538 -50.155  11.614  1.00  0.00     0.162 HD
HETATM   18  O   UNL     3     -40.437 -52.457  12.109  1.00  0.00    -0.266 OA
ENDBRANCH   1  14
TORSDOF 2
ENDMDL
MODEL 3
REMARK VINA RESULT:      -5.1      3.466      5.636
REMARK  2 active torsions:
REMARK  status: ('A' for Active; 'I' for Inactive)
REMARK       I    between atoms: N_6  and  C_7 
REMARK    1  A    between atoms: C_7  and  C_9 
REMARK    2  A    between atoms: N_12  and  C_15 
ROOT
HETATM    1  C   UNL     3     -43.076 -47.167  10.068  1.00  0.00     0.117 A 
HETATM    2  C   UNL     3     -43.184 -47.442  11.418  1.00  0.00     0.055 A 
HETATM    3  C   UNL     3     -42.034 -46.941  11.978  1.00  0.00     0.113 A 
HETATM    4  N   UNL     3     -41.279 -46.416  10.990  1.00  0.00    -0.296 N 
HETATM    5  N   UNL     3     -41.911 -46.528   9.831  1.00  0.00    -0.293 N 
ATOM      6  HN  UNL     3     -41.579 -46.192   8.927  1.00  0.00     0.187 HD
ENDROOT
BRANCH   4   7
HETATM    7  C   UNL     3     -39.922 -45.882  11.173  1.00  0.00     0.135 C 
HETATM    8  C   UNL     3     -39.658 -45.444  12.626  1.00  0.00     0.031 C 
HETATM    9  C   UNL     3     -40.481 -44.197  12.967  1.00  0.00     0.032 C 
HETATM   10  C   UNL     3     -40.172 -43.083  11.958  1.00  0.00     0.270 C 
HETATM   11  N   UNL     3     -40.472 -43.536  10.591  1.00  0.00     0.085 N 
HETATM   12  C   UNL     3     -39.639 -44.692  10.231  1.00  0.00     0.296 C 
HETATM   13  H   UNL     3     -40.261 -42.754   9.928  1.00  0.00     0.315 HD
ENDBRANCH   4   7
BRANCH   1  14
HETATM   14  C   UNL     3     -44.061 -47.569   9.049  1.00  0.00     0.269 C 
HETATM   15  N   UNL     3     -45.317 -47.974   9.378  1.00  0.00    -0.360 N 
HETATM   16  C   UNL     3     -46.266 -48.388   8.364  1.00  0.00     0.149 C 
HETATM   17  H   UNL     3     -45.593 -48.035  10.369  1.00  0.00     0.162 HD
HETATM   18  O   UNL     3     -43.718 -47.541   7.879  1.00  0.00    -0.266 OA
ENDBRANCH   1  14
TORSDOF 2
ENDMDL
MODEL 4
REMARK VINA RESULT:      -5.1      2.146      5.781
REMARK  2 active torsions:
REMARK  status: ('A' for Active; 'I' for Inactive)
REMARK       I    between atoms: N_6  and  C_7 
REMARK    1  A    between atoms: C_7  and  C_9 
REMARK    2  A    between atoms: N_12  and  C_15 
ROOT
HETATM    1  C   UNL     3     -43.151 -47.700  10.862  1.00  0.00     0.117 A 
HETATM    2  C   UNL     3     -42.910 -46.840  11.916  1.00  0.00     0.055 A 
HETATM    3  C   UNL     3     -42.025 -47.508  12.727  1.00  0.00     0.113 A 
HETATM    4  N   UNL     3     -41.778 -48.715  12.176  1.00  0.00    -0.296 N 
HETATM    5  N   UNL     3     -42.439 -48.834  11.034  1.00  0.00    -0.293 N 
ATOM      6  HN  UNL     3     -42.413 -49.634  10.402  1.00  0.00     0.187 HD
ENDROOT
BRANCH   4   7
HETATM    7  C   UNL     3     -40.965 -49.766  12.805  1.00  0.00     0.135 C 
HETATM    8  C   UNL     3     -39.806 -49.188  13.638  1.00  0.00     0.031 C 
HETATM    9  C   UNL     3     -38.754 -48.553  12.723  1.00  0.00     0.032 C 
HETATM   10  C   UNL     3     -38.273 -49.585  11.694  1.00  0.00     0.270 C 
HETATM   11  N   UNL     3     -39.408 -50.081  10.902  1.00  0.00     0.085 N 
HETATM   12  C   UNL     3     -40.392 -50.751  11.764  1.00  0.00     0.296 C 
HETATM   13  H   UNL     3     -39.049 -50.774  10.205  1.00  0.00     0.315 HD
ENDBRANCH   4   7
BRANCH   1  14
HETATM   14  C   UNL     3     -44.089 -47.432   9.758  1.00  0.00     0.269 C 
HETATM   15  N   UNL     3     -45.394 -47.117   9.978  1.00  0.00    -0.360 N 
HETATM   16  C   UNL     3     -46.308 -46.879   8.880  1.00  0.00     0.149 C 
HETATM   17  H   UNL     3     -45.758 -47.091  10.941  1.00  0.00     0.162 HD
HETATM   18  O   UNL     3     -43.666 -47.509   8.616  1.00  0.00    -0.266 OA
ENDBRANCH   1  14
TORSDOF 2
ENDMDL
MODEL 5
REMARK VINA RESULT:      -5.0      2.315      3.695
REMARK  2 active torsions:
REMARK  status: ('A' for Active; 'I' for Inactive)
REMARK       I    between atoms: N_6  and  C_7 
REMARK    1  A    between atoms: C_7  and  C_9 
REMARK    2  A    between atoms: N_12  and  C_15 
ROOT
HETATM    1  C   UNL     3     -38.441 -49.365  11.900  1.00  0.00     0.117 A 
HETATM    2  C   UNL     3     -38.546 -49.290  13.276  1.00  0.00     0.055 A 
HETATM    3  C   UNL     3     -39.503 -48.332  13.509  1.00  0.00     0.113 A 
HETATM    4  N   UNL     3     -39.921 -47.855  12.318  1.00  0.00    -0.296 N 
HETATM    5  N   UNL     3     -39.300 -48.490  11.335  1.00  0.00    -0.293 N 
ATOM      6  HN  UNL     3     -39.445 -48.345  10.336  1.00  0.00     0.187 HD
ENDROOT
BRANCH   4   7
HETATM    7  C   UNL     3     -40.861 -46.738  12.152  1.00  0.00     0.135 C 
HETATM    8  C   UNL     3     -42.239 -47.036  12.771  1.00  0.00     0.031 C 
HETATM    9  C   UNL     3     -42.967 -48.116  11.962  1.00  0.00     0.032 C 
HETATM   10  C   UNL     3     -43.070 -47.680  10.495  1.00  0.00     0.270 C 
HETATM   11  N   UNL     3     -41.730 -47.440   9.939  1.00  0.00     0.085 N 
HETATM   12  C   UNL     3     -41.049 -46.359  10.667  1.00  0.00     0.296 C 
HETATM   13  H   UNL     3     -41.832 -47.154   8.938  1.00  0.00     0.315 HD
ENDBRANCH   4   7
BRANCH   1  14
HETATM   14  C   UNL     3     -37.492 -50.229  11.177  1.00  0.00     0.269 C 
HETATM   15  N   UNL     3     -37.102 -49.966   9.901  1.00  0.00    -0.360 N 
HETATM   16  C   UNL     3     -36.185 -50.839   9.198  1.00  0.00     0.149 C 
HETATM   17  H   UNL     3     -37.498 -49.156   9.402  1.00  0.00     0.162 HD
HETATM   18  O   UNL     3     -37.061 -51.213  11.754  1.00  0.00    -0.266 OA
ENDBRANCH   1  14
TORSDOF 2
ENDMDL
MODEL 6
REMARK VINA RESULT:      -4.9      6.061      7.044
REMARK  2 active torsions:
REMARK  status: ('A' for Active; 'I' for Inactive)
REMARK       I    between atoms: N_6  and  C_7 
REMARK    1  A    between atoms: C_7  and  C_9 
REMARK    2  A    between atoms: N_12  and  C_15 
ROOT
HETATM    1  C   UNL     3     -41.327 -53.692  13.589  1.00  0.00     0.117 A 
HETATM    2  C   UNL     3     -41.445 -52.558  12.809  1.00  0.00     0.055 A 
HETATM    3  C   UNL     3     -42.771 -52.503  12.457  1.00  0.00     0.113 A 
HETATM    4  N   UNL     3     -43.394 -53.573  12.994  1.00  0.00    -0.296 N 
HETATM    5  N   UNL     3     -42.532 -54.289  13.700  1.00  0.00    -0.293 N 
ATOM      6  HN  UNL     3     -42.742 -55.135  14.231  1.00  0.00     0.187 HD
ENDROOT
BRANCH   4   7
HETATM    7  C   UNL     3     -44.800 -53.927  12.750  1.00  0.00     0.135 C 
HETATM    8  C   UNL     3     -45.704 -52.686  12.643  1.00  0.00     0.031 C 
HETATM    9  C   UNL     3     -45.838 -52.001  14.007  1.00  0.00     0.032 C 
HETATM   10  C   UNL     3     -46.353 -53.009  15.043  1.00  0.00     0.270 C 
HETATM   11  N   UNL     3     -45.439 -54.158  15.134  1.00  0.00     0.085 N 
HETATM   12  C   UNL     3     -45.357 -54.861  13.845  1.00  0.00     0.296 C 
HETATM   13  H   UNL     3     -45.811 -54.821  15.852  1.00  0.00     0.315 HD
ENDBRANCH   4   7
BRANCH   1  14
HETATM   14  C   UNL     3     -40.062 -54.193  14.156  1.00  0.00     0.269 C 
HETATM   15  N   UNL     3     -40.018 -54.882  15.328  1.00  0.00    -0.360 N 
HETATM   16  C   UNL     3     -38.763 -55.347  15.882  1.00  0.00     0.149 C 
HETATM   17  H   UNL     3     -40.885 -55.041  15.861  1.00  0.00     0.162 HD
HETATM   18  O   UNL     3     -39.031 -53.963  13.546  1.00  0.00    -0.266 OA
ENDBRANCH   1  14
TORSDOF 2
ENDMDL
MODEL 7
REMARK VINA RESULT:      -4.9      2.848      4.401
REMARK  2 active torsions:
REMARK  status: ('A' for Active; 'I' for Inactive)
REMARK       I    between atoms: N_6  and  C_7 
REMARK    1  A    between atoms: C_7  and  C_9 
REMARK    2  A    between atoms: N_12  and  C_15 
ROOT
HETATM    1  C   UNL     3     -41.693 -50.899  12.098  1.00  0.00     0.117 A 
HETATM    2  C   UNL     3     -40.334 -50.700  11.948  1.00  0.00     0.055 A 
HETATM    3  C   UNL     3     -40.216 -49.458  11.374  1.00  0.00     0.113 A 
HETATM    4  N   UNL     3     -41.456 -48.964  11.179  1.00  0.00    -0.296 N 
HETATM    5  N   UNL     3     -42.360 -49.820  11.634  1.00  0.00    -0.293 N 
ATOM      6  HN  UNL     3     -43.371 -49.688  11.635  1.00  0.00     0.187 HD
ENDROOT
BRANCH   4   7
HETATM    7  C   UNL     3     -41.751 -47.703  10.484  1.00  0.00     0.135 C 
HETATM    8  C   UNL     3     -40.746 -46.592  10.839  1.00  0.00     0.031 C 
HETATM    9  C   UNL     3     -40.935 -46.143  12.292  1.00  0.00     0.032 C 
HETATM   10  C   UNL     3     -42.389 -45.704  12.512  1.00  0.00     0.270 C 
HETATM   11  N   UNL     3     -43.308 -46.808  12.193  1.00  0.00     0.085 N 
HETATM   12  C   UNL     3     -43.180 -47.201  10.782  1.00  0.00     0.296 C 
HETATM   13  H   UNL     3     -44.288 -46.483  12.361  1.00  0.00     0.315 HD
ENDBRANCH   4   7
BRANCH   1  14
HETATM   14  C   UNL     3     -42.308 -52.128  12.629  1.00  0.00     0.269 C 
HETATM   15  N   UNL     3     -43.446 -52.653  12.102  1.00  0.00    -0.360 N 
HETATM   16  C   UNL     3     -44.049 -53.850  12.651  1.00  0.00     0.149 C 
HETATM   17  H   UNL     3     -43.921 -52.170  11.326  1.00  0.00     0.162 HD
HETATM   18  O   UNL     3     -41.770 -52.673  13.578  1.00  0.00    -0.266 OA
ENDBRANCH   1  14
TORSDOF 2
ENDMDL
MODEL 8
REMARK VINA RESULT:      -4.7      4.279      6.035
REMARK  2 active torsions:
REMARK  status: ('A' for Active; 'I' for Inactive)
REMARK       I    between atoms: N_6  and  C_7 
REMARK    1  A    between atoms: C_7  and  C_9 
REMARK    2  A    between atoms: N_12  and  C_15 
ROOT
HETATM    1  C   UNL     3     -42.735 -53.022  13.144  1.00  0.00     0.117 A 
HETATM    2  C   UNL     3     -41.586 -53.681  12.749  1.00  0.00     0.055 A 
HETATM    3  C   UNL     3     -40.614 -52.711  12.709  1.00  0.00     0.113 A 
HETATM    4  N   UNL     3     -41.180 -51.533  13.046  1.00  0.00    -0.296 N 
HETATM    5  N   UNL     3     -42.461 -51.714  13.333  1.00  0.00    -0.293 N 
ATOM      6  HN  UNL     3     -43.118 -50.996  13.641  1.00  0.00     0.187 HD
ENDROOT
BRANCH   4   7
HETATM    7  C   UNL     3     -40.489 -50.236  13.010  1.00  0.00     0.135 C 
HETATM    8  C   UNL     3     -41.466 -49.051  13.125  1.00  0.00     0.031 C 
HETATM    9  C   UNL     3     -42.316 -48.933  11.856  1.00  0.00     0.032 C 
HETATM   10  C   UNL     3     -41.400 -48.815  10.630  1.00  0.00     0.270 C 
HETATM   11  N   UNL     3     -40.511 -49.984  10.545  1.00  0.00     0.085 N 
HETATM   12  C   UNL     3     -39.645 -50.068  11.729  1.00  0.00     0.296 C 
HETATM   13  H   UNL     3     -39.907 -49.880   9.697  1.00  0.00     0.315 HD
ENDBRANCH   4   7
BRANCH   1  14
HETATM   14  C   UNL     3     -44.059 -53.652  13.277  1.00  0.00     0.269 C 
HETATM   15  N   UNL     3     -44.712 -53.719  14.468  1.00  0.00    -0.360 N 
HETATM   16  C   UNL     3     -46.005 -54.362  14.584  1.00  0.00     0.149 C 
HETATM   17  H   UNL     3     -44.266 -53.346  15.318  1.00  0.00     0.162 HD
HETATM   18  O   UNL     3     -44.566 -54.134  12.277  1.00  0.00    -0.266 OA
ENDBRANCH   1  14
TORSDOF 2
ENDMDL
MODEL 9
REMARK VINA RESULT:      -4.7      4.318      6.603
REMARK  2 active torsions:
REMARK  status: ('A' for Active; 'I' for Inactive)
REMARK       I    between atoms: N_6  and  C_7 
REMARK    1  A    between atoms: C_7  and  C_9 
REMARK    2  A    between atoms: N_12  and  C_15 
ROOT
HETATM    1  C   UNL     3     -42.858 -52.790  12.519  1.00  0.00     0.117 A 
HETATM    2  C   UNL     3     -41.947 -53.694  13.034  1.00  0.00     0.055 A 
HETATM    3  C   UNL     3     -40.722 -53.090  12.886  1.00  0.00     0.113 A 
HETATM    4  N   UNL     3     -40.911 -51.894  12.291  1.00  0.00    -0.296 N 
HETATM    5  N   UNL     3     -42.205 -51.692  12.084  1.00  0.00    -0.293 N 
ATOM      6  HN  UNL     3     -42.628 -50.860  11.672  1.00  0.00     0.187 HD
ENDROOT
BRANCH   4   7
HETATM    7  C   UNL     3     -39.829 -50.997  11.861  1.00  0.00     0.135 C 
HETATM    8  C   UNL     3     -38.694 -50.914  12.898  1.00  0.00     0.031 C 
HETATM    9  C   UNL     3     -39.168 -50.173  14.153  1.00  0.00     0.032 C 
HETATM   10  C   UNL     3     -39.704 -48.789  13.764  1.00  0.00     0.270 C 
HETATM   11  N   UNL     3     -40.807 -48.922  12.800  1.00  0.00     0.085 N 
HETATM   12  C   UNL     3     -40.345 -49.572  11.566  1.00  0.00     0.296 C 
HETATM   13  H   UNL     3     -41.156 -47.965  12.562  1.00  0.00     0.315 HD
ENDBRANCH   4   7
BRANCH   1  14
HETATM   14  C   UNL     3     -44.308 -53.028  12.415  1.00  0.00     0.269 C 
HETATM   15  N   UNL     3     -45.204 -52.008  12.338  1.00  0.00    -0.360 N 
HETATM   16  C   UNL     3     -46.628 -52.260  12.259  1.00  0.00     0.149 C 
HETATM   17  H   UNL     3     -44.874 -51.032  12.383  1.00  0.00     0.162 HD
HETATM   18  O   UNL     3     -44.699 -54.183  12.410  1.00  0.00    -0.266 OA
ENDBRANCH   1  14
TORSDOF 2
ENDMDL
