MODEL 1
REMARK VINA RESULT:      -6.2      0.000      0.000
REMARK  4 active torsions:
REMARK  status: ('A' for Active; 'I' for Inactive)
REMARK    1  A    between atoms: C_2  and  N_3 
REMARK    2  A    between atoms: C_2  and  C_20 
REMARK       I    between atoms: N_3  and  C_4 
REMARK       I    between atoms: C_4  and  N_6 
REMARK    3  A    between atoms: N_6  and  C_7 
REMARK    4  A    between atoms: C_10  and  N_14 
ROOT
HETATM    1  C   UNL     1     -41.997 -48.292  11.274  1.00  0.00     0.051 A 
HETATM    2  C   UNL     1     -40.758 -47.704  11.094  1.00  0.00     0.035 A 
HETATM    3  C   UNL     1     -40.641 -46.311  11.015  1.00  0.00     0.051 A 
HETATM    4  C   UNL     1     -41.754 -45.484  11.140  1.00  0.00     0.103 A 
HETATM    5  N   UNL     1     -42.968 -46.056  11.318  1.00  0.00    -0.350 N 
ATOM      6  HN  UNL     1     -43.801 -45.476  11.412  1.00  0.00     0.166 HD
HETATM    7  C   UNL     1     -43.067 -47.415  11.373  1.00  0.00     0.119 A 
ENDROOT
BRANCH   1   8
HETATM    8  N   UNL     1     -42.196 -49.689  11.381  1.00  0.00    -0.308 N 
HETATM    9  C   UNL     1     -42.061 -50.431  12.536  1.00  0.00     0.321 C 
HETATM   10  N   UNL     1     -42.393 -51.755  12.342  1.00  0.00    -0.336 N 
HETATM   11  O   UNL     1     -41.658 -50.021  13.615  1.00  0.00    -0.247 OA
HETATM   12  H   UNL     1     -43.197 -51.918  11.750  1.00  0.00     0.164 HD
HETATM   13  H   UNL     1     -42.262 -50.221  10.525  1.00  0.00     0.170 HD
BRANCH  10  14
HETATM   14  C   UNL     1     -42.243 -52.710  13.453  1.00  0.00     0.111 C 
HETATM   15  C   UNL     1     -41.378 -53.878  12.980  1.00  0.00     0.035 C 
BRANCH  14  16
HETATM   16  C   UNL     1     -43.617 -53.142  14.014  1.00  0.00     0.143 C 
HETATM   17  C   UNL     1     -43.767 -54.637  14.294  1.00  0.00     0.036 C 
HETATM   18  C   UNL     1     -45.175 -54.979  13.849  1.00  0.00     0.029 C 
HETATM   19  C   UNL     1     -45.787 -53.648  13.472  1.00  0.00     0.168 C 
HETATM   20  O   UNL     1     -44.684 -52.814  13.099  1.00  0.00    -0.384 OA
ENDBRANCH  14  16
ENDBRANCH  10  14
ENDBRANCH   1   8
BRANCH   4  21
HETATM   21  N   UNL     1     -41.671 -44.111  11.064  1.00  0.00    -0.363 N 
HETATM   22  C   UNL     1     -40.436 -43.324  11.171  1.00  0.00     0.150 C 
HETATM   23  C   UNL     1     -40.456 -42.481  12.457  1.00  0.00     0.187 C 
HETATM   24  O   UNL     1     -41.622 -41.644  12.518  1.00  0.00    -0.388 OA
HETATM   25  C   UNL     1     -42.815 -42.450  12.478  1.00  0.00     0.187 C 
HETATM   26  C   UNL     1     -42.890 -43.296  11.194  1.00  0.00     0.150 C 
ENDBRANCH   4  21
TORSDOF 4
ENDMDL
MODEL 2
REMARK VINA RESULT:      -6.0      3.127      8.901
REMARK  4 active torsions:
REMARK  status: ('A' for Active; 'I' for Inactive)
REMARK    1  A    between atoms: C_2  and  N_3 
REMARK    2  A    between atoms: C_2  and  C_20 
REMARK       I    between atoms: N_3  and  C_4 
REMARK       I    between atoms: C_4  and  N_6 
REMARK    3  A    between atoms: N_6  and  C_7 
REMARK    4  A    between atoms: C_10  and  N_14 
ROOT
HETATM    1  C   UNL     1     -40.176 -51.173  12.072  1.00  0.00     0.051 A 
HETATM    2  C   UNL     1     -40.840 -52.363  12.311  1.00  0.00     0.035 A 
HETATM    3  C   UNL     1     -40.432 -53.205  13.353  1.00  0.00     0.051 A 
HETATM    4  C   UNL     1     -39.370 -52.861  14.186  1.00  0.00     0.103 A 
HETATM    5  N   UNL     1     -38.718 -51.697  13.955  1.00  0.00    -0.350 N 
ATOM      6  HN  UNL     1     -37.936 -51.419  14.548  1.00  0.00     0.166 HD
HETATM    7  C   UNL     1     -39.116 -50.898  12.925  1.00  0.00     0.119 A 
ENDROOT
BRANCH   1   8
HETATM    8  N   UNL     1     -40.538 -50.262  11.052  1.00  0.00    -0.308 N 
HETATM    9  C   UNL     1     -41.481 -49.262  11.170  1.00  0.00     0.321 C 
HETATM   10  N   UNL     1     -41.561 -48.488  10.032  1.00  0.00    -0.336 N 
HETATM   11  O   UNL     1     -42.214 -49.070  12.131  1.00  0.00    -0.247 OA
HETATM   12  H   UNL     1     -40.675 -48.273   9.592  1.00  0.00     0.164 HD
HETATM   13  H   UNL     1     -40.227 -50.460  10.112  1.00  0.00     0.170 HD
BRANCH  10  14
HETATM   14  C   UNL     1     -42.565 -47.414   9.954  1.00  0.00     0.111 C 
HETATM   15  C   UNL     1     -43.322 -47.547   8.634  1.00  0.00     0.035 C 
BRANCH  14  16
HETATM   16  C   UNL     1     -41.920 -46.024  10.164  1.00  0.00     0.143 C 
HETATM   17  C   UNL     1     -40.448 -46.044  10.578  1.00  0.00     0.036 C 
HETATM   18  C   UNL     1     -40.318 -44.941  11.610  1.00  0.00     0.029 C 
HETATM   19  C   UNL     1     -41.674 -44.274  11.626  1.00  0.00     0.168 C 
HETATM   20  O   UNL     1     -42.599 -45.282  11.198  1.00  0.00    -0.384 OA
ENDBRANCH  14  16
ENDBRANCH  10  14
ENDBRANCH   1   8
BRANCH   4  21
HETATM   21  N   UNL     1     -38.943 -53.670  15.215  1.00  0.00    -0.363 N 
HETATM   22  C   UNL     1     -38.942 -55.138  15.204  1.00  0.00     0.150 C 
HETATM   23  C   UNL     1     -39.955 -55.675  16.228  1.00  0.00     0.187 C 
HETATM   24  O   UNL     1     -39.697 -55.158  17.543  1.00  0.00    -0.388 OA
HETATM   25  C   UNL     1     -39.770 -53.720  17.535  1.00  0.00     0.187 C 
HETATM   26  C   UNL     1     -38.751 -53.101  16.560  1.00  0.00     0.150 C 
ENDBRANCH   4  21
TORSDOF 4
ENDMDL
MODEL 3
REMARK VINA RESULT:      -5.9      2.387      3.521
REMARK  4 active torsions:
REMARK  status: ('A' for Active; 'I' for Inactive)
REMARK    1  A    between atoms: C_2  and  N_3 
REMARK    2  A    between atoms: C_2  and  C_20 
REMARK       I    between atoms: N_3  and  C_4 
REMARK       I    between atoms: C_4  and  N_6 
REMARK    3  A    between atoms: N_6  and  C_7 
REMARK    4  A    between atoms: C_10  and  N_14 
ROOT
HETATM    1  C   UNL     1     -40.924 -45.483  10.745  1.00  0.00     0.051 A 
HETATM    2  C   UNL     1     -40.074 -44.407  10.932  1.00  0.00     0.035 A 
HETATM    3  C   UNL     1     -40.592 -43.120  11.115  1.00  0.00     0.051 A 
HETATM    4  C   UNL     1     -41.966 -42.890  11.140  1.00  0.00     0.103 A 
HETATM    5  N   UNL     1     -42.800 -43.940  10.958  1.00  0.00    -0.350 N 
ATOM      6  HN  UNL     1     -43.811 -43.802  10.970  1.00  0.00     0.166 HD
HETATM    7  C   UNL     1     -42.279 -45.184  10.761  1.00  0.00     0.119 A 
ENDROOT
BRANCH   1   8
HETATM    8  N   UNL     1     -40.480 -46.815  10.570  1.00  0.00    -0.308 N 
HETATM    9  C   UNL     1     -40.216 -47.710  11.586  1.00  0.00     0.321 C 
HETATM   10  N   UNL     1     -39.871 -48.955  11.103  1.00  0.00    -0.336 N 
HETATM   11  O   UNL     1     -40.228 -47.467  12.785  1.00  0.00    -0.247 OA
HETATM   12  H   UNL     1     -40.402 -49.270  10.301  1.00  0.00     0.164 HD
HETATM   13  H   UNL     1     -40.154 -47.086   9.654  1.00  0.00     0.170 HD
BRANCH  10  14
HETATM   14  C   UNL     1     -39.489 -50.018  12.046  1.00  0.00     0.111 C 
HETATM   15  C   UNL     1     -37.991 -50.286  11.900  1.00  0.00     0.035 C 
BRANCH  14  16
HETATM   16  C   UNL     1     -40.367 -51.278  11.861  1.00  0.00     0.143 C 
HETATM   17  C   UNL     1     -41.819 -51.133  12.314  1.00  0.00     0.036 C 
HETATM   18  C   UNL     1     -42.155 -52.452  12.980  1.00  0.00     0.029 C 
HETATM   19  C   UNL     1     -40.933 -53.314  12.751  1.00  0.00     0.168 C 
HETATM   20  O   UNL     1     -39.842 -52.396  12.606  1.00  0.00    -0.384 OA
ENDBRANCH  14  16
ENDBRANCH  10  14
ENDBRANCH   1   8
BRANCH   4  21
HETATM   21  N   UNL     1     -42.504 -41.635  11.315  1.00  0.00    -0.363 N 
HETATM   22  C   UNL     1     -41.739 -40.392  11.475  1.00  0.00     0.150 C 
HETATM   23  C   UNL     1     -41.932 -39.830  12.893  1.00  0.00     0.187 C 
HETATM   24  O   UNL     1     -43.323 -39.636  13.196  1.00  0.00    -0.388 OA
HETATM   25  C   UNL     1     -44.033 -40.885  13.095  1.00  0.00     0.187 C 
HETATM   26  C   UNL     1     -43.923 -41.493  11.684  1.00  0.00     0.150 C 
ENDBRANCH   4  21
TORSDOF 4
ENDMDL
MODEL 4
REMARK VINA RESULT:      -5.9      1.462      1.944
REMARK  4 active torsions:
REMARK  status: ('A' for Active; 'I' for Inactive)
REMARK    1  A    between atoms: C_2  and  N_3 
REMARK    2  A    between atoms: C_2  and  C_20 
REMARK       I    between atoms: N_3  and  C_4 
REMARK       I    between atoms: C_4  and  N_6 
REMARK    3  A    between atoms: N_6  and  C_7 
REMARK    4  A    between atoms: C_10  and  N_14 
ROOT
HETATM    1  C   UNL     1     -41.334 -48.755  11.643  1.00  0.00     0.051 A 
HETATM    2  C   UNL     1     -40.000 -48.572  11.964  1.00  0.00     0.035 A 
HETATM    3  C   UNL     1     -39.443 -47.288  11.966  1.00  0.00     0.051 A 
HETATM    4  C   UNL     1     -40.213 -46.165  11.672  1.00  0.00     0.103 A 
HETATM    5  N   UNL     1     -41.518 -46.341  11.359  1.00  0.00    -0.350 N 
ATOM      6  HN  UNL     1     -42.106 -45.537  11.138  1.00  0.00     0.166 HD
HETATM    7  C   UNL     1     -42.040 -47.600  11.342  1.00  0.00     0.119 A 
ENDROOT
BRANCH   1   8
HETATM    8  N   UNL     1     -41.974 -50.017  11.635  1.00  0.00    -0.308 N 
HETATM    9  C   UNL     1     -42.470 -50.670  12.744  1.00  0.00     0.321 C 
HETATM   10  N   UNL     1     -43.106 -51.847  12.411  1.00  0.00    -0.336 N 
HETATM   11  O   UNL     1     -42.348 -50.312  13.908  1.00  0.00    -0.247 OA
HETATM   12  H   UNL     1     -43.673 -51.811  11.574  1.00  0.00     0.164 HD
HETATM   13  H   UNL     1     -41.909 -50.573  10.795  1.00  0.00     0.170 HD
BRANCH  10  14
HETATM   14  C   UNL     1     -43.638 -52.711  13.479  1.00  0.00     0.111 C 
HETATM   15  C   UNL     1     -43.090 -54.123  13.283  1.00  0.00     0.035 C 
BRANCH  14  16
HETATM   16  C   UNL     1     -45.182 -52.646  13.539  1.00  0.00     0.143 C 
HETATM   17  C   UNL     1     -45.759 -51.339  14.082  1.00  0.00     0.036 C 
HETATM   18  C   UNL     1     -46.930 -51.759  14.948  1.00  0.00     0.029 C 
HETATM   19  C   UNL     1     -47.037 -53.253  14.743  1.00  0.00     0.168 C 
HETATM   20  O   UNL     1     -45.717 -53.683  14.386  1.00  0.00    -0.384 OA
ENDBRANCH  14  16
ENDBRANCH  10  14
ENDBRANCH   1   8
BRANCH   4  21
HETATM   21  N   UNL     1     -39.692 -44.891  11.663  1.00  0.00    -0.363 N 
HETATM   22  C   UNL     1     -38.997 -44.244  12.784  1.00  0.00     0.150 C 
HETATM   23  C   UNL     1     -39.833 -43.069  13.317  1.00  0.00     0.187 C 
HETATM   24  O   UNL     1     -40.144 -42.130  12.275  1.00  0.00    -0.388 OA
HETATM   25  C   UNL     1     -40.881 -42.779  11.223  1.00  0.00     0.187 C 
HETATM   26  C   UNL     1     -40.089 -43.946  10.606  1.00  0.00     0.150 C 
ENDBRANCH   4  21
TORSDOF 4
ENDMDL
MODEL 5
REMARK VINA RESULT:      -5.8      6.796      9.989
REMARK  4 active torsions:
REMARK  status: ('A' for Active; 'I' for Inactive)
REMARK    1  A    between atoms: C_2  and  N_3 
REMARK    2  A    between atoms: C_2  and  C_20 
REMARK       I    between atoms: N_3  and  C_4 
REMARK       I    between atoms: C_4  and  N_6 
REMARK    3  A    between atoms: N_6  and  C_7 
REMARK    4  A    between atoms: C_10  and  N_14 
ROOT
HETATM    1  C   UNL     1     -39.999 -54.523  15.403  1.00  0.00     0.051 A 
HETATM    2  C   UNL     1     -40.039 -54.335  14.033  1.00  0.00     0.035 A 
HETATM    3  C   UNL     1     -41.267 -54.237  13.367  1.00  0.00     0.051 A 
HETATM    4  C   UNL     1     -42.472 -54.299  14.062  1.00  0.00     0.103 A 
HETATM    5  N   UNL     1     -42.437 -54.481  15.403  1.00  0.00    -0.350 N 
ATOM      6  HN  UNL     1     -43.304 -54.532  15.938  1.00  0.00     0.166 HD
HETATM    7  C   UNL     1     -41.233 -54.595  16.033  1.00  0.00     0.119 A 
ENDROOT
BRANCH   1   8
HETATM    8  N   UNL     1     -38.800 -54.614  16.150  1.00  0.00    -0.308 N 
HETATM    9  C   UNL     1     -38.287 -55.770  16.701  1.00  0.00     0.321 C 
HETATM   10  N   UNL     1     -37.067 -55.557  17.306  1.00  0.00    -0.336 N 
HETATM   11  O   UNL     1     -38.830 -56.866  16.716  1.00  0.00    -0.247 OA
HETATM   12  H   UNL     1     -36.441 -54.933  16.813  1.00  0.00     0.164 HD
HETATM   13  H   UNL     1     -38.375 -53.754  16.465  1.00  0.00     0.170 HD
BRANCH  10  14
HETATM   14  C   UNL     1     -36.402 -56.668  18.008  1.00  0.00     0.111 C 
HETATM   15  C   UNL     1     -37.077 -56.862  19.365  1.00  0.00     0.035 C 
BRANCH  14  16
HETATM   16  C   UNL     1     -34.875 -56.443  18.100  1.00  0.00     0.143 C 
HETATM   17  C   UNL     1     -34.446 -55.022  18.466  1.00  0.00     0.036 C 
HETATM   18  C   UNL     1     -33.235 -54.743  17.599  1.00  0.00     0.029 C 
HETATM   19  C   UNL     1     -32.964 -56.053  16.894  1.00  0.00     0.168 C 
HETATM   20  O   UNL     1     -34.228 -56.727  16.842  1.00  0.00    -0.384 OA
ENDBRANCH  14  16
ENDBRANCH  10  14
ENDBRANCH   1   8
BRANCH   4  21
HETATM   21  N   UNL     1     -43.695 -54.209  13.435  1.00  0.00    -0.363 N 
HETATM   22  C   UNL     1     -44.067 -53.204  12.431  1.00  0.00     0.150 C 
HETATM   23  C   UNL     1     -45.152 -52.271  12.994  1.00  0.00     0.187 C 
HETATM   24  O   UNL     1     -46.296 -53.010  13.450  1.00  0.00    -0.388 OA
HETATM   25  C   UNL     1     -45.909 -53.940  14.479  1.00  0.00     0.187 C 
HETATM   26  C   UNL     1     -44.852 -54.940  13.979  1.00  0.00     0.150 C 
ENDBRANCH   4  21
TORSDOF 4
ENDMDL
MODEL 6
REMARK VINA RESULT:      -5.8      1.905      2.723
REMARK  4 active torsions:
REMARK  status: ('A' for Active; 'I' for Inactive)
REMARK    1  A    between atoms: C_2  and  N_3 
REMARK    2  A    between atoms: C_2  and  C_20 
REMARK       I    between atoms: N_3  and  C_4 
REMARK       I    between atoms: C_4  and  N_6 
REMARK    3  A    between atoms: N_6  and  C_7 
REMARK    4  A    between atoms: C_10  and  N_14 
ROOT
HETATM    1  C   UNL     1     -40.665 -49.264  11.045  1.00  0.00     0.051 A 
HETATM    2  C   UNL     1     -39.789 -48.482  11.778  1.00  0.00     0.035 A 
HETATM    3  C   UNL     1     -39.896 -47.087  11.752  1.00  0.00     0.051 A 
HETATM    4  C   UNL     1     -40.893 -46.452  11.015  1.00  0.00     0.103 A 
HETATM    5  N   UNL     1     -41.752 -47.214  10.298  1.00  0.00    -0.350 N 
ATOM      6  HN  UNL     1     -42.491 -46.777   9.747  1.00  0.00     0.166 HD
HETATM    7  C   UNL     1     -41.621 -48.571  10.318  1.00  0.00     0.119 A 
ENDROOT
BRANCH   1   8
HETATM    8  N   UNL     1     -40.633 -50.680  11.033  1.00  0.00    -0.308 N 
HETATM    9  C   UNL     1     -41.031 -51.498  12.069  1.00  0.00     0.321 C 
HETATM   10  N   UNL     1     -40.954 -52.833  11.733  1.00  0.00    -0.336 N 
HETATM   11  O   UNL     1     -41.378 -51.135  13.184  1.00  0.00    -0.247 OA
HETATM   12  H   UNL     1     -41.248 -53.061  10.792  1.00  0.00     0.164 HD
HETATM   13  H   UNL     1     -40.115 -51.132  10.293  1.00  0.00     0.170 HD
BRANCH  10  14
HETATM   14  C   UNL     1     -41.277 -53.855  12.743  1.00  0.00     0.111 C 
HETATM   15  C   UNL     1     -42.772 -53.785  13.048  1.00  0.00     0.035 C 
BRANCH  14  16
HETATM   16  C   UNL     1     -40.380 -53.712  13.995  1.00  0.00     0.143 C 
HETATM   17  C   UNL     1     -39.159 -54.631  14.031  1.00  0.00     0.036 C 
HETATM   18  C   UNL     1     -39.055 -55.087  15.473  1.00  0.00     0.029 C 
HETATM   19  C   UNL     1     -40.127 -54.304  16.196  1.00  0.00     0.168 C 
HETATM   20  O   UNL     1     -41.114 -54.002  15.202  1.00  0.00    -0.384 OA
ENDBRANCH  14  16
ENDBRANCH  10  14
ENDBRANCH   1   8
BRANCH   4  21
HETATM   21  N   UNL     1     -41.021 -45.082  10.967  1.00  0.00    -0.363 N 
HETATM   22  C   UNL     1     -39.923 -44.116  11.108  1.00  0.00     0.150 C 
HETATM   23  C   UNL     1     -40.088 -43.315  12.410  1.00  0.00     0.187 C 
HETATM   24  O   UNL     1     -41.370 -42.670  12.471  1.00  0.00    -0.388 OA
HETATM   25  C   UNL     1     -42.423 -43.648  12.397  1.00  0.00     0.187 C 
HETATM   26  C   UNL     1     -42.353 -44.467  11.095  1.00  0.00     0.150 C 
ENDBRANCH   4  21
TORSDOF 4
ENDMDL
MODEL 7
REMARK VINA RESULT:      -5.7      1.915      2.323
REMARK  4 active torsions:
REMARK  status: ('A' for Active; 'I' for Inactive)
REMARK    1  A    between atoms: C_2  and  N_3 
REMARK    2  A    between atoms: C_2  and  C_20 
REMARK       I    between atoms: N_3  and  C_4 
REMARK       I    between atoms: C_4  and  N_6 
REMARK    3  A    between atoms: N_6  and  C_7 
REMARK    4  A    between atoms: C_10  and  N_14 
ROOT
HETATM    1  C   UNL     1     -40.035 -49.695  11.716  1.00  0.00     0.051 A 
HETATM    2  C   UNL     1     -39.239 -48.662  12.176  1.00  0.00     0.035 A 
HETATM    3  C   UNL     1     -39.498 -47.342  11.786  1.00  0.00     0.051 A 
HETATM    4  C   UNL     1     -40.569 -47.032  10.951  1.00  0.00     0.103 A 
HETATM    5  N   UNL     1     -41.350 -48.041  10.500  1.00  0.00    -0.350 N 
ATOM      6  HN  UNL     1     -42.140 -47.844   9.886  1.00  0.00     0.166 HD
HETATM    7  C   UNL     1     -41.072 -49.322  10.873  1.00  0.00     0.119 A 
ENDROOT
BRANCH   1   8
HETATM    8  N   UNL     1     -39.850 -51.051  12.077  1.00  0.00    -0.308 N 
HETATM    9  C   UNL     1     -40.222 -51.618  13.278  1.00  0.00     0.321 C 
HETATM   10  N   UNL     1     -39.979 -52.974  13.309  1.00  0.00    -0.336 N 
HETATM   11  O   UNL     1     -40.674 -51.024  14.248  1.00  0.00    -0.247 OA
HETATM   12  H   UNL     1     -40.187 -53.470  12.451  1.00  0.00     0.164 HD
HETATM   13  H   UNL     1     -39.241 -51.613  11.499  1.00  0.00     0.170 HD
BRANCH  10  14
HETATM   14  C   UNL     1     -40.252 -53.733  14.541  1.00  0.00     0.111 C 
HETATM   15  C   UNL     1     -39.089 -54.691  14.792  1.00  0.00     0.035 C 
BRANCH  14  16
HETATM   16  C   UNL     1     -41.630 -54.430  14.480  1.00  0.00     0.143 C 
HETATM   17  C   UNL     1     -42.477 -54.095  13.252  1.00  0.00     0.036 C 
HETATM   18  C   UNL     1     -43.894 -53.969  13.777  1.00  0.00     0.029 C 
HETATM   19  C   UNL     1     -43.796 -54.368  15.232  1.00  0.00     0.168 C 
HETATM   20  O   UNL     1     -42.447 -54.079  15.617  1.00  0.00    -0.384 OA
ENDBRANCH  14  16
ENDBRANCH  10  14
ENDBRANCH   1   8
BRANCH   4  21
HETATM   21  N   UNL     1     -40.846 -45.745  10.549  1.00  0.00    -0.363 N 
HETATM   22  C   UNL     1     -39.863 -44.661  10.415  1.00  0.00     0.150 C 
HETATM   23  C   UNL     1     -40.133 -43.570  11.464  1.00  0.00     0.187 C 
HETATM   24  O   UNL     1     -41.479 -43.076  11.373  1.00  0.00    -0.388 OA
HETATM   25  C   UNL     1     -42.418 -44.149  11.573  1.00  0.00     0.187 C 
HETATM   26  C   UNL     1     -42.239 -45.268  10.531  1.00  0.00     0.150 C 
ENDBRANCH   4  21
TORSDOF 4
ENDMDL
MODEL 8
REMARK VINA RESULT:      -5.7      1.783      9.019
REMARK  4 active torsions:
REMARK  status: ('A' for Active; 'I' for Inactive)
REMARK    1  A    between atoms: C_2  and  N_3 
REMARK    2  A    between atoms: C_2  and  C_20 
REMARK       I    between atoms: N_3  and  C_4 
REMARK       I    between atoms: C_4  and  N_6 
REMARK    3  A    between atoms: N_6  and  C_7 
REMARK    4  A    between atoms: C_10  and  N_14 
ROOT
HETATM    1  C   UNL     1     -41.277 -49.763  12.488  1.00  0.00     0.051 A 
HETATM    2  C   UNL     1     -40.582 -50.880  12.061  1.00  0.00     0.035 A 
HETATM    3  C   UNL     1     -41.132 -52.158  12.217  1.00  0.00     0.051 A 
HETATM    4  C   UNL     1     -42.393 -52.338  12.780  1.00  0.00     0.103 A 
HETATM    5  N   UNL     1     -43.076 -51.247  13.199  1.00  0.00    -0.350 N 
ATOM      6  HN  UNL     1     -44.001 -51.348  13.616  1.00  0.00     0.166 HD
HETATM    7  C   UNL     1     -42.518 -50.011  13.057  1.00  0.00     0.119 A 
ENDROOT
BRANCH   1   8
HETATM    8  N   UNL     1     -40.798 -48.438  12.350  1.00  0.00    -0.308 N 
HETATM    9  C   UNL     1     -41.157 -47.557  11.352  1.00  0.00     0.321 C 
HETATM   10  N   UNL     1     -40.583 -46.316  11.525  1.00  0.00    -0.336 N 
HETATM   11  O   UNL     1     -41.861 -47.810  10.383  1.00  0.00    -0.247 OA
HETATM   12  H   UNL     1     -40.551 -45.983  12.480  1.00  0.00     0.164 HD
HETATM   13  H   UNL     1     -40.000 -48.166  12.906  1.00  0.00     0.170 HD
BRANCH  10  14
HETATM   14  C   UNL     1     -40.802 -45.268  10.513  1.00  0.00     0.111 C 
HETATM   15  C   UNL     1     -39.445 -44.820   9.972  1.00  0.00     0.035 C 
BRANCH  14  16
HETATM   16  C   UNL     1     -41.659 -44.111  11.078  1.00  0.00     0.143 C 
HETATM   17  C   UNL     1     -40.909 -42.802  11.321  1.00  0.00     0.036 C 
HETATM   18  C   UNL     1     -41.468 -42.268  12.625  1.00  0.00     0.029 C 
HETATM   19  C   UNL     1     -42.587 -43.221  12.976  1.00  0.00     0.168 C 
HETATM   20  O   UNL     1     -42.241 -44.463  12.350  1.00  0.00    -0.384 OA
ENDBRANCH  14  16
ENDBRANCH  10  14
ENDBRANCH   1   8
BRANCH   4  21
HETATM   21  N   UNL     1     -42.958 -53.582  12.950  1.00  0.00    -0.363 N 
HETATM   22  C   UNL     1     -44.330 -53.955  12.582  1.00  0.00     0.150 C 
HETATM   23  C   UNL     1     -45.153 -54.258  13.844  1.00  0.00     0.187 C 
HETATM   24  O   UNL     1     -44.528 -55.273  14.647  1.00  0.00    -0.388 OA
HETATM   25  C   UNL     1     -43.211 -54.850  15.047  1.00  0.00     0.187 C 
HETATM   26  C   UNL     1     -42.308 -54.566  13.832  1.00  0.00     0.150 C 
ENDBRANCH   4  21
TORSDOF 4
ENDMDL
MODEL 9
REMARK VINA RESULT:      -5.3      6.845     10.409
REMARK  4 active torsions:
REMARK  status: ('A' for Active; 'I' for Inactive)
REMARK    1  A    between atoms: C_2  and  N_3 
REMARK    2  A    between atoms: C_2  and  C_20 
REMARK       I    between atoms: N_3  and  C_4 
REMARK       I    between atoms: C_4  and  N_6 
REMARK    3  A    between atoms: N_6  and  C_7 
REMARK    4  A    between atoms: C_10  and  N_14 
ROOT
HETATM    1  C   UNL     1     -39.348 -55.229  15.680  1.00  0.00     0.051 A 
HETATM    2  C   UNL     1     -40.465 -55.693  16.352  1.00  0.00     0.035 A 
HETATM    3  C   UNL     1     -41.740 -55.226  16.013  1.00  0.00     0.051 A 
HETATM    4  C   UNL     1     -41.922 -54.306  14.983  1.00  0.00     0.103 A 
HETATM    5  N   UNL     1     -40.832 -53.850  14.323  1.00  0.00    -0.350 N 
ATOM      6  HN  UNL     1     -40.935 -53.175  13.565  1.00  0.00     0.166 HD
HETATM    7  C   UNL     1     -39.596 -54.301  14.679  1.00  0.00     0.119 A 
ENDROOT
BRANCH   1   8
HETATM    8  N   UNL     1     -38.029 -55.665  15.951  1.00  0.00    -0.308 N 
HETATM    9  C   UNL     1     -37.358 -55.489  17.143  1.00  0.00     0.321 C 
HETATM   10  N   UNL     1     -36.116 -56.088  17.131  1.00  0.00    -0.336 N 
HETATM   11  O   UNL     1     -37.753 -54.849  18.108  1.00  0.00    -0.247 OA
HETATM   12  H   UNL     1     -36.076 -56.992  16.678  1.00  0.00     0.164 HD
HETATM   13  H   UNL     1     -37.463 -55.964  15.171  1.00  0.00     0.170 HD
BRANCH  10  14
HETATM   14  C   UNL     1     -35.229 -55.943  18.297  1.00  0.00     0.111 C 
HETATM   15  C   UNL     1     -33.980 -55.176  17.869  1.00  0.00     0.035 C 
BRANCH  14  16
HETATM   16  C   UNL     1     -34.926 -57.313  18.947  1.00  0.00     0.143 C 
HETATM   17  C   UNL     1     -33.867 -58.153  18.233  1.00  0.00     0.036 C 
HETATM   18  C   UNL     1     -34.387 -59.576  18.299  1.00  0.00     0.029 C 
HETATM   19  C   UNL     1     -35.630 -59.486  19.154  1.00  0.00     0.168 C 
HETATM   20  O   UNL     1     -36.105 -58.143  18.996  1.00  0.00    -0.384 OA
ENDBRANCH  14  16
ENDBRANCH  10  14
ENDBRANCH   1   8
BRANCH   4  21
HETATM   21  N   UNL     1     -43.164 -53.826  14.630  1.00  0.00    -0.363 N 
HETATM   22  C   UNL     1     -44.451 -54.411  15.026  1.00  0.00     0.150 C 
HETATM   23  C   UNL     1     -45.173 -54.982  13.795  1.00  0.00     0.187 C 
HETATM   24  O   UNL     1     -45.339 -53.986  12.774  1.00  0.00    -0.388 OA
HETATM   25  C   UNL     1     -44.056 -53.479  12.360  1.00  0.00     0.187 C 
HETATM   26  C   UNL     1     -43.285 -52.849  13.534  1.00  0.00     0.150 C 
ENDBRANCH   4  21
TORSDOF 4
ENDMDL
