MODEL 1
REMARK VINA RESULT:      -5.2      0.000      0.000
REMARK  4 active torsions:
REMARK  status: ('A' for Active; 'I' for Inactive)
REMARK    1  A    between atoms: C_2  and  C_3 
REMARK    2  A    between atoms: C_2  and  N_10 
REMARK    3  A    between atoms: C_3  and  N_4 
REMARK       I    between atoms: N_10  and  C_11 
REMARK    4  A    between atoms: C_11  and  C_13 
ROOT
HETATM    1  N   UNL     1     -43.019 -54.193  14.632  1.00  0.00    -0.355 N 
HETATM    2  C   UNL     1     -43.969 -53.418  15.256  1.00  0.00     0.222 C 
HETATM    3  O   UNL     1     -43.647 -52.462  15.961  1.00  0.00    -0.273 OA
HETATM    4  H   UNL     1     -43.296 -55.067  14.209  1.00  0.00     0.162 HD
ENDROOT
BRANCH   1   5
HETATM    5  C   UNL     1     -41.594 -53.971  14.880  1.00  0.00     0.098 C 
HETATM    6  C   UNL     1     -41.090 -54.956  15.936  1.00  0.00     0.034 C 
BRANCH   5   7
HETATM    7  C   UNL     1     -40.758 -54.086  13.597  1.00  0.00     0.153 C 
BRANCH   7   8
HETATM    8  N   UNL     1     -40.600 -52.831  12.888  1.00  0.00    -0.350 N 
HETATM    9  C   UNL     1     -39.725 -51.829  13.206  1.00  0.00     0.108 A 
HETATM   10  C   UNL     1     -39.958 -50.847  12.272  1.00  0.00     0.106 A 
HETATM   11  N   UNL     1     -40.954 -51.223  11.410  1.00  0.00    -0.361 N 
HETATM   12  C   UNL     1     -41.323 -52.421  11.806  1.00  0.00     0.182 A 
ATOM     13  HN  UNL     1     -41.329 -50.688  10.628  1.00  0.00     0.166 HD
ENDBRANCH   7   8
ENDBRANCH   5   7
ENDBRANCH   1   5
BRANCH   2  14
HETATM   14  C   UNL     1     -45.443 -53.738  14.956  1.00  0.00     0.078 C 
HETATM   15  C   UNL     1     -45.608 -54.015  13.449  1.00  0.00     0.014 C 
HETATM   16  C   UNL     1     -45.462 -52.733  12.626  1.00  0.00     0.001 C 
HETATM   17  C   UNL     1     -46.446 -51.657  13.077  1.00  0.00     0.000 C 
HETATM   18  C   UNL     1     -46.370 -51.396  14.580  1.00  0.00     0.001 C 
HETATM   19  C   UNL     1     -46.478 -52.689  15.386  1.00  0.00     0.014 C 
ENDBRANCH   2  14
TORSDOF 4
ENDMDL
MODEL 2
REMARK VINA RESULT:      -5.2      1.614      2.293
REMARK  4 active torsions:
REMARK  status: ('A' for Active; 'I' for Inactive)
REMARK    1  A    between atoms: C_2  and  C_3 
REMARK    2  A    between atoms: C_2  and  N_10 
REMARK    3  A    between atoms: C_3  and  N_4 
REMARK       I    between atoms: N_10  and  C_11 
REMARK    4  A    between atoms: C_11  and  C_13 
ROOT
HETATM    1  N   UNL     1     -42.806 -52.569  13.707  1.00  0.00    -0.355 N 
HETATM    2  C   UNL     1     -43.873 -51.809  13.289  1.00  0.00     0.222 C 
HETATM    3  O   UNL     1     -43.796 -50.583  13.227  1.00  0.00    -0.273 OA
HETATM    4  H   UNL     1     -42.948 -53.546  13.916  1.00  0.00     0.162 HD
ENDROOT
BRANCH   1   5
HETATM    5  C   UNL     1     -41.584 -51.931  14.200  1.00  0.00     0.098 C 
HETATM    6  C   UNL     1     -41.396 -52.244  15.685  1.00  0.00     0.034 C 
BRANCH   5   7
HETATM    7  C   UNL     1     -40.344 -52.361  13.401  1.00  0.00     0.153 C 
BRANCH   7   8
HETATM    8  N   UNL     1     -39.823 -51.325  12.531  1.00  0.00    -0.350 N 
HETATM    9  C   UNL     1     -38.556 -50.811  12.556  1.00  0.00     0.108 A 
HETATM   10  C   UNL     1     -38.544 -49.851  11.573  1.00  0.00     0.106 A 
HETATM   11  N   UNL     1     -39.768 -49.764  10.964  1.00  0.00    -0.361 N 
HETATM   12  C   UNL     1     -40.519 -50.661  11.562  1.00  0.00     0.182 A 
ATOM     13  HN  UNL     1     -40.039 -49.136  10.208  1.00  0.00     0.166 HD
ENDBRANCH   7   8
ENDBRANCH   5   7
ENDBRANCH   1   5
BRANCH   2  14
HETATM   14  C   UNL     1     -45.126 -52.562  12.810  1.00  0.00     0.078 C 
HETATM   15  C   UNL     1     -46.349 -51.629  12.905  1.00  0.00     0.014 C 
HETATM   16  C   UNL     1     -46.751 -51.382  14.361  1.00  0.00     0.001 C 
HETATM   17  C   UNL     1     -47.025 -52.690  15.100  1.00  0.00     0.000 C 
HETATM   18  C   UNL     1     -45.867 -53.678  14.975  1.00  0.00     0.001 C 
HETATM   19  C   UNL     1     -45.451 -53.883  13.520  1.00  0.00     0.014 C 
ENDBRANCH   2  14
TORSDOF 4
ENDMDL
MODEL 3
REMARK VINA RESULT:      -5.0      2.958      4.327
REMARK  4 active torsions:
REMARK  status: ('A' for Active; 'I' for Inactive)
REMARK    1  A    between atoms: C_2  and  C_3 
REMARK    2  A    between atoms: C_2  and  N_10 
REMARK    3  A    between atoms: C_3  and  N_4 
REMARK       I    between atoms: N_10  and  C_11 
REMARK    4  A    between atoms: C_11  and  C_13 
ROOT
HETATM    1  N   UNL     1     -42.865 -50.977  13.363  1.00  0.00    -0.355 N 
HETATM    2  C   UNL     1     -43.875 -51.884  13.140  1.00  0.00     0.222 C 
HETATM    3  O   UNL     1     -45.056 -51.563  13.267  1.00  0.00    -0.273 OA
HETATM    4  H   UNL     1     -41.913 -51.306  13.425  1.00  0.00     0.162 HD
ENDROOT
BRANCH   1   5
HETATM    5  C   UNL     1     -43.163 -49.637  13.870  1.00  0.00     0.098 C 
HETATM    6  C   UNL     1     -43.184 -49.651  15.399  1.00  0.00     0.034 C 
BRANCH   5   7
HETATM    7  C   UNL     1     -42.164 -48.589  13.358  1.00  0.00     0.153 C 
BRANCH   7   8
HETATM    8  N   UNL     1     -42.259 -48.339  11.933  1.00  0.00    -0.350 N 
HETATM    9  C   UNL     1     -43.304 -47.738  11.286  1.00  0.00     0.108 A 
HETATM   10  C   UNL     1     -42.950 -47.748   9.958  1.00  0.00     0.106 A 
HETATM   11  N   UNL     1     -41.730 -48.347   9.784  1.00  0.00    -0.361 N 
HETATM   12  C   UNL     1     -41.338 -48.695  10.989  1.00  0.00     0.182 A 
ATOM     13  HN  UNL     1     -41.232 -48.493   8.907  1.00  0.00     0.166 HD
ENDBRANCH   7   8
ENDBRANCH   5   7
ENDBRANCH   1   5
BRANCH   2  14
HETATM   14  C   UNL     1     -43.469 -53.277  12.631  1.00  0.00     0.078 C 
HETATM   15  C   UNL     1     -44.574 -54.291  12.986  1.00  0.00     0.014 C 
HETATM   16  C   UNL     1     -44.606 -54.578  14.489  1.00  0.00     0.001 C 
HETATM   17  C   UNL     1     -43.253 -55.068  14.999  1.00  0.00     0.000 C 
HETATM   18  C   UNL     1     -42.113 -54.130  14.610  1.00  0.00     0.001 C 
HETATM   19  C   UNL     1     -42.118 -53.821  13.114  1.00  0.00     0.014 C 
ENDBRANCH   2  14
TORSDOF 4
ENDMDL
MODEL 4
REMARK VINA RESULT:      -4.8      1.467      2.152
REMARK  4 active torsions:
REMARK  status: ('A' for Active; 'I' for Inactive)
REMARK    1  A    between atoms: C_2  and  C_3 
REMARK    2  A    between atoms: C_2  and  N_10 
REMARK    3  A    between atoms: C_3  and  N_4 
REMARK       I    between atoms: N_10  and  C_11 
REMARK    4  A    between atoms: C_11  and  C_13 
ROOT
HETATM    1  N   UNL     1     -43.044 -52.845  15.390  1.00  0.00    -0.355 N 
HETATM    2  C   UNL     1     -43.904 -52.277  16.302  1.00  0.00     0.222 C 
HETATM    3  O   UNL     1     -44.094 -52.793  17.402  1.00  0.00    -0.273 OA
HETATM    4  H   UNL     1     -43.039 -52.506  14.440  1.00  0.00     0.162 HD
ENDROOT
BRANCH   1   5
HETATM    5  C   UNL     1     -42.418 -54.140  15.661  1.00  0.00     0.098 C 
HETATM    6  C   UNL     1     -43.267 -55.263  15.063  1.00  0.00     0.034 C 
BRANCH   5   7
HETATM    7  C   UNL     1     -40.980 -54.212  15.125  1.00  0.00     0.153 C 
BRANCH   7   8
HETATM    8  N   UNL     1     -40.790 -53.516  13.868  1.00  0.00    -0.350 N 
HETATM    9  C   UNL     1     -40.372 -52.222  13.716  1.00  0.00     0.108 A 
HETATM   10  C   UNL     1     -40.368 -52.009  12.358  1.00  0.00     0.106 A 
HETATM   11  N   UNL     1     -40.783 -53.130  11.689  1.00  0.00    -0.361 N 
HETATM   12  C   UNL     1     -41.032 -54.021  12.623  1.00  0.00     0.182 A 
ATOM     13  HN  UNL     1     -40.878 -53.249  10.681  1.00  0.00     0.166 HD
ENDBRANCH   7   8
ENDBRANCH   5   7
ENDBRANCH   1   5
BRANCH   2  14
HETATM   14  C   UNL     1     -44.535 -50.927  15.924  1.00  0.00     0.078 C 
HETATM   15  C   UNL     1     -46.023 -50.929  16.329  1.00  0.00     0.014 C 
HETATM   16  C   UNL     1     -46.846 -51.847  15.422  1.00  0.00     0.001 C 
HETATM   17  C   UNL     1     -46.698 -51.469  13.951  1.00  0.00     0.000 C 
HETATM   18  C   UNL     1     -45.235 -51.384  13.520  1.00  0.00     0.001 C 
HETATM   19  C   UNL     1     -44.418 -50.496  14.456  1.00  0.00     0.014 C 
ENDBRANCH   2  14
TORSDOF 4
ENDMDL
MODEL 5
REMARK VINA RESULT:      -4.6      2.191      3.918
REMARK  4 active torsions:
REMARK  status: ('A' for Active; 'I' for Inactive)
REMARK    1  A    between atoms: C_2  and  C_3 
REMARK    2  A    between atoms: C_2  and  N_10 
REMARK    3  A    between atoms: C_3  and  N_4 
REMARK       I    between atoms: N_10  and  C_11 
REMARK    4  A    between atoms: C_11  and  C_13 
ROOT
HETATM    1  N   UNL     1     -42.982 -53.666  15.090  1.00  0.00    -0.355 N 
HETATM    2  C   UNL     1     -44.242 -54.220  15.090  1.00  0.00     0.222 C 
HETATM    3  O   UNL     1     -44.427 -55.377  14.717  1.00  0.00    -0.273 OA
HETATM    4  H   UNL     1     -42.881 -52.672  15.231  1.00  0.00     0.162 HD
ENDROOT
BRANCH   1   5
HETATM    5  C   UNL     1     -41.844 -54.402  14.538  1.00  0.00     0.098 C 
HETATM    6  C   UNL     1     -41.597 -53.970  13.092  1.00  0.00     0.034 C 
BRANCH   5   7
HETATM    7  C   UNL     1     -40.572 -54.215  15.378  1.00  0.00     0.153 C 
BRANCH   7   8
HETATM    8  N   UNL     1     -40.203 -55.387  16.147  1.00  0.00    -0.350 N 
HETATM    9  C   UNL     1     -41.065 -56.271  16.736  1.00  0.00     0.108 A 
HETATM   10  C   UNL     1     -40.256 -57.188  17.364  1.00  0.00     0.106 A 
HETATM   11  N   UNL     1     -38.934 -56.877  17.180  1.00  0.00    -0.361 N 
HETATM   12  C   UNL     1     -38.932 -55.787  16.446  1.00  0.00     0.182 A 
ATOM     13  HN  UNL     1     -38.125 -57.383  17.538  1.00  0.00     0.166 HD
ENDBRANCH   7   8
ENDBRANCH   5   7
ENDBRANCH   1   5
BRANCH   2  14
HETATM   14  C   UNL     1     -45.384 -53.366  15.668  1.00  0.00     0.078 C 
HETATM   15  C   UNL     1     -46.640 -53.537  14.791  1.00  0.00     0.014 C 
HETATM   16  C   UNL     1     -46.475 -52.843  13.437  1.00  0.00     0.001 C 
HETATM   17  C   UNL     1     -46.139 -51.363  13.598  1.00  0.00     0.000 C 
HETATM   18  C   UNL     1     -44.941 -51.139  14.518  1.00  0.00     0.001 C 
HETATM   19  C   UNL     1     -45.103 -51.869  15.849  1.00  0.00     0.014 C 
ENDBRANCH   2  14
TORSDOF 4
ENDMDL
MODEL 6
REMARK VINA RESULT:      -4.6     15.347     17.287
REMARK  4 active torsions:
REMARK  status: ('A' for Active; 'I' for Inactive)
REMARK    1  A    between atoms: C_2  and  C_3 
REMARK    2  A    between atoms: C_2  and  N_10 
REMARK    3  A    between atoms: C_3  and  N_4 
REMARK       I    between atoms: N_10  and  C_11 
REMARK    4  A    between atoms: C_11  and  C_13 
ROOT
HETATM    1  N   UNL     1     -51.461 -51.898  -1.297  1.00  0.00    -0.355 N 
HETATM    2  C   UNL     1     -50.435 -51.372  -0.546  1.00  0.00     0.222 C 
HETATM    3  O   UNL     1     -49.728 -52.094   0.157  1.00  0.00    -0.273 OA
HETATM    4  H   UNL     1     -52.130 -51.273  -1.722  1.00  0.00     0.162 HD
ENDROOT
BRANCH   1   5
HETATM    5  C   UNL     1     -51.813 -53.314  -1.192  1.00  0.00     0.098 C 
HETATM    6  C   UNL     1     -53.203 -53.461  -0.570  1.00  0.00     0.034 C 
BRANCH   5   7
HETATM    7  C   UNL     1     -51.757 -54.027  -2.551  1.00  0.00     0.153 C 
BRANCH   7   8
HETATM    8  N   UNL     1     -50.633 -54.932  -2.690  1.00  0.00    -0.350 N 
HETATM    9  C   UNL     1     -50.654 -56.160  -3.292  1.00  0.00     0.108 A 
HETATM   10  C   UNL     1     -49.374 -56.643  -3.156  1.00  0.00     0.106 A 
HETATM   11  N   UNL     1     -48.587 -55.748  -2.480  1.00  0.00    -0.361 N 
HETATM   12  C   UNL     1     -49.371 -54.729  -2.210  1.00  0.00     0.182 A 
ATOM     13  HN  UNL     1     -47.602 -55.851  -2.237  1.00  0.00     0.166 HD
ENDBRANCH   7   8
ENDBRANCH   5   7
ENDBRANCH   1   5
BRANCH   2  14
HETATM   14  C   UNL     1     -50.150 -49.869  -0.701  1.00  0.00     0.078 C 
HETATM   15  C   UNL     1     -49.305 -49.385   0.494  1.00  0.00     0.014 C 
HETATM   16  C   UNL     1     -50.131 -49.347   1.782  1.00  0.00     0.001 C 
HETATM   17  C   UNL     1     -51.377 -48.479   1.628  1.00  0.00     0.000 C 
HETATM   18  C   UNL     1     -52.212 -48.876   0.413  1.00  0.00     0.001 C 
HETATM   19  C   UNL     1     -51.367 -48.948  -0.857  1.00  0.00     0.014 C 
ENDBRANCH   2  14
TORSDOF 4
ENDMDL
MODEL 7
REMARK VINA RESULT:      -4.6      3.969      6.395
REMARK  4 active torsions:
REMARK  status: ('A' for Active; 'I' for Inactive)
REMARK    1  A    between atoms: C_2  and  C_3 
REMARK    2  A    between atoms: C_2  and  N_10 
REMARK    3  A    between atoms: C_3  and  N_4 
REMARK       I    between atoms: N_10  and  C_11 
REMARK    4  A    between atoms: C_11  and  C_13 
ROOT
HETATM    1  N   UNL     1     -39.248 -48.556  11.655  1.00  0.00    -0.355 N 
HETATM    2  C   UNL     1     -40.436 -48.126  11.109  1.00  0.00     0.222 C 
HETATM    3  O   UNL     1     -41.283 -48.929  10.719  1.00  0.00    -0.273 OA
HETATM    4  H   UNL     1     -38.504 -47.890  11.802  1.00  0.00     0.162 HD
ENDROOT
BRANCH   1   5
HETATM    5  C   UNL     1     -38.912 -49.980  11.683  1.00  0.00     0.098 C 
HETATM    6  C   UNL     1     -37.430 -50.172  11.357  1.00  0.00     0.034 C 
BRANCH   5   7
HETATM    7  C   UNL     1     -39.251 -50.628  13.034  1.00  0.00     0.153 C 
BRANCH   7   8
HETATM    8  N   UNL     1     -39.995 -51.867  12.916  1.00  0.00    -0.350 N 
HETATM    9  C   UNL     1     -39.820 -52.990  13.678  1.00  0.00     0.108 A 
HETATM   10  C   UNL     1     -40.728 -53.896  13.184  1.00  0.00     0.106 A 
HETATM   11  N   UNL     1     -41.435 -53.358  12.142  1.00  0.00    -0.361 N 
HETATM   12  C   UNL     1     -40.972 -52.136  12.001  1.00  0.00     0.182 A 
ATOM     13  HN  UNL     1     -42.165 -53.809  11.592  1.00  0.00     0.166 HD
ENDBRANCH   7   8
ENDBRANCH   5   7
ENDBRANCH   1   5
BRANCH   2  14
HETATM   14  C   UNL     1     -40.696 -46.611  11.098  1.00  0.00     0.078 C 
HETATM   15  C   UNL     1     -40.208 -46.001  12.427  1.00  0.00     0.014 C 
HETATM   16  C   UNL     1     -41.118 -46.399  13.591  1.00  0.00     0.001 C 
HETATM   17  C   UNL     1     -42.571 -46.009  13.331  1.00  0.00     0.000 C 
HETATM   18  C   UNL     1     -43.079 -46.532  11.990  1.00  0.00     0.001 C 
HETATM   19  C   UNL     1     -42.141 -46.161  10.843  1.00  0.00     0.014 C 
ENDBRANCH   2  14
TORSDOF 4
ENDMDL
MODEL 8
REMARK VINA RESULT:      -4.5      2.255      6.052
REMARK  4 active torsions:
REMARK  status: ('A' for Active; 'I' for Inactive)
REMARK    1  A    between atoms: C_2  and  C_3 
REMARK    2  A    between atoms: C_2  and  N_10 
REMARK    3  A    between atoms: C_3  and  N_4 
REMARK       I    between atoms: N_10  and  C_11 
REMARK    4  A    between atoms: C_11  and  C_13 
ROOT
HETATM    1  N   UNL     1     -40.951 -51.899  13.846  1.00  0.00    -0.355 N 
HETATM    2  C   UNL     1     -40.862 -50.591  13.429  1.00  0.00     0.222 C 
HETATM    3  O   UNL     1     -41.733 -50.090  12.720  1.00  0.00    -0.273 OA
HETATM    4  H   UNL     1     -40.148 -52.336  14.274  1.00  0.00     0.162 HD
ENDROOT
BRANCH   1   5
HETATM    5  C   UNL     1     -42.028 -52.764  13.365  1.00  0.00     0.098 C 
HETATM    6  C   UNL     1     -41.490 -54.173  13.110  1.00  0.00     0.034 C 
BRANCH   5   7
HETATM    7  C   UNL     1     -43.213 -52.812  14.341  1.00  0.00     0.153 C 
BRANCH   7   8
HETATM    8  N   UNL     1     -44.493 -52.532  13.720  1.00  0.00    -0.350 N 
HETATM    9  C   UNL     1     -45.014 -51.293  13.466  1.00  0.00     0.108 A 
HETATM   10  C   UNL     1     -46.242 -51.536  12.898  1.00  0.00     0.106 A 
HETATM   11  N   UNL     1     -46.481 -52.882  12.814  1.00  0.00    -0.361 N 
HETATM   12  C   UNL     1     -45.412 -53.458  13.318  1.00  0.00     0.182 A 
ATOM     13  HN  UNL     1     -47.311 -53.340  12.440  1.00  0.00     0.166 HD
ENDBRANCH   7   8
ENDBRANCH   5   7
ENDBRANCH   1   5
BRANCH   2  14
HETATM   14  C   UNL     1     -39.683 -49.761  13.966  1.00  0.00     0.078 C 
HETATM   15  C   UNL     1     -39.408 -48.587  13.006  1.00  0.00     0.014 C 
HETATM   16  C   UNL     1     -38.790 -49.072  11.693  1.00  0.00     0.001 C 
HETATM   17  C   UNL     1     -37.511 -49.870  11.932  1.00  0.00     0.000 C 
HETATM   18  C   UNL     1     -37.716 -51.005  12.933  1.00  0.00     0.001 C 
HETATM   19  C   UNL     1     -38.370 -50.513  14.223  1.00  0.00     0.014 C 
ENDBRANCH   2  14
TORSDOF 4
ENDMDL
MODEL 9
REMARK VINA RESULT:      -4.5      3.068      5.556
REMARK  4 active torsions:
REMARK  status: ('A' for Active; 'I' for Inactive)
REMARK    1  A    between atoms: C_2  and  C_3 
REMARK    2  A    between atoms: C_2  and  N_10 
REMARK    3  A    between atoms: C_3  and  N_4 
REMARK       I    between atoms: N_10  and  C_11 
REMARK    4  A    between atoms: C_11  and  C_13 
ROOT
HETATM    1  N   UNL     1     -42.740 -50.399  12.030  1.00  0.00    -0.355 N 
HETATM    2  C   UNL     1     -41.562 -49.702  12.175  1.00  0.00     0.222 C 
HETATM    3  O   UNL     1     -40.826 -49.893  13.142  1.00  0.00    -0.273 OA
HETATM    4  H   UNL     1     -43.405 -50.102  11.331  1.00  0.00     0.162 HD
ENDROOT
BRANCH   1   5
HETATM    5  C   UNL     1     -43.205 -51.304  13.081  1.00  0.00     0.098 C 
HETATM    6  C   UNL     1     -44.649 -50.966  13.458  1.00  0.00     0.034 C 
BRANCH   5   7
HETATM    7  C   UNL     1     -43.091 -52.779  12.667  1.00  0.00     0.153 C 
BRANCH   7   8
HETATM    8  N   UNL     1     -41.952 -53.462  13.249  1.00  0.00    -0.350 N 
HETATM    9  C   UNL     1     -41.873 -53.963  14.519  1.00  0.00     0.108 A 
HETATM   10  C   UNL     1     -40.607 -54.491  14.613  1.00  0.00     0.106 A 
HETATM   11  N   UNL     1     -39.919 -54.312  13.442  1.00  0.00    -0.361 N 
HETATM   12  C   UNL     1     -40.752 -53.689  12.639  1.00  0.00     0.182 A 
ATOM     13  HN  UNL     1     -38.963 -54.602  13.237  1.00  0.00     0.166 HD
ENDBRANCH   7   8
ENDBRANCH   5   7
ENDBRANCH   1   5
BRANCH   2  14
HETATM   14  C   UNL     1     -41.162 -48.754  11.032  1.00  0.00     0.078 C 
HETATM   15  C   UNL     1     -40.223 -47.662  11.581  1.00  0.00     0.014 C 
HETATM   16  C   UNL     1     -40.979 -46.671  12.470  1.00  0.00     0.001 C 
HETATM   17  C   UNL     1     -42.156 -46.036  11.734  1.00  0.00     0.000 C 
HETATM   18  C   UNL     1     -43.079 -47.080  11.110  1.00  0.00     0.001 C 
HETATM   19  C   UNL     1     -42.306 -48.085  10.258  1.00  0.00     0.014 C 
ENDBRANCH   2  14
TORSDOF 4
ENDMDL
