MODEL 1
REMARK VINA RESULT:      -7.2      0.000      0.000
REMARK  5 active torsions:
REMARK  status: ('A' for Active; 'I' for Inactive)
REMARK    1  A    between atoms: C_4  and  N_5 
REMARK       I    between atoms: N_5  and  C_6 
REMARK       I    between atoms: C_6  and  N_8 
REMARK    2  A    between atoms: N_8  and  C_9 
REMARK    3  A    between atoms: C_9  and  C_14 
REMARK       I    between atoms: C_14  and  N_16 
REMARK    4  A    between atoms: N_16  and  C_17 
REMARK    5  A    between atoms: C_17  and  C_18 
ROOT
HETATM    1  N   UNL     1     -42.759 -52.501  11.887  1.00  0.00    -0.314 N 
HETATM    2  C   UNL     1     -41.850 -51.593  12.380  1.00  0.00     0.299 C 
HETATM    3  O   UNL     1     -41.851 -51.146  13.523  1.00  0.00    -0.254 OA
HETATM    4  N   UNL     1     -40.895 -51.229  11.444  1.00  0.00    -0.226 NA
HETATM    5  H   UNL     1     -42.423 -53.093  11.141  1.00  0.00     0.170 HD
HETATM    6  H   UNL     1     -41.311 -51.090  10.530  1.00  0.00     0.133 HD
ENDROOT
BRANCH   4   7
HETATM    7  C   UNL     1     -39.952 -50.152  11.835  1.00  0.00     0.100 C 
HETATM    8  C   UNL     1     -38.718 -50.121  10.915  1.00  0.00     0.035 C 
HETATM    9  C   UNL     1     -37.528 -49.691  11.778  1.00  0.00     0.002 C 
HETATM   10  C   UNL     1     -37.961 -49.790  13.231  1.00  0.00     0.002 C 
HETATM   11  C   UNL     1     -39.332 -50.443  13.214  1.00  0.00     0.035 C 
BRANCH   7  12
HETATM   12  C   UNL     1     -40.743 -48.811  11.639  1.00  0.00     0.241 C 
HETATM   13  O   UNL     1     -40.920 -48.039  12.587  1.00  0.00    -0.271 OA
HETATM   14  N   UNL     1     -41.352 -48.594  10.425  1.00  0.00    -0.359 N 
HETATM   15  H   UNL     1     -41.143 -49.187   9.640  1.00  0.00     0.162 HD
BRANCH  14  16
HETATM   16  C   UNL     1     -42.022 -47.342  10.159  1.00  0.00     0.127 C 
BRANCH  16  17
HETATM   17  C   UNL     1     -43.343 -47.612   9.512  1.00  0.00     0.003 A 
HETATM   18  C   UNL     1     -43.457 -47.703   8.011  1.00  0.00     0.007 A 
HETATM   19  C   UNL     1     -44.055 -46.531   8.737  1.00  0.00     0.007 A 
ENDBRANCH  16  17
ENDBRANCH  14  16
ENDBRANCH   7  12
ENDBRANCH   4   7
BRANCH   1  20
HETATM   20  C   UNL     1     -43.922 -52.904  12.588  1.00  0.00     0.039 A 
HETATM   21  C   UNL     1     -44.837 -51.983  13.104  1.00  0.00     0.054 A 
HETATM   22  C   UNL     1     -45.943 -52.437  13.815  1.00  0.00     0.007 A 
HETATM   23  C   UNL     1     -46.934 -51.461  14.377  1.00  0.00     0.068 C 
HETATM   24  N   UNL     1     -46.187 -53.752  14.011  1.00  0.00    -0.369 N 
HETATM   25  C   UNL     1     -45.305 -54.628  13.480  1.00  0.00     0.090 A 
ATOM     26  HN  UNL     1     -47.001 -54.070  14.537  1.00  0.00     0.165 HD
HETATM   27  C   UNL     1     -44.178 -54.259  12.757  1.00  0.00     0.046 A 
ENDBRANCH   1  20
TORSDOF 5
ENDMDL
MODEL 2
REMARK VINA RESULT:      -7.2      1.924      5.776
REMARK  5 active torsions:
REMARK  status: ('A' for Active; 'I' for Inactive)
REMARK    1  A    between atoms: C_4  and  N_5 
REMARK       I    between atoms: N_5  and  C_6 
REMARK       I    between atoms: C_6  and  N_8 
REMARK    2  A    between atoms: N_8  and  C_9 
REMARK    3  A    between atoms: C_9  and  C_14 
REMARK       I    between atoms: C_14  and  N_16 
REMARK    4  A    between atoms: N_16  and  C_17 
REMARK    5  A    between atoms: C_17  and  C_18 
ROOT
HETATM    1  N   UNL     1     -42.145 -48.217   9.451  1.00  0.00    -0.314 N 
HETATM    2  C   UNL     1     -41.657 -48.621  10.672  1.00  0.00     0.299 C 
HETATM    3  O   UNL     1     -42.210 -48.430  11.751  1.00  0.00    -0.254 OA
HETATM    4  N   UNL     1     -40.453 -49.300  10.570  1.00  0.00    -0.226 NA
HETATM    5  H   UNL     1     -41.861 -48.778   8.660  1.00  0.00     0.170 HD
HETATM    6  H   UNL     1     -39.839 -48.858   9.895  1.00  0.00     0.133 HD
ENDROOT
BRANCH   4   7
HETATM    7  C   UNL     1     -39.776 -49.658  11.841  1.00  0.00     0.100 C 
HETATM    8  C   UNL     1     -40.240 -48.758  13.001  1.00  0.00     0.035 C 
HETATM    9  C   UNL     1     -39.035 -48.564  13.926  1.00  0.00     0.002 C 
HETATM   10  C   UNL     1     -37.804 -49.046  13.176  1.00  0.00     0.002 C 
HETATM   11  C   UNL     1     -38.270 -49.349  11.763  1.00  0.00     0.035 C 
BRANCH   7  12
HETATM   12  C   UNL     1     -40.223 -51.129  12.153  1.00  0.00     0.241 C 
HETATM   13  O   UNL     1     -39.406 -51.964  12.555  1.00  0.00    -0.271 OA
HETATM   14  N   UNL     1     -41.508 -51.494  11.831  1.00  0.00    -0.359 N 
HETATM   15  H   UNL     1     -42.185 -50.795  11.575  1.00  0.00     0.162 HD
BRANCH  14  16
HETATM   16  C   UNL     1     -42.001 -52.809  12.172  1.00  0.00     0.127 C 
BRANCH  16  17
HETATM   17  C   UNL     1     -43.270 -52.677  12.953  1.00  0.00     0.003 A 
HETATM   18  C   UNL     1     -43.779 -53.826  13.787  1.00  0.00     0.007 A 
HETATM   19  C   UNL     1     -44.510 -53.429  12.536  1.00  0.00     0.007 A 
ENDBRANCH  16  17
ENDBRANCH  14  16
ENDBRANCH   7  12
ENDBRANCH   4   7
BRANCH   1  20
HETATM   20  C   UNL     1     -43.269 -47.368   9.299  1.00  0.00     0.039 A 
HETATM   21  C   UNL     1     -44.574 -47.861   9.256  1.00  0.00     0.054 A 
HETATM   22  C   UNL     1     -45.636 -46.981   9.068  1.00  0.00     0.007 A 
HETATM   23  C   UNL     1     -47.044 -47.495   9.018  1.00  0.00     0.068 C 
HETATM   24  N   UNL     1     -45.456 -45.647   8.947  1.00  0.00    -0.369 N 
HETATM   25  C   UNL     1     -44.188 -45.187   9.019  1.00  0.00     0.090 A 
ATOM     26  HN  UNL     1     -46.245 -45.015   8.807  1.00  0.00     0.165 HD
HETATM   27  C   UNL     1     -43.074 -45.995   9.205  1.00  0.00     0.046 A 
ENDBRANCH   1  20
TORSDOF 5
ENDMDL
MODEL 3
REMARK VINA RESULT:      -6.9      3.024      5.561
REMARK  5 active torsions:
REMARK  status: ('A' for Active; 'I' for Inactive)
REMARK    1  A    between atoms: C_4  and  N_5 
REMARK       I    between atoms: N_5  and  C_6 
REMARK       I    between atoms: C_6  and  N_8 
REMARK    2  A    between atoms: N_8  and  C_9 
REMARK    3  A    between atoms: C_9  and  C_14 
REMARK       I    between atoms: C_14  and  N_16 
REMARK    4  A    between atoms: N_16  and  C_17 
REMARK    5  A    between atoms: C_17  and  C_18 
ROOT
HETATM    1  N   UNL     1     -40.325 -50.101  10.828  1.00  0.00    -0.314 N 
HETATM    2  C   UNL     1     -41.253 -49.088  10.904  1.00  0.00     0.299 C 
HETATM    3  O   UNL     1     -41.761 -48.675  11.942  1.00  0.00    -0.254 OA
HETATM    4  N   UNL     1     -41.560 -48.548   9.666  1.00  0.00    -0.226 NA
HETATM    5  H   UNL     1     -39.691 -50.054  10.043  1.00  0.00     0.170 HD
HETATM    6  H   UNL     1     -41.651 -49.273   8.962  1.00  0.00     0.133 HD
ENDROOT
BRANCH   4   7
HETATM    7  C   UNL     1     -42.651 -47.543   9.625  1.00  0.00     0.100 C 
HETATM    8  C   UNL     1     -43.747 -47.857  10.660  1.00  0.00     0.035 C 
HETATM    9  C   UNL     1     -45.080 -47.416  10.047  1.00  0.00     0.002 C 
HETATM   10  C   UNL     1     -44.838 -47.162   8.569  1.00  0.00     0.002 C 
HETATM   11  C   UNL     1     -43.419 -47.625   8.293  1.00  0.00     0.035 C 
BRANCH   7  12
HETATM   12  C   UNL     1     -41.980 -46.181  10.019  1.00  0.00     0.241 C 
HETATM   13  O   UNL     1     -42.640 -45.137  10.043  1.00  0.00    -0.271 OA
HETATM   14  N   UNL     1     -40.617 -46.162  10.195  1.00  0.00    -0.359 N 
HETATM   15  H   UNL     1     -40.100 -47.023  10.247  1.00  0.00     0.162 HD
BRANCH  14  16
HETATM   16  C   UNL     1     -39.955 -44.957  10.641  1.00  0.00     0.127 C 
BRANCH  16  17
HETATM   17  C   UNL     1     -39.871 -44.958  12.134  1.00  0.00     0.003 A 
HETATM   18  C   UNL     1     -40.252 -43.731  12.924  1.00  0.00     0.007 A 
HETATM   19  C   UNL     1     -38.812 -44.153  12.845  1.00  0.00     0.007 A 
ENDBRANCH  16  17
ENDBRANCH  14  16
ENDBRANCH   7  12
ENDBRANCH   4   7
BRANCH   1  20
HETATM   20  C   UNL     1     -39.968 -50.920  11.927  1.00  0.00     0.039 A 
HETATM   21  C   UNL     1     -40.691 -52.064  12.270  1.00  0.00     0.054 A 
HETATM   22  C   UNL     1     -40.314 -52.810  13.382  1.00  0.00     0.007 A 
HETATM   23  C   UNL     1     -41.082 -54.041  13.763  1.00  0.00     0.068 C 
HETATM   24  N   UNL     1     -39.247 -52.482  14.145  1.00  0.00    -0.369 N 
HETATM   25  C   UNL     1     -38.544 -51.387  13.781  1.00  0.00     0.090 A 
ATOM     26  HN  UNL     1     -38.985 -53.037  14.959  1.00  0.00     0.165 HD
HETATM   27  C   UNL     1     -38.851 -50.589  12.686  1.00  0.00     0.046 A 
ENDBRANCH   1  20
TORSDOF 5
ENDMDL
MODEL 4
REMARK VINA RESULT:      -6.7      2.099      3.335
REMARK  5 active torsions:
REMARK  status: ('A' for Active; 'I' for Inactive)
REMARK    1  A    between atoms: C_4  and  N_5 
REMARK       I    between atoms: N_5  and  C_6 
REMARK       I    between atoms: C_6  and  N_8 
REMARK    2  A    between atoms: N_8  and  C_9 
REMARK    3  A    between atoms: C_9  and  C_14 
REMARK       I    between atoms: C_14  and  N_16 
REMARK    4  A    between atoms: N_16  and  C_17 
REMARK    5  A    between atoms: C_17  and  C_18 
ROOT
HETATM    1  N   UNL     1     -40.903 -50.900  11.336  1.00  0.00    -0.314 N 
HETATM    2  C   UNL     1     -41.061 -49.609  11.783  1.00  0.00     0.299 C 
HETATM    3  O   UNL     1     -41.416 -49.294  12.915  1.00  0.00    -0.254 OA
HETATM    4  N   UNL     1     -40.758 -48.666  10.814  1.00  0.00    -0.226 NA
HETATM    5  H   UNL     1     -40.228 -51.027  10.596  1.00  0.00     0.170 HD
HETATM    6  H   UNL     1     -41.121 -48.941   9.908  1.00  0.00     0.133 HD
ENDROOT
BRANCH   4   7
HETATM    7  C   UNL     1     -41.027 -47.247  11.154  1.00  0.00     0.100 C 
HETATM    8  C   UNL     1     -39.899 -46.324  10.660  1.00  0.00     0.035 C 
HETATM    9  C   UNL     1     -39.770 -45.189  11.681  1.00  0.00     0.002 C 
HETATM   10  C   UNL     1     -40.557 -45.597  12.915  1.00  0.00     0.002 C 
HETATM   11  C   UNL     1     -40.988 -47.034  12.678  1.00  0.00     0.035 C 
BRANCH   7  12
HETATM   12  C   UNL     1     -42.340 -46.873  10.380  1.00  0.00     0.241 C 
HETATM   13  O   UNL     1     -43.082 -45.976  10.793  1.00  0.00    -0.271 OA
HETATM   14  N   UNL     1     -42.710 -47.665   9.319  1.00  0.00    -0.359 N 
HETATM   15  H   UNL     1     -42.068 -48.343   8.944  1.00  0.00     0.162 HD
BRANCH  14  16
HETATM   16  C   UNL     1     -43.861 -47.321   8.518  1.00  0.00     0.127 C 
BRANCH  16  17
HETATM   17  C   UNL     1     -45.109 -47.675   9.261  1.00  0.00     0.003 A 
HETATM   18  C   UNL     1     -46.283 -48.290   8.540  1.00  0.00     0.007 A 
HETATM   19  C   UNL     1     -46.377 -46.882   9.057  1.00  0.00     0.007 A 
ENDBRANCH  16  17
ENDBRANCH  14  16
ENDBRANCH   7  12
ENDBRANCH   4   7
BRANCH   1  20
HETATM   20  C   UNL     1     -41.303 -52.040  12.077  1.00  0.00     0.039 A 
HETATM   21  C   UNL     1     -42.629 -52.475  12.116  1.00  0.00     0.054 A 
HETATM   22  C   UNL     1     -42.969 -53.580  12.891  1.00  0.00     0.007 A 
HETATM   23  C   UNL     1     -44.389 -54.059  12.943  1.00  0.00     0.068 C 
HETATM   24  N   UNL     1     -42.052 -54.275  13.600  1.00  0.00    -0.369 N 
HETATM   25  C   UNL     1     -40.770 -53.854  13.528  1.00  0.00     0.090 A 
ATOM     26  HN  UNL     1     -42.316 -55.081  14.166  1.00  0.00     0.165 HD
HETATM   27  C   UNL     1     -40.346 -52.764  12.779  1.00  0.00     0.046 A 
ENDBRANCH   1  20
TORSDOF 5
ENDMDL
MODEL 5
REMARK VINA RESULT:      -6.7      2.159      7.281
REMARK  5 active torsions:
REMARK  status: ('A' for Active; 'I' for Inactive)
REMARK    1  A    between atoms: C_4  and  N_5 
REMARK       I    between atoms: N_5  and  C_6 
REMARK       I    between atoms: C_6  and  N_8 
REMARK    2  A    between atoms: N_8  and  C_9 
REMARK    3  A    between atoms: C_9  and  C_14 
REMARK       I    between atoms: C_14  and  N_16 
REMARK    4  A    between atoms: N_16  and  C_17 
REMARK    5  A    between atoms: C_17  and  C_18 
ROOT
HETATM    1  N   UNL     1     -42.750 -49.624  11.808  1.00  0.00    -0.314 N 
HETATM    2  C   UNL     1     -43.263 -50.198  12.948  1.00  0.00     0.299 C 
HETATM    3  O   UNL     1     -42.693 -50.238  14.034  1.00  0.00    -0.254 OA
HETATM    4  N   UNL     1     -44.527 -50.731  12.756  1.00  0.00    -0.226 NA
HETATM    5  H   UNL     1     -43.432 -49.275  11.149  1.00  0.00     0.170 HD
HETATM    6  H   UNL     1     -44.591 -51.215  11.867  1.00  0.00     0.133 HD
ENDROOT
BRANCH   4   7
HETATM    7  C   UNL     1     -45.111 -51.493  13.888  1.00  0.00     0.100 C 
HETATM    8  C   UNL     1     -46.645 -51.571  13.785  1.00  0.00     0.035 C 
HETATM    9  C   UNL     1     -47.190 -51.551  15.216  1.00  0.00     0.002 C 
HETATM   10  C   UNL     1     -46.051 -51.133  16.131  1.00  0.00     0.002 C 
HETATM   11  C   UNL     1     -44.905 -50.741  15.216  1.00  0.00     0.035 C 
BRANCH   7  12
HETATM   12  C   UNL     1     -44.536 -52.947  13.754  1.00  0.00     0.241 C 
HETATM   13  O   UNL     1     -45.060 -53.764  12.989  1.00  0.00    -0.271 OA
HETATM   14  N   UNL     1     -43.531 -53.324  14.613  1.00  0.00    -0.359 N 
HETATM   15  H   UNL     1     -43.062 -52.636  15.178  1.00  0.00     0.162 HD
BRANCH  14  16
HETATM   16  C   UNL     1     -42.906 -54.619  14.480  1.00  0.00     0.127 C 
BRANCH  16  17
HETATM   17  C   UNL     1     -41.430 -54.445  14.313  1.00  0.00     0.003 A 
HETATM   18  C   UNL     1     -40.855 -53.104  13.930  1.00  0.00     0.007 A 
HETATM   19  C   UNL     1     -40.831 -54.238  12.944  1.00  0.00     0.007 A 
ENDBRANCH  16  17
ENDBRANCH  14  16
ENDBRANCH   7  12
ENDBRANCH   4   7
BRANCH   1  20
HETATM   20  C   UNL     1     -41.416 -49.158  11.698  1.00  0.00     0.039 A 
HETATM   21  C   UNL     1     -40.319 -50.019  11.758  1.00  0.00     0.054 A 
HETATM   22  C   UNL     1     -39.030 -49.500  11.680  1.00  0.00     0.007 A 
HETATM   23  C   UNL     1     -37.842 -50.412  11.744  1.00  0.00     0.068 C 
HETATM   24  N   UNL     1     -38.792 -48.178  11.524  1.00  0.00    -0.369 N 
HETATM   25  C   UNL     1     -39.867 -47.364  11.441  1.00  0.00     0.090 A 
ATOM     26  HN  UNL     1     -37.842 -47.812  11.472  1.00  0.00     0.165 HD
HETATM   27  C   UNL     1     -41.184 -47.801  11.508  1.00  0.00     0.046 A 
ENDBRANCH   1  20
TORSDOF 5
ENDMDL
MODEL 6
REMARK VINA RESULT:      -6.6      2.110      6.185
REMARK  5 active torsions:
REMARK  status: ('A' for Active; 'I' for Inactive)
REMARK    1  A    between atoms: C_4  and  N_5 
REMARK       I    between atoms: N_5  and  C_6 
REMARK       I    between atoms: C_6  and  N_8 
REMARK    2  A    between atoms: N_8  and  C_9 
REMARK    3  A    between atoms: C_9  and  C_14 
REMARK       I    between atoms: C_14  and  N_16 
REMARK    4  A    between atoms: N_16  and  C_17 
REMARK    5  A    between atoms: C_17  and  C_18 
ROOT
HETATM    1  N   UNL     1     -40.675 -50.245  11.044  1.00  0.00    -0.314 N 
HETATM    2  C   UNL     1     -41.072 -50.928  12.170  1.00  0.00     0.299 C 
HETATM    3  O   UNL     1     -41.744 -50.455  13.081  1.00  0.00    -0.254 OA
HETATM    4  N   UNL     1     -40.645 -52.247  12.175  1.00  0.00    -0.226 NA
HETATM    5  H   UNL     1     -40.528 -50.810  10.219  1.00  0.00     0.170 HD
HETATM    6  H   UNL     1     -39.691 -52.325  11.840  1.00  0.00     0.133 HD
ENDROOT
BRANCH   4   7
HETATM    7  C   UNL     1     -40.905 -53.030  13.408  1.00  0.00     0.100 C 
HETATM    8  C   UNL     1     -40.488 -52.252  14.670  1.00  0.00     0.035 C 
HETATM    9  C   UNL     1     -39.978 -53.283  15.682  1.00  0.00     0.002 C 
HETATM   10  C   UNL     1     -39.776 -54.591  14.936  1.00  0.00     0.002 C 
HETATM   11  C   UNL     1     -39.997 -54.271  13.468  1.00  0.00     0.035 C 
BRANCH   7  12
HETATM   12  C   UNL     1     -42.460 -53.237  13.452  1.00  0.00     0.241 C 
HETATM   13  O   UNL     1     -43.040 -53.849  12.549  1.00  0.00    -0.271 OA
HETATM   14  N   UNL     1     -43.167 -52.598  14.443  1.00  0.00    -0.359 N 
HETATM   15  H   UNL     1     -42.685 -52.166  15.213  1.00  0.00     0.162 HD
BRANCH  14  16
HETATM   16  C   UNL     1     -44.588 -52.820  14.584  1.00  0.00     0.127 C 
BRANCH  16  17
HETATM   17  C   UNL     1     -45.324 -51.563  14.243  1.00  0.00     0.003 A 
HETATM   18  C   UNL     1     -46.767 -51.386  14.646  1.00  0.00     0.007 A 
HETATM   19  C   UNL     1     -46.412 -51.570  13.197  1.00  0.00     0.007 A 
ENDBRANCH  16  17
ENDBRANCH  14  16
ENDBRANCH   7  12
ENDBRANCH   4   7
BRANCH   1  20
HETATM   20  C   UNL     1     -40.843 -48.848  10.875  1.00  0.00     0.039 A 
HETATM   21  C   UNL     1     -41.958 -48.304  10.236  1.00  0.00     0.054 A 
HETATM   22  C   UNL     1     -42.050 -46.925  10.068  1.00  0.00     0.007 A 
HETATM   23  C   UNL     1     -43.242 -46.325   9.382  1.00  0.00     0.068 C 
HETATM   24  N   UNL     1     -41.103 -46.077  10.524  1.00  0.00    -0.369 N 
HETATM   25  C   UNL     1     -40.045 -46.621  11.164  1.00  0.00     0.090 A 
ATOM     26  HN  UNL     1     -41.183 -45.069  10.391  1.00  0.00     0.165 HD
HETATM   27  C   UNL     1     -39.876 -47.984  11.375  1.00  0.00     0.046 A 
ENDBRANCH   1  20
TORSDOF 5
ENDMDL
MODEL 7
REMARK VINA RESULT:      -6.5      2.097      6.568
REMARK  5 active torsions:
REMARK  status: ('A' for Active; 'I' for Inactive)
REMARK    1  A    between atoms: C_4  and  N_5 
REMARK       I    between atoms: N_5  and  C_6 
REMARK       I    between atoms: C_6  and  N_8 
REMARK    2  A    between atoms: N_8  and  C_9 
REMARK    3  A    between atoms: C_9  and  C_14 
REMARK       I    between atoms: C_14  and  N_16 
REMARK    4  A    between atoms: N_16  and  C_17 
REMARK    5  A    between atoms: C_17  and  C_18 
ROOT
HETATM    1  N   UNL     1     -41.527 -49.587  11.021  1.00  0.00    -0.314 N 
HETATM    2  C   UNL     1     -42.043 -50.348  12.044  1.00  0.00     0.299 C 
HETATM    3  O   UNL     1     -42.562 -49.901  13.062  1.00  0.00    -0.254 OA
HETATM    4  N   UNL     1     -41.936 -51.709  11.805  1.00  0.00    -0.226 NA
HETATM    5  H   UNL     1     -41.537 -50.018  10.108  1.00  0.00     0.170 HD
HETATM    6  H   UNL     1     -41.036 -51.941  11.400  1.00  0.00     0.133 HD
ENDROOT
BRANCH   4   7
HETATM    7  C   UNL     1     -42.340 -52.616  12.908  1.00  0.00     0.100 C 
HETATM    8  C   UNL     1     -42.134 -51.958  14.285  1.00  0.00     0.035 C 
HETATM    9  C   UNL     1     -41.735 -53.072  15.257  1.00  0.00     0.002 C 
HETATM   10  C   UNL     1     -41.383 -54.295  14.428  1.00  0.00     0.002 C 
HETATM   11  C   UNL     1     -41.405 -53.837  12.980  1.00  0.00     0.035 C 
BRANCH   7  12
HETATM   12  C   UNL     1     -43.877 -52.861  12.707  1.00  0.00     0.241 C 
HETATM   13  O   UNL     1     -44.291 -53.942  12.276  1.00  0.00    -0.271 OA
HETATM   14  N   UNL     1     -44.727 -51.796  12.887  1.00  0.00    -0.359 N 
HETATM   15  H   UNL     1     -44.394 -50.945  13.307  1.00  0.00     0.162 HD
BRANCH  14  16
HETATM   16  C   UNL     1     -46.157 -51.982  12.798  1.00  0.00     0.127 C 
BRANCH  16  17
HETATM   17  C   UNL     1     -46.808 -51.428  14.025  1.00  0.00     0.003 A 
HETATM   18  C   UNL     1     -46.023 -51.264  15.303  1.00  0.00     0.007 A 
HETATM   19  C   UNL     1     -47.093 -52.315  15.212  1.00  0.00     0.007 A 
ENDBRANCH  16  17
ENDBRANCH  14  16
ENDBRANCH   7  12
ENDBRANCH   4   7
BRANCH   1  20
HETATM   20  C   UNL     1     -41.367 -48.181  11.095  1.00  0.00     0.039 A 
HETATM   21  C   UNL     1     -40.440 -47.580  11.948  1.00  0.00     0.054 A 
HETATM   22  C   UNL     1     -40.354 -46.193  12.004  1.00  0.00     0.007 A 
HETATM   23  C   UNL     1     -39.363 -45.532  12.917  1.00  0.00     0.068 C 
HETATM   24  N   UNL     1     -41.126 -45.389  11.239  1.00  0.00    -0.369 N 
HETATM   25  C   UNL     1     -41.997 -45.990  10.400  1.00  0.00     0.090 A 
ATOM     26  HN  UNL     1     -41.053 -44.373  11.293  1.00  0.00     0.165 HD
HETATM   27  C   UNL     1     -42.146 -47.366  10.282  1.00  0.00     0.046 A 
ENDBRANCH   1  20
TORSDOF 5
ENDMDL
MODEL 8
REMARK VINA RESULT:      -6.4      2.343      2.966
REMARK  5 active torsions:
REMARK  status: ('A' for Active; 'I' for Inactive)
REMARK    1  A    between atoms: C_4  and  N_5 
REMARK       I    between atoms: N_5  and  C_6 
REMARK       I    between atoms: C_6  and  N_8 
REMARK    2  A    between atoms: N_8  and  C_9 
REMARK    3  A    between atoms: C_9  and  C_14 
REMARK       I    between atoms: C_14  and  N_16 
REMARK    4  A    between atoms: N_16  and  C_17 
REMARK    5  A    between atoms: C_17  and  C_18 
ROOT
HETATM    1  N   UNL     1     -42.805 -52.375  11.906  1.00  0.00    -0.314 N 
HETATM    2  C   UNL     1     -41.722 -51.788  12.518  1.00  0.00     0.299 C 
HETATM    3  O   UNL     1     -41.541 -51.734  13.731  1.00  0.00    -0.254 OA
HETATM    4  N   UNL     1     -40.816 -51.261  11.612  1.00  0.00    -0.226 NA
HETATM    5  H   UNL     1     -42.641 -52.733  10.977  1.00  0.00     0.170 HD
HETATM    6  H   UNL     1     -41.290 -50.789  10.851  1.00  0.00     0.133 HD
ENDROOT
BRANCH   4   7
HETATM    7  C   UNL     1     -39.681 -50.487  12.173  1.00  0.00     0.100 C 
HETATM    8  C   UNL     1     -38.747 -49.969  11.064  1.00  0.00     0.035 C 
HETATM    9  C   UNL     1     -37.325 -49.984  11.634  1.00  0.00     0.002 C 
HETATM   10  C   UNL     1     -37.358 -50.798  12.916  1.00  0.00     0.002 C 
HETATM   11  C   UNL     1     -38.750 -51.400  12.992  1.00  0.00     0.035 C 
BRANCH   7  12
HETATM   12  C   UNL     1     -40.330 -49.249  12.884  1.00  0.00     0.241 C 
HETATM   13  O   UNL     1     -40.832 -48.333  12.224  1.00  0.00    -0.271 OA
HETATM   14  N   UNL     1     -40.195 -49.146  14.248  1.00  0.00    -0.359 N 
HETATM   15  H   UNL     1     -39.853 -49.926  14.785  1.00  0.00     0.162 HD
BRANCH  14  16
HETATM   16  C   UNL     1     -40.843 -48.074  14.967  1.00  0.00     0.127 C 
BRANCH  16  17
HETATM   17  C   UNL     1     -41.910 -48.639  15.850  1.00  0.00     0.003 A 
HETATM   18  C   UNL     1     -43.221 -49.105  15.267  1.00  0.00     0.007 A 
HETATM   19  C   UNL     1     -43.178 -47.866  16.116  1.00  0.00     0.007 A 
ENDBRANCH  16  17
ENDBRANCH  14  16
ENDBRANCH   7  12
ENDBRANCH   4   7
BRANCH   1  20
HETATM   20  C   UNL     1     -43.945 -52.838  12.609  1.00  0.00     0.039 A 
HETATM   21  C   UNL     1     -44.866 -51.966  13.192  1.00  0.00     0.054 A 
HETATM   22  C   UNL     1     -45.948 -52.479  13.901  1.00  0.00     0.007 A 
HETATM   23  C   UNL     1     -46.945 -51.555  14.534  1.00  0.00     0.068 C 
HETATM   24  N   UNL     1     -46.160 -53.808  14.033  1.00  0.00    -0.369 N 
HETATM   25  C   UNL     1     -45.273 -54.635  13.438  1.00  0.00     0.090 A 
ATOM     26  HN  UNL     1     -46.956 -54.169  14.558  1.00  0.00     0.165 HD
HETATM   27  C   UNL     1     -44.169 -54.206  12.713  1.00  0.00     0.046 A 
ENDBRANCH   1  20
TORSDOF 5
ENDMDL
MODEL 9
REMARK VINA RESULT:      -6.4      2.530      6.411
REMARK  5 active torsions:
REMARK  status: ('A' for Active; 'I' for Inactive)
REMARK    1  A    between atoms: C_4  and  N_5 
REMARK       I    between atoms: N_5  and  C_6 
REMARK       I    between atoms: C_6  and  N_8 
REMARK    2  A    between atoms: N_8  and  C_9 
REMARK    3  A    between atoms: C_9  and  C_14 
REMARK       I    between atoms: C_14  and  N_16 
REMARK    4  A    between atoms: N_16  and  C_17 
REMARK    5  A    between atoms: C_17  and  C_18 
ROOT
HETATM    1  N   UNL     1     -41.239 -49.343  10.563  1.00  0.00    -0.314 N 
HETATM    2  C   UNL     1     -41.388 -50.057  11.730  1.00  0.00     0.299 C 
HETATM    3  O   UNL     1     -41.924 -49.635  12.750  1.00  0.00    -0.254 OA
HETATM    4  N   UNL     1     -40.875 -51.341  11.641  1.00  0.00    -0.226 NA
HETATM    5  H   UNL     1     -41.197 -49.894   9.717  1.00  0.00     0.170 HD
HETATM    6  H   UNL     1     -39.990 -51.350  11.147  1.00  0.00     0.133 HD
ENDROOT
BRANCH   4   7
HETATM    7  C   UNL     1     -40.865 -52.145  12.889  1.00  0.00     0.100 C 
HETATM    8  C   UNL     1     -40.753 -53.651  12.589  1.00  0.00     0.035 C 
HETATM    9  C   UNL     1     -41.561 -54.381  13.667  1.00  0.00     0.002 C 
HETATM   10  C   UNL     1     -42.404 -53.342  14.385  1.00  0.00     0.002 C 
HETATM   11  C   UNL     1     -42.221 -52.049  13.611  1.00  0.00     0.035 C 
BRANCH   7  12
HETATM   12  C   UNL     1     -39.572 -51.702  13.661  1.00  0.00     0.241 C 
HETATM   13  O   UNL     1     -38.481 -52.225  13.415  1.00  0.00    -0.271 OA
HETATM   14  N   UNL     1     -39.718 -50.825  14.709  1.00  0.00    -0.359 N 
HETATM   15  H   UNL     1     -40.592 -50.349  14.855  1.00  0.00     0.162 HD
BRANCH  14  16
HETATM   16  C   UNL     1     -38.557 -50.317  15.402  1.00  0.00     0.127 C 
BRANCH  16  17
HETATM   17  C   UNL     1     -38.405 -48.857  15.115  1.00  0.00     0.003 A 
HETATM   18  C   UNL     1     -37.823 -48.389  13.804  1.00  0.00     0.007 A 
HETATM   19  C   UNL     1     -37.038 -48.219  15.074  1.00  0.00     0.007 A 
ENDBRANCH  16  17
ENDBRANCH  14  16
ENDBRANCH   7  12
ENDBRANCH   4   7
BRANCH   1  20
HETATM   20  C   UNL     1     -41.529 -47.961  10.447  1.00  0.00     0.039 A 
HETATM   21  C   UNL     1     -42.682 -47.493   9.813  1.00  0.00     0.054 A 
HETATM   22  C   UNL     1     -42.896 -46.123   9.699  1.00  0.00     0.007 A 
HETATM   23  C   UNL     1     -44.129 -45.604   9.019  1.00  0.00     0.068 C 
HETATM   24  N   UNL     1     -42.034 -45.212  10.202  1.00  0.00    -0.369 N 
HETATM   25  C   UNL     1     -40.939 -45.685  10.836  1.00  0.00     0.090 A 
ATOM     26  HN  UNL     1     -42.203 -44.211  10.108  1.00  0.00     0.165 HD
HETATM   27  C   UNL     1     -40.650 -47.035  10.995  1.00  0.00     0.046 A 
ENDBRANCH   1  20
TORSDOF 5
ENDMDL
