MODEL 1
REMARK VINA RESULT:      -5.6      0.000      0.000
REMARK  2 active torsions:
REMARK  status: ('A' for Active; 'I' for Inactive)
REMARK    1  A    between atoms: C_6  and  N_7 
REMARK    2  A    between atoms: N_7  and  C_8 
ROOT
HETATM    1  N   UNL     1     -48.391 -51.270  17.315  1.00  0.00    -0.191 NA
HETATM    2  C   UNL     1     -47.577 -51.315  16.486  1.00  0.00     0.101 C 
HETATM    3  C   UNL     1     -46.574 -51.365  15.470  1.00  0.00     0.060 A 
HETATM    4  C   UNL     1     -46.885 -51.609  14.131  1.00  0.00     0.028 A 
HETATM    5  C   UNL     1     -45.858 -51.645  13.176  1.00  0.00     0.050 A 
HETATM    6  C   UNL     1     -44.554 -51.423  13.582  1.00  0.00     0.101 A 
HETATM    7  N   UNL     1     -44.248 -51.177  14.873  1.00  0.00    -0.351 N 
ATOM      8  HN  UNL     1     -43.284 -51.007  15.156  1.00  0.00     0.166 HD
HETATM    9  C   UNL     1     -45.249 -51.160  15.785  1.00  0.00     0.112 A 
ENDROOT
BRANCH   6  10
HETATM   10  N   UNL     1     -43.472 -51.344  12.766  1.00  0.00    -0.369 N 
HETATM   11  H   UNL     1     -43.038 -50.443  12.954  1.00  0.00     0.161 HD
BRANCH  10  12
HETATM   12  C   UNL     1     -42.550 -52.367  12.299  1.00  0.00     0.114 C 
HETATM   13  C   UNL     1     -42.464 -53.709  13.035  1.00  0.00     0.059 C 
HETATM   14  C   UNL     1     -40.958 -53.841  13.321  1.00  0.00     0.124 C 
HETATM   15  C   UNL     1     -40.565 -52.957  14.498  1.00  0.00     0.034 C 
HETATM   16  O   UNL     1     -40.365 -53.113  12.222  1.00  0.00    -0.378 OA
HETATM   17  C   UNL     1     -40.717 -51.562  13.894  1.00  0.00     0.036 C 
HETATM   18  C   UNL     1     -41.087 -51.878  12.435  1.00  0.00     0.144 C 
ENDBRANCH  10  12
ENDBRANCH   6  10
TORSDOF 2
ENDMDL
MODEL 2
REMARK VINA RESULT:      -5.5      3.221      4.384
REMARK  2 active torsions:
REMARK  status: ('A' for Active; 'I' for Inactive)
REMARK    1  A    between atoms: C_6  and  N_7 
REMARK    2  A    between atoms: N_7  and  C_8 
ROOT
HETATM    1  N   UNL     1     -45.867 -55.350  14.055  1.00  0.00    -0.191 NA
HETATM    2  C   UNL     1     -44.906 -54.787  13.722  1.00  0.00     0.101 C 
HETATM    3  C   UNL     1     -43.726 -54.096  13.307  1.00  0.00     0.060 A 
HETATM    4  C   UNL     1     -42.471 -54.376  13.849  1.00  0.00     0.028 A 
HETATM    5  C   UNL     1     -41.348 -53.666  13.401  1.00  0.00     0.050 A 
HETATM    6  C   UNL     1     -41.507 -52.708  12.415  1.00  0.00     0.101 A 
HETATM    7  N   UNL     1     -42.716 -52.439  11.880  1.00  0.00    -0.351 N 
ATOM      8  HN  UNL     1     -42.816 -51.736  11.148  1.00  0.00     0.166 HD
HETATM    9  C   UNL     1     -43.793 -53.122  12.333  1.00  0.00     0.112 A 
ENDROOT
BRANCH   6  10
HETATM   10  N   UNL     1     -40.507 -52.004  11.826  1.00  0.00    -0.369 N 
HETATM   11  H   UNL     1     -40.763 -51.911  10.845  1.00  0.00     0.161 HD
BRANCH  10  12
HETATM   12  C   UNL     1     -39.669 -50.927  12.330  1.00  0.00     0.114 C 
HETATM   13  C   UNL     1     -40.010 -50.258  13.667  1.00  0.00     0.059 C 
HETATM   14  C   UNL     1     -40.047 -48.765  13.297  1.00  0.00     0.124 C 
HETATM   15  C   UNL     1     -41.349 -48.430  12.582  1.00  0.00     0.034 C 
HETATM   16  O   UNL     1     -39.107 -48.690  12.201  1.00  0.00    -0.378 OA
HETATM   17  C   UNL     1     -41.158 -49.148  11.248  1.00  0.00     0.036 C 
HETATM   18  C   UNL     1     -39.731 -49.705  11.381  1.00  0.00     0.144 C 
ENDBRANCH  10  12
ENDBRANCH   6  10
TORSDOF 2
ENDMDL
MODEL 3
REMARK VINA RESULT:      -5.4      6.648      7.865
REMARK  2 active torsions:
REMARK  status: ('A' for Active; 'I' for Inactive)
REMARK    1  A    between atoms: C_6  and  N_7 
REMARK    2  A    between atoms: N_7  and  C_8 
ROOT
HETATM    1  N   UNL     1     -47.145 -47.529   8.794  1.00  0.00    -0.191 NA
HETATM    2  C   UNL     1     -46.039 -47.379   9.122  1.00  0.00     0.101 C 
HETATM    3  C   UNL     1     -44.679 -47.194   9.519  1.00  0.00     0.060 A 
HETATM    4  C   UNL     1     -44.140 -47.829  10.639  1.00  0.00     0.028 A 
HETATM    5  C   UNL     1     -42.797 -47.612  10.980  1.00  0.00     0.050 A 
HETATM    6  C   UNL     1     -42.028 -46.780  10.186  1.00  0.00     0.101 A 
HETATM    7  N   UNL     1     -42.540 -46.171   9.096  1.00  0.00    -0.351 N 
ATOM      8  HN  UNL     1     -41.959 -45.567   8.516  1.00  0.00     0.166 HD
HETATM    9  C   UNL     1     -43.842 -46.379   8.789  1.00  0.00     0.112 A 
ENDROOT
BRANCH   6  10
HETATM   10  N   UNL     1     -40.701 -46.541  10.341  1.00  0.00    -0.369 N 
HETATM   11  H   UNL     1     -40.374 -46.159   9.455  1.00  0.00     0.161 HD
BRANCH  10  12
HETATM   12  C   UNL     1     -39.934 -46.107  11.498  1.00  0.00     0.114 C 
HETATM   13  C   UNL     1     -40.631 -45.943  12.855  1.00  0.00     0.059 C 
HETATM   14  C   UNL     1     -40.243 -44.511  13.262  1.00  0.00     0.124 C 
HETATM   15  C   UNL     1     -41.085 -43.499  12.496  1.00  0.00     0.034 C 
HETATM   16  O   UNL     1     -38.959 -44.339  12.621  1.00  0.00    -0.378 OA
HETATM   17  C   UNL     1     -40.535 -43.654  11.080  1.00  0.00     0.036 C 
HETATM   18  C   UNL     1     -39.398 -44.670  11.283  1.00  0.00     0.144 C 
ENDBRANCH  10  12
ENDBRANCH   6  10
TORSDOF 2
ENDMDL
MODEL 4
REMARK VINA RESULT:      -5.3      3.725      6.148
REMARK  2 active torsions:
REMARK  status: ('A' for Active; 'I' for Inactive)
REMARK    1  A    between atoms: C_6  and  N_7 
REMARK    2  A    between atoms: N_7  and  C_8 
ROOT
HETATM    1  N   UNL     1     -40.756 -44.513  10.532  1.00  0.00    -0.191 NA
HETATM    2  C   UNL     1     -40.713 -45.661  10.711  1.00  0.00     0.101 C 
HETATM    3  C   UNL     1     -40.666 -47.072  10.933  1.00  0.00     0.060 A 
HETATM    4  C   UNL     1     -39.626 -47.678  11.639  1.00  0.00     0.028 A 
HETATM    5  C   UNL     1     -39.634 -49.068  11.827  1.00  0.00     0.050 A 
HETATM    6  C   UNL     1     -40.686 -49.810  11.320  1.00  0.00     0.101 A 
HETATM    7  N   UNL     1     -41.700 -49.228  10.645  1.00  0.00    -0.351 N 
ATOM      8  HN  UNL     1     -42.473 -49.786  10.284  1.00  0.00     0.166 HD
HETATM    9  C   UNL     1     -41.670 -47.887  10.458  1.00  0.00     0.112 A 
ENDROOT
BRANCH   6  10
HETATM   10  N   UNL     1     -40.873 -51.143  11.493  1.00  0.00    -0.369 N 
HETATM   11  H   UNL     1     -40.539 -51.591  10.642  1.00  0.00     0.161 HD
BRANCH  10  12
HETATM   12  C   UNL     1     -40.782 -51.976  12.682  1.00  0.00     0.114 C 
HETATM   13  C   UNL     1     -40.845 -53.502  12.549  1.00  0.00     0.059 C 
HETATM   14  C   UNL     1     -41.961 -53.881  13.538  1.00  0.00     0.124 C 
HETATM   15  C   UNL     1     -43.326 -53.585  12.931  1.00  0.00     0.034 C 
HETATM   16  O   UNL     1     -41.870 -52.834  14.531  1.00  0.00    -0.378 OA
HETATM   17  C   UNL     1     -43.330 -52.057  12.921  1.00  0.00     0.036 C 
HETATM   18  C   UNL     1     -41.996 -51.725  13.611  1.00  0.00     0.144 C 
ENDBRANCH  10  12
ENDBRANCH   6  10
TORSDOF 2
ENDMDL
MODEL 5
REMARK VINA RESULT:      -5.2      2.865      6.022
REMARK  2 active torsions:
REMARK  status: ('A' for Active; 'I' for Inactive)
REMARK    1  A    between atoms: C_6  and  N_7 
REMARK    2  A    between atoms: N_7  and  C_8 
ROOT
HETATM    1  N   UNL     1     -38.067 -49.544  12.270  1.00  0.00    -0.191 NA
HETATM    2  C   UNL     1     -38.932 -50.314  12.374  1.00  0.00     0.101 C 
HETATM    3  C   UNL     1     -39.999 -51.255  12.502  1.00  0.00     0.060 A 
HETATM    4  C   UNL     1     -39.883 -52.408  13.279  1.00  0.00     0.028 A 
HETATM    5  C   UNL     1     -40.966 -53.296  13.370  1.00  0.00     0.050 A 
HETATM    6  C   UNL     1     -42.136 -53.000  12.694  1.00  0.00     0.101 A 
HETATM    7  N   UNL     1     -42.259 -51.881  11.949  1.00  0.00    -0.351 N 
ATOM      8  HN  UNL     1     -43.130 -51.672  11.463  1.00  0.00     0.166 HD
HETATM    9  C   UNL     1     -41.200 -51.042  11.860  1.00  0.00     0.112 A 
ENDROOT
BRANCH   6  10
HETATM   10  N   UNL     1     -43.288 -53.715  12.753  1.00  0.00    -0.369 N 
HETATM   11  H   UNL     1     -43.320 -54.276  11.904  1.00  0.00     0.161 HD
BRANCH  10  12
HETATM   12  C   UNL     1     -43.996 -54.299  13.882  1.00  0.00     0.114 C 
HETATM   13  C   UNL     1     -45.355 -54.976  13.661  1.00  0.00     0.059 C 
HETATM   14  C   UNL     1     -46.253 -54.273  14.692  1.00  0.00     0.124 C 
HETATM   15  C   UNL     1     -46.650 -52.891  14.192  1.00  0.00     0.034 C 
HETATM   16  O   UNL     1     -45.319 -53.927  15.739  1.00  0.00    -0.378 OA
HETATM   17  C   UNL     1     -45.321 -52.144  14.273  1.00  0.00     0.036 C 
HETATM   18  C   UNL     1     -44.393 -53.200  14.898  1.00  0.00     0.144 C 
ENDBRANCH  10  12
ENDBRANCH   6  10
TORSDOF 2
ENDMDL
MODEL 6
REMARK VINA RESULT:      -5.1      6.552      8.605
REMARK  2 active torsions:
REMARK  status: ('A' for Active; 'I' for Inactive)
REMARK    1  A    between atoms: C_6  and  N_7 
REMARK    2  A    between atoms: N_7  and  C_8 
ROOT
HETATM    1  N   UNL     1     -36.864 -51.602  12.362  1.00  0.00    -0.191 NA
HETATM    2  C   UNL     1     -37.660 -50.760  12.261  1.00  0.00     0.101 C 
HETATM    3  C   UNL     1     -38.638 -49.726  12.130  1.00  0.00     0.060 A 
HETATM    4  C   UNL     1     -38.632 -48.592  12.942  1.00  0.00     0.028 A 
HETATM    5  C   UNL     1     -39.617 -47.608  12.767  1.00  0.00     0.050 A 
HETATM    6  C   UNL     1     -40.568 -47.778  11.778  1.00  0.00     0.101 A 
HETATM    7  N   UNL     1     -40.574 -48.868  10.982  1.00  0.00    -0.351 N 
ATOM      8  HN  UNL     1     -41.277 -48.976  10.252  1.00  0.00     0.166 HD
HETATM    9  C   UNL     1     -39.626 -49.816  11.173  1.00  0.00     0.112 A 
ENDROOT
BRANCH   6  10
HETATM   10  N   UNL     1     -41.526 -46.879  11.437  1.00  0.00    -0.369 N 
HETATM   11  H   UNL     1     -42.190 -46.862  12.209  1.00  0.00     0.161 HD
BRANCH  10  12
HETATM   12  C   UNL     1     -41.449 -45.634  10.688  1.00  0.00     0.114 C 
HETATM   13  C   UNL     1     -40.079 -45.025  10.364  1.00  0.00     0.059 C 
HETATM   14  C   UNL     1     -40.220 -43.585  10.887  1.00  0.00     0.124 C 
HETATM   15  C   UNL     1     -40.082 -43.558  12.403  1.00  0.00     0.034 C 
HETATM   16  O   UNL     1     -41.635 -43.332  10.736  1.00  0.00    -0.378 OA
HETATM   17  C   UNL     1     -41.373 -44.248  12.839  1.00  0.00     0.036 C 
HETATM   18  C   UNL     1     -42.087 -44.477  11.496  1.00  0.00     0.144 C 
ENDBRANCH  10  12
ENDBRANCH   6  10
TORSDOF 2
ENDMDL
MODEL 7
REMARK VINA RESULT:      -5.0      4.017      6.395
REMARK  2 active torsions:
REMARK  status: ('A' for Active; 'I' for Inactive)
REMARK    1  A    between atoms: C_6  and  N_7 
REMARK    2  A    between atoms: N_7  and  C_8 
ROOT
HETATM    1  N   UNL     1     -39.870 -44.737  10.022  1.00  0.00    -0.191 NA
HETATM    2  C   UNL     1     -40.476 -45.618  10.478  1.00  0.00     0.101 C 
HETATM    3  C   UNL     1     -41.225 -46.699  11.036  1.00  0.00     0.060 A 
HETATM    4  C   UNL     1     -41.154 -47.032  12.389  1.00  0.00     0.028 A 
HETATM    5  C   UNL     1     -41.914 -48.103  12.881  1.00  0.00     0.050 A 
HETATM    6  C   UNL     1     -42.734 -48.801  12.012  1.00  0.00     0.101 A 
HETATM    7  N   UNL     1     -42.815 -48.478  10.705  1.00  0.00    -0.351 N 
ATOM      8  HN  UNL     1     -43.430 -48.996  10.078  1.00  0.00     0.166 HD
HETATM    9  C   UNL     1     -42.064 -47.451  10.242  1.00  0.00     0.112 A 
ENDROOT
BRANCH   6  10
HETATM   10  N   UNL     1     -43.586 -49.800  12.356  1.00  0.00    -0.369 N 
HETATM   11  H   UNL     1     -44.107 -50.034  11.513  1.00  0.00     0.161 HD
BRANCH  10  12
HETATM   12  C   UNL     1     -43.440 -50.903  13.293  1.00  0.00     0.114 C 
HETATM   13  C   UNL     1     -43.206 -52.324  12.767  1.00  0.00     0.059 C 
HETATM   14  C   UNL     1     -44.309 -53.130  13.473  1.00  0.00     0.124 C 
HETATM   15  C   UNL     1     -45.652 -52.897  12.793  1.00  0.00     0.034 C 
HETATM   16  O   UNL     1     -44.496 -52.396  14.705  1.00  0.00    -0.378 OA
HETATM   17  C   UNL     1     -45.938 -51.446  13.173  1.00  0.00     0.036 C 
HETATM   18  C   UNL     1     -44.750 -51.111  14.091  1.00  0.00     0.144 C 
ENDBRANCH  10  12
ENDBRANCH   6  10
TORSDOF 2
ENDMDL
MODEL 8
REMARK VINA RESULT:      -4.9      2.540      3.543
REMARK  2 active torsions:
REMARK  status: ('A' for Active; 'I' for Inactive)
REMARK    1  A    between atoms: C_6  and  N_7 
REMARK    2  A    between atoms: N_7  and  C_8 
ROOT
HETATM    1  N   UNL     1     -46.667 -49.212  20.460  1.00  0.00    -0.191 NA
HETATM    2  C   UNL     1     -46.667 -49.674  19.393  1.00  0.00     0.101 C 
HETATM    3  C   UNL     1     -46.663 -50.237  18.080  1.00  0.00     0.060 A 
HETATM    4  C   UNL     1     -47.799 -50.822  17.520  1.00  0.00     0.028 A 
HETATM    5  C   UNL     1     -47.737 -51.357  16.225  1.00  0.00     0.050 A 
HETATM    6  C   UNL     1     -46.548 -51.279  15.521  1.00  0.00     0.101 A 
HETATM    7  N   UNL     1     -45.449 -50.705  16.053  1.00  0.00    -0.351 N 
ATOM      8  HN  UNL     1     -44.582 -50.647  15.520  1.00  0.00     0.166 HD
HETATM    9  C   UNL     1     -45.521 -50.207  17.310  1.00  0.00     0.112 A 
ENDROOT
BRANCH   6  10
HETATM   10  N   UNL     1     -46.360 -51.675  14.237  1.00  0.00    -0.369 N 
HETATM   11  H   UNL     1     -45.729 -50.995  13.818  1.00  0.00     0.161 HD
BRANCH  10  12
HETATM   12  C   UNL     1     -46.287 -53.001  13.645  1.00  0.00     0.114 C 
HETATM   13  C   UNL     1     -46.178 -54.235  14.550  1.00  0.00     0.059 C 
HETATM   14  C   UNL     1     -44.947 -54.961  13.981  1.00  0.00     0.124 C 
HETATM   15  C   UNL     1     -43.668 -54.276  14.444  1.00  0.00     0.034 C 
HETATM   16  O   UNL     1     -44.972 -54.579  12.587  1.00  0.00    -0.378 OA
HETATM   17  C   UNL     1     -43.728 -52.963  13.666  1.00  0.00     0.036 C 
HETATM   18  C   UNL     1     -44.992 -53.150  12.810  1.00  0.00     0.144 C 
ENDBRANCH  10  12
ENDBRANCH   6  10
TORSDOF 2
ENDMDL
MODEL 9
REMARK VINA RESULT:      -4.8      3.158      5.937
REMARK  2 active torsions:
REMARK  status: ('A' for Active; 'I' for Inactive)
REMARK    1  A    between atoms: C_6  and  N_7 
REMARK    2  A    between atoms: N_7  and  C_8 
ROOT
HETATM    1  N   UNL     1     -38.839 -55.702  16.810  1.00  0.00    -0.191 NA
HETATM    2  C   UNL     1     -39.792 -55.401  16.216  1.00  0.00     0.101 C 
HETATM    3  C   UNL     1     -40.961 -55.027  15.485  1.00  0.00     0.060 A 
HETATM    4  C   UNL     1     -42.239 -55.440  15.865  1.00  0.00     0.028 A 
HETATM    5  C   UNL     1     -43.351 -55.039  15.110  1.00  0.00     0.050 A 
HETATM    6  C   UNL     1     -43.157 -54.227  14.007  1.00  0.00     0.101 A 
HETATM    7  N   UNL     1     -41.925 -53.816  13.639  1.00  0.00    -0.351 N 
ATOM      8  HN  UNL     1     -41.799 -53.211  12.828  1.00  0.00     0.166 HD
HETATM    9  C   UNL     1     -40.860 -54.224  14.370  1.00  0.00     0.112 A 
ENDROOT
BRANCH   6  10
HETATM   10  N   UNL     1     -44.137 -53.694  13.233  1.00  0.00    -0.369 N 
HETATM   11  H   UNL     1     -44.735 -54.470  12.956  1.00  0.00     0.161 HD
BRANCH  10  12
HETATM   12  C   UNL     1     -44.815 -52.409  13.296  1.00  0.00     0.114 C 
HETATM   13  C   UNL     1     -44.622 -51.506  14.521  1.00  0.00     0.059 C 
HETATM   14  C   UNL     1     -46.068 -51.209  14.952  1.00  0.00     0.124 C 
HETATM   15  C   UNL     1     -46.654 -52.404  15.692  1.00  0.00     0.034 C 
HETATM   16  O   UNL     1     -46.789 -51.281  13.701  1.00  0.00    -0.378 OA
HETATM   17  C   UNL     1     -46.795 -53.422  14.562  1.00  0.00     0.036 C 
HETATM   18  C   UNL     1     -46.350 -52.609  13.335  1.00  0.00     0.144 C 
ENDBRANCH  10  12
ENDBRANCH   6  10
TORSDOF 2
ENDMDL
