MODEL 1
REMARK VINA RESULT:      -5.9      0.000      0.000
REMARK  7 active torsions:
REMARK  status: ('A' for Active; 'I' for Inactive)
REMARK    1  A    between atoms: C_2  and  C_3 
REMARK    2  A    between atoms: C_2  and  N_10 
REMARK    3  A    between atoms: C_3  and  N_4 
REMARK    4  A    between atoms: N_10  and  C_11 
REMARK    5  A    between atoms: C_11  and  C_12 
REMARK    6  A    between atoms: C_12  and  C_13 
REMARK       I    between atoms: C_13  and  N_15 
REMARK    7  A    between atoms: N_15  and  C_16 
ROOT
HETATM    1  N   UNL     1     -42.321 -48.566  10.337  1.00  0.00     0.089 N 
HETATM    2  H   UNL     1     -41.531 -48.699   9.704  1.00  0.00     0.316 HD
ENDROOT
BRANCH   1   3
HETATM    3  C   UNL     1     -42.752 -47.142  10.255  1.00  0.00     0.236 C 
HETATM    4  C   UNL     1     -41.492 -46.280  10.401  1.00  0.00     0.044 C 
BRANCH   3   5
HETATM    5  C   UNL     1     -43.501 -46.822   8.940  1.00  0.00     0.183 C 
BRANCH   5   6
HETATM    6  N   UNL     1     -44.722 -47.576   8.729  1.00  0.00    -0.302 N 
HETATM    7  C   UNL     1     -45.857 -47.509   9.487  1.00  0.00     0.111 A 
HETATM    8  C   UNL     1     -46.795 -48.271   8.832  1.00  0.00     0.037 A 
HETATM    9  C   UNL     1     -46.129 -48.756   7.693  1.00  0.00     0.108 A 
HETATM   10  N   UNL     1     -44.860 -48.342   7.630  1.00  0.00    -0.310 N 
ATOM     11  HN  UNL     1     -44.162 -48.556   6.918  1.00  0.00     0.186 HD
ENDBRANCH   5   6
ENDBRANCH   3   5
ENDBRANCH   1   3
BRANCH   1  12
HETATM   12  C   UNL     1     -41.907 -48.927  11.702  1.00  0.00     0.279 C 
BRANCH  12  13
HETATM   13  C   UNL     1     -41.261 -50.307  11.773  1.00  0.00     0.132 C 
BRANCH  13  14
HETATM   14  C   UNL     1     -42.209 -51.260  12.484  1.00  0.00     0.219 C 
HETATM   15  O   UNL     1     -41.972 -52.455  12.636  1.00  0.00    -0.274 OA
HETATM   16  N   UNL     1     -43.374 -50.666  12.923  1.00  0.00    -0.356 N 
HETATM   17  H   UNL     1     -43.379 -49.658  13.016  1.00  0.00     0.162 HD
BRANCH  16  18
HETATM   18  C   UNL     1     -44.363 -51.430  13.660  1.00  0.00     0.084 C 
HETATM   19  C   UNL     1     -45.737 -51.475  12.973  1.00  0.00     0.025 C 
HETATM   20  C   UNL     1     -46.783 -51.399  14.084  1.00  0.00     0.002 C 
HETATM   21  C   UNL     1     -46.010 -51.395  15.394  1.00  0.00     0.002 C 
HETATM   22  C   UNL     1     -44.651 -50.823  15.029  1.00  0.00     0.025 C 
ENDBRANCH  16  18
ENDBRANCH  13  14
ENDBRANCH  12  13
ENDBRANCH   1  12
TORSDOF 7
ENDMDL
MODEL 2
REMARK VINA RESULT:      -5.6      1.363      1.859
REMARK  7 active torsions:
REMARK  status: ('A' for Active; 'I' for Inactive)
REMARK    1  A    between atoms: C_2  and  C_3 
REMARK    2  A    between atoms: C_2  and  N_10 
REMARK    3  A    between atoms: C_3  and  N_4 
REMARK    4  A    between atoms: N_10  and  C_11 
REMARK    5  A    between atoms: C_11  and  C_12 
REMARK    6  A    between atoms: C_12  and  C_13 
REMARK       I    between atoms: C_13  and  N_15 
REMARK    7  A    between atoms: N_15  and  C_16 
ROOT
HETATM    1  N   UNL     1     -41.590 -49.818  11.161  1.00  0.00     0.089 N 
HETATM    2  H   UNL     1     -41.337 -49.895  10.175  1.00  0.00     0.316 HD
ENDROOT
BRANCH   1   3
HETATM    3  C   UNL     1     -41.263 -48.439  11.623  1.00  0.00     0.236 C 
HETATM    4  C   UNL     1     -39.781 -48.436  12.020  1.00  0.00     0.044 C 
BRANCH   3   5
HETATM    5  C   UNL     1     -41.558 -47.367  10.549  1.00  0.00     0.183 C 
BRANCH   5   6
HETATM    6  N   UNL     1     -42.788 -47.563   9.806  1.00  0.00    -0.302 N 
HETATM    7  C   UNL     1     -44.056 -47.337  10.263  1.00  0.00     0.111 A 
HETATM    8  C   UNL     1     -44.884 -47.507   9.181  1.00  0.00     0.037 A 
HETATM    9  C   UNL     1     -44.023 -47.836   8.119  1.00  0.00     0.108 A 
HETATM   10  N   UNL     1     -42.742 -47.880   8.497  1.00  0.00    -0.310 N 
ATOM     11  HN  UNL     1     -41.925 -48.102   7.930  1.00  0.00     0.186 HD
ENDBRANCH   5   6
ENDBRANCH   3   5
ENDBRANCH   1   3
BRANCH   1  12
HETATM   12  C   UNL     1     -40.848 -50.833  11.925  1.00  0.00     0.279 C 
BRANCH  12  13
HETATM   13  C   UNL     1     -41.402 -52.240  11.723  1.00  0.00     0.132 C 
BRANCH  13  14
HETATM   14  C   UNL     1     -42.364 -52.560  12.857  1.00  0.00     0.219 C 
HETATM   15  O   UNL     1     -42.039 -53.201  13.852  1.00  0.00    -0.274 OA
HETATM   16  N   UNL     1     -43.642 -52.083  12.658  1.00  0.00    -0.356 N 
HETATM   17  H   UNL     1     -43.765 -51.344  11.977  1.00  0.00     0.162 HD
BRANCH  16  18
HETATM   18  C   UNL     1     -44.667 -52.266  13.668  1.00  0.00     0.084 C 
HETATM   19  C   UNL     1     -46.096 -52.087  13.131  1.00  0.00     0.025 C 
HETATM   20  C   UNL     1     -46.890 -51.382  14.230  1.00  0.00     0.002 C 
HETATM   21  C   UNL     1     -45.942 -51.237  15.411  1.00  0.00     0.002 C 
HETATM   22  C   UNL     1     -44.558 -51.234  14.787  1.00  0.00     0.025 C 
ENDBRANCH  16  18
ENDBRANCH  13  14
ENDBRANCH  12  13
ENDBRANCH   1  12
TORSDOF 7
ENDMDL
MODEL 3
REMARK VINA RESULT:      -5.5      3.074      4.064
REMARK  7 active torsions:
REMARK  status: ('A' for Active; 'I' for Inactive)
REMARK    1  A    between atoms: C_2  and  C_3 
REMARK    2  A    between atoms: C_2  and  N_10 
REMARK    3  A    between atoms: C_3  and  N_4 
REMARK    4  A    between atoms: N_10  and  C_11 
REMARK    5  A    between atoms: C_11  and  C_12 
REMARK    6  A    between atoms: C_12  and  C_13 
REMARK       I    between atoms: C_13  and  N_15 
REMARK    7  A    between atoms: N_15  and  C_16 
ROOT
HETATM    1  N   UNL     1     -40.577 -50.205  10.928  1.00  0.00     0.089 N 
HETATM    2  H   UNL     1     -39.562 -50.271  10.836  1.00  0.00     0.316 HD
ENDROOT
BRANCH   1   3
HETATM    3  C   UNL     1     -40.947 -48.765  11.026  1.00  0.00     0.236 C 
HETATM    4  C   UNL     1     -42.284 -48.691  11.774  1.00  0.00     0.044 C 
BRANCH   3   5
HETATM    5  C   UNL     1     -39.863 -47.919  11.732  1.00  0.00     0.183 C 
BRANCH   5   6
HETATM    6  N   UNL     1     -39.930 -46.493  11.474  1.00  0.00    -0.302 N 
HETATM    7  C   UNL     1     -39.972 -45.501  12.413  1.00  0.00     0.111 A 
HETATM    8  C   UNL     1     -39.874 -44.319  11.718  1.00  0.00     0.037 A 
HETATM    9  C   UNL     1     -39.779 -44.703  10.369  1.00  0.00     0.108 A 
HETATM   10  N   UNL     1     -39.822 -46.030  10.214  1.00  0.00    -0.310 N 
ATOM     11  HN  UNL     1     -39.782 -46.564   9.346  1.00  0.00     0.186 HD
ENDBRANCH   5   6
ENDBRANCH   3   5
ENDBRANCH   1   3
BRANCH   1  12
HETATM   12  C   UNL     1     -40.998 -50.953  12.124  1.00  0.00     0.279 C 
BRANCH  12  13
HETATM   13  C   UNL     1     -41.314 -52.414  11.821  1.00  0.00     0.132 C 
BRANCH  13  14
HETATM   14  C   UNL     1     -42.451 -52.871  12.722  1.00  0.00     0.219 C 
HETATM   15  O   UNL     1     -42.422 -53.918  13.361  1.00  0.00    -0.274 OA
HETATM   16  N   UNL     1     -43.530 -52.012  12.738  1.00  0.00    -0.356 N 
HETATM   17  H   UNL     1     -43.377 -51.062  12.425  1.00  0.00     0.162 HD
BRANCH  16  18
HETATM   18  C   UNL     1     -44.678 -52.283  13.583  1.00  0.00     0.084 C 
HETATM   19  C   UNL     1     -46.021 -51.940  12.920  1.00  0.00     0.025 C 
HETATM   20  C   UNL     1     -46.914 -51.361  14.016  1.00  0.00     0.002 C 
HETATM   21  C   UNL     1     -46.114 -51.453  15.306  1.00  0.00     0.002 C 
HETATM   22  C   UNL     1     -44.664 -51.439  14.854  1.00  0.00     0.025 C 
ENDBRANCH  16  18
ENDBRANCH  13  14
ENDBRANCH  12  13
ENDBRANCH   1  12
TORSDOF 7
ENDMDL
MODEL 4
REMARK VINA RESULT:      -5.4      3.120      4.724
REMARK  7 active torsions:
REMARK  status: ('A' for Active; 'I' for Inactive)
REMARK    1  A    between atoms: C_2  and  C_3 
REMARK    2  A    between atoms: C_2  and  N_10 
REMARK    3  A    between atoms: C_3  and  N_4 
REMARK    4  A    between atoms: N_10  and  C_11 
REMARK    5  A    between atoms: C_11  and  C_12 
REMARK    6  A    between atoms: C_12  and  C_13 
REMARK       I    between atoms: C_13  and  N_15 
REMARK    7  A    between atoms: N_15  and  C_16 
ROOT
HETATM    1  N   UNL     1     -42.575 -52.682  11.744  1.00  0.00     0.089 N 
HETATM    2  H   UNL     1     -42.343 -53.586  11.331  1.00  0.00     0.316 HD
ENDROOT
BRANCH   1   3
HETATM    3  C   UNL     1     -41.467 -52.287  12.660  1.00  0.00     0.236 C 
HETATM    4  C   UNL     1     -40.638 -53.548  12.934  1.00  0.00     0.044 C 
BRANCH   3   5
HETATM    5  C   UNL     1     -40.590 -51.155  12.078  1.00  0.00     0.183 C 
BRANCH   5   6
HETATM    6  N   UNL     1     -41.317 -49.981  11.634  1.00  0.00    -0.302 N 
HETATM    7  C   UNL     1     -42.268 -49.300  12.342  1.00  0.00     0.111 A 
HETATM    8  C   UNL     1     -42.565 -48.183  11.599  1.00  0.00     0.037 A 
HETATM    9  C   UNL     1     -41.743 -48.281  10.461  1.00  0.00     0.108 A 
HETATM   10  N   UNL     1     -40.986 -49.381  10.474  1.00  0.00    -0.310 N 
ATOM     11  HN  UNL     1     -40.317 -49.693   9.771  1.00  0.00     0.186 HD
ENDBRANCH   5   6
ENDBRANCH   3   5
ENDBRANCH   1   3
BRANCH   1  12
HETATM   12  C   UNL     1     -43.853 -52.799  12.463  1.00  0.00     0.279 C 
BRANCH  12  13
HETATM   13  C   UNL     1     -44.226 -54.247  12.765  1.00  0.00     0.132 C 
BRANCH  13  14
HETATM   14  C   UNL     1     -45.300 -54.266  13.842  1.00  0.00     0.219 C 
HETATM   15  O   UNL     1     -45.907 -55.282  14.167  1.00  0.00    -0.274 OA
HETATM   16  N   UNL     1     -45.547 -53.032  14.406  1.00  0.00    -0.356 N 
HETATM   17  H   UNL     1     -44.838 -52.318  14.299  1.00  0.00     0.162 HD
BRANCH  16  18
HETATM   18  C   UNL     1     -46.512 -52.889  15.480  1.00  0.00     0.084 C 
HETATM   19  C   UNL     1     -47.236 -51.534  15.477  1.00  0.00     0.025 C 
HETATM   20  C   UNL     1     -47.409 -51.127  16.939  1.00  0.00     0.002 C 
HETATM   21  C   UNL     1     -46.862 -52.280  17.767  1.00  0.00     0.002 C 
HETATM   22  C   UNL     1     -45.852 -52.955  16.854  1.00  0.00     0.025 C 
ENDBRANCH  16  18
ENDBRANCH  13  14
ENDBRANCH  12  13
ENDBRANCH   1  12
TORSDOF 7
ENDMDL
MODEL 5
REMARK VINA RESULT:      -5.4      2.339      2.938
REMARK  7 active torsions:
REMARK  status: ('A' for Active; 'I' for Inactive)
REMARK    1  A    between atoms: C_2  and  C_3 
REMARK    2  A    between atoms: C_2  and  N_10 
REMARK    3  A    between atoms: C_3  and  N_4 
REMARK    4  A    between atoms: N_10  and  C_11 
REMARK    5  A    between atoms: C_11  and  C_12 
REMARK    6  A    between atoms: C_12  and  C_13 
REMARK       I    between atoms: C_13  and  N_15 
REMARK    7  A    between atoms: N_15  and  C_16 
ROOT
HETATM    1  N   UNL     1     -40.750 -50.182  11.850  1.00  0.00     0.089 N 
HETATM    2  H   UNL     1     -39.971 -49.915  11.246  1.00  0.00     0.316 HD
ENDROOT
BRANCH   1   3
HETATM    3  C   UNL     1     -41.840 -49.181  11.678  1.00  0.00     0.236 C 
HETATM    4  C   UNL     1     -42.196 -48.655  13.074  1.00  0.00     0.044 C 
BRANCH   3   5
HETATM    5  C   UNL     1     -41.443 -48.026  10.729  1.00  0.00     0.183 C 
BRANCH   5   6
HETATM    6  N   UNL     1     -42.487 -47.591   9.821  1.00  0.00    -0.302 N 
HETATM    7  C   UNL     1     -43.216 -46.439   9.917  1.00  0.00     0.111 A 
HETATM    8  C   UNL     1     -43.968 -46.370   8.769  1.00  0.00     0.037 A 
HETATM    9  C   UNL     1     -43.623 -47.526   8.046  1.00  0.00     0.108 A 
HETATM   10  N   UNL     1     -42.726 -48.279   8.688  1.00  0.00    -0.310 N 
ATOM     11  HN  UNL     1     -42.319 -49.166   8.390  1.00  0.00     0.186 HD
ENDBRANCH   5   6
ENDBRANCH   3   5
ENDBRANCH   1   3
BRANCH   1  12
HETATM   12  C   UNL     1     -40.280 -50.234  13.243  1.00  0.00     0.279 C 
BRANCH  12  13
HETATM   13  C   UNL     1     -39.798 -51.624  13.648  1.00  0.00     0.132 C 
BRANCH  13  14
HETATM   14  C   UNL     1     -40.745 -52.663  13.069  1.00  0.00     0.219 C 
HETATM   15  O   UNL     1     -40.550 -53.227  11.996  1.00  0.00    -0.274 OA
HETATM   16  N   UNL     1     -41.859 -52.900  13.848  1.00  0.00    -0.356 N 
HETATM   17  H   UNL     1     -41.817 -52.624  14.820  1.00  0.00     0.162 HD
BRANCH  16  18
HETATM   18  C   UNL     1     -42.838 -53.897  13.456  1.00  0.00     0.084 C 
HETATM   19  C   UNL     1     -44.029 -53.314  12.680  1.00  0.00     0.025 C 
HETATM   20  C   UNL     1     -45.268 -54.080  13.142  1.00  0.00     0.002 C 
HETATM   21  C   UNL     1     -44.772 -55.143  14.109  1.00  0.00     0.002 C 
HETATM   22  C   UNL     1     -43.476 -54.576  14.663  1.00  0.00     0.025 C 
ENDBRANCH  16  18
ENDBRANCH  13  14
ENDBRANCH  12  13
ENDBRANCH   1  12
TORSDOF 7
ENDMDL
MODEL 6
REMARK VINA RESULT:      -5.2      1.955      2.410
REMARK  7 active torsions:
REMARK  status: ('A' for Active; 'I' for Inactive)
REMARK    1  A    between atoms: C_2  and  C_3 
REMARK    2  A    between atoms: C_2  and  N_10 
REMARK    3  A    between atoms: C_3  and  N_4 
REMARK    4  A    between atoms: N_10  and  C_11 
REMARK    5  A    between atoms: C_11  and  C_12 
REMARK    6  A    between atoms: C_12  and  C_13 
REMARK       I    between atoms: C_13  and  N_15 
REMARK    7  A    between atoms: N_15  and  C_16 
ROOT
HETATM    1  N   UNL     1     -42.936 -47.334  11.187  1.00  0.00     0.089 N 
HETATM    2  H   UNL     1     -43.896 -47.676  11.116  1.00  0.00     0.316 HD
ENDROOT
BRANCH   1   3
HETATM    3  C   UNL     1     -42.825 -46.081  10.388  1.00  0.00     0.236 C 
HETATM    4  C   UNL     1     -41.356 -45.640  10.443  1.00  0.00     0.044 C 
BRANCH   3   5
HETATM    5  C   UNL     1     -43.302 -46.261   8.929  1.00  0.00     0.183 C 
BRANCH   5   6
HETATM    6  N   UNL     1     -44.623 -46.843   8.782  1.00  0.00    -0.302 N 
HETATM    7  C   UNL     1     -44.918 -48.046   8.204  1.00  0.00     0.111 A 
HETATM    8  C   UNL     1     -46.259 -48.252   8.425  1.00  0.00     0.037 A 
HETATM    9  C   UNL     1     -46.682 -47.118   9.142  1.00  0.00     0.108 A 
HETATM   10  N   UNL     1     -45.688 -46.251   9.355  1.00  0.00    -0.310 N 
ATOM     11  HN  UNL     1     -45.728 -45.353   9.836  1.00  0.00     0.186 HD
ENDBRANCH   5   6
ENDBRANCH   3   5
ENDBRANCH   1   3
BRANCH   1  12
HETATM   12  C   UNL     1     -42.020 -48.373  10.692  1.00  0.00     0.279 C 
BRANCH  12  13
HETATM   13  C   UNL     1     -41.347 -49.149  11.821  1.00  0.00     0.132 C 
BRANCH  13  14
HETATM   14  C   UNL     1     -42.404 -49.945  12.570  1.00  0.00     0.219 C 
HETATM   15  O   UNL     1     -43.445 -49.451  12.991  1.00  0.00    -0.274 OA
HETATM   16  N   UNL     1     -42.076 -51.272  12.757  1.00  0.00    -0.356 N 
HETATM   17  H   UNL     1     -41.361 -51.666  12.159  1.00  0.00     0.162 HD
BRANCH  16  18
HETATM   18  C   UNL     1     -42.999 -52.177  13.416  1.00  0.00     0.084 C 
HETATM   19  C   UNL     1     -42.308 -53.178  14.357  1.00  0.00     0.025 C 
HETATM   20  C   UNL     1     -43.059 -54.501  14.213  1.00  0.00     0.002 C 
HETATM   21  C   UNL     1     -44.215 -54.231  13.262  1.00  0.00     0.002 C 
HETATM   22  C   UNL     1     -43.745 -53.058  12.419  1.00  0.00     0.025 C 
ENDBRANCH  16  18
ENDBRANCH  13  14
ENDBRANCH  12  13
ENDBRANCH   1  12
TORSDOF 7
ENDMDL
MODEL 7
REMARK VINA RESULT:      -5.2      3.288      4.659
REMARK  7 active torsions:
REMARK  status: ('A' for Active; 'I' for Inactive)
REMARK    1  A    between atoms: C_2  and  C_3 
REMARK    2  A    between atoms: C_2  and  N_10 
REMARK    3  A    between atoms: C_3  and  N_4 
REMARK    4  A    between atoms: N_10  and  C_11 
REMARK    5  A    between atoms: C_11  and  C_12 
REMARK    6  A    between atoms: C_12  and  C_13 
REMARK       I    between atoms: C_13  and  N_15 
REMARK    7  A    between atoms: N_15  and  C_16 
ROOT
HETATM    1  N   UNL     1     -38.076 -51.040  13.439  1.00  0.00     0.089 N 
HETATM    2  H   UNL     1     -37.144 -50.692  13.670  1.00  0.00     0.316 HD
ENDROOT
BRANCH   1   3
HETATM    3  C   UNL     1     -38.658 -50.159  12.387  1.00  0.00     0.236 C 
HETATM    4  C   UNL     1     -37.568 -49.939  11.330  1.00  0.00     0.044 C 
BRANCH   3   5
HETATM    5  C   UNL     1     -39.939 -50.751  11.756  1.00  0.00     0.183 C 
BRANCH   5   6
HETATM    6  N   UNL     1     -41.005 -49.797  11.520  1.00  0.00    -0.302 N 
HETATM    7  C   UNL     1     -41.974 -49.427  12.410  1.00  0.00     0.111 A 
HETATM    8  C   UNL     1     -42.664 -48.399  11.814  1.00  0.00     0.037 A 
HETATM    9  C   UNL     1     -42.037 -48.223  10.568  1.00  0.00     0.108 A 
HETATM   10  N   UNL     1     -41.029 -49.080  10.379  1.00  0.00    -0.310 N 
ATOM     11  HN  UNL     1     -40.423 -49.170   9.565  1.00  0.00     0.186 HD
ENDBRANCH   5   6
ENDBRANCH   3   5
ENDBRANCH   1   3
BRANCH   1  12
HETATM   12  C   UNL     1     -38.901 -51.042  14.657  1.00  0.00     0.279 C 
BRANCH  12  13
HETATM   13  C   UNL     1     -39.001 -52.424  15.296  1.00  0.00     0.132 C 
BRANCH  13  14
HETATM   14  C   UNL     1     -39.868 -53.313  14.417  1.00  0.00     0.219 C 
HETATM   15  O   UNL     1     -39.429 -53.946  13.462  1.00  0.00    -0.274 OA
HETATM   16  N   UNL     1     -41.200 -53.324  14.775  1.00  0.00    -0.356 N 
HETATM   17  H   UNL     1     -41.435 -53.018  15.711  1.00  0.00     0.162 HD
BRANCH  16  18
HETATM   18  C   UNL     1     -42.151 -54.157  14.063  1.00  0.00     0.084 C 
HETATM   19  C   UNL     1     -42.859 -53.430  12.910  1.00  0.00     0.025 C 
HETATM   20  C   UNL     1     -44.303 -53.928  12.900  1.00  0.00     0.002 C 
HETATM   21  C   UNL     1     -44.392 -54.989  13.986  1.00  0.00     0.002 C 
HETATM   22  C   UNL     1     -43.290 -54.622  14.965  1.00  0.00     0.025 C 
ENDBRANCH  16  18
ENDBRANCH  13  14
ENDBRANCH  12  13
ENDBRANCH   1  12
TORSDOF 7
ENDMDL
MODEL 8
REMARK VINA RESULT:      -5.0      3.909      6.976
REMARK  7 active torsions:
REMARK  status: ('A' for Active; 'I' for Inactive)
REMARK    1  A    between atoms: C_2  and  C_3 
REMARK    2  A    between atoms: C_2  and  N_10 
REMARK    3  A    between atoms: C_3  and  N_4 
REMARK    4  A    between atoms: N_10  and  C_11 
REMARK    5  A    between atoms: C_11  and  C_12 
REMARK    6  A    between atoms: C_12  and  C_13 
REMARK       I    between atoms: C_13  and  N_15 
REMARK    7  A    between atoms: N_15  and  C_16 
ROOT
HETATM    1  N   UNL     1     -40.858 -51.899  11.353  1.00  0.00     0.089 N 
HETATM    2  H   UNL     1     -41.455 -51.345  10.737  1.00  0.00     0.316 HD
ENDROOT
BRANCH   1   3
HETATM    3  C   UNL     1     -41.705 -52.918  12.035  1.00  0.00     0.236 C 
HETATM    4  C   UNL     1     -40.788 -53.717  12.969  1.00  0.00     0.044 C 
BRANCH   3   5
HETATM    5  C   UNL     1     -42.884 -52.288  12.811  1.00  0.00     0.183 C 
BRANCH   5   6
HETATM    6  N   UNL     1     -43.752 -53.234  13.486  1.00  0.00    -0.302 N 
HETATM    7  C   UNL     1     -44.090 -53.221  14.811  1.00  0.00     0.111 A 
HETATM    8  C   UNL     1     -45.042 -54.200  14.967  1.00  0.00     0.037 A 
HETATM    9  C   UNL     1     -45.208 -54.746  13.682  1.00  0.00     0.108 A 
HETATM   10  N   UNL     1     -44.416 -54.166  12.776  1.00  0.00    -0.310 N 
ATOM     11  HN  UNL     1     -44.335 -54.379  11.782  1.00  0.00     0.186 HD
ENDBRANCH   5   6
ENDBRANCH   3   5
ENDBRANCH   1   3
BRANCH   1  12
HETATM   12  C   UNL     1     -40.207 -51.003  12.322  1.00  0.00     0.279 C 
BRANCH  12  13
HETATM   13  C   UNL     1     -39.413 -49.888  11.647  1.00  0.00     0.132 C 
BRANCH  13  14
HETATM   14  C   UNL     1     -40.361 -48.754  11.291  1.00  0.00     0.219 C 
HETATM   15  O   UNL     1     -41.553 -48.924  11.053  1.00  0.00    -0.274 OA
HETATM   16  N   UNL     1     -39.755 -47.516  11.234  1.00  0.00    -0.356 N 
HETATM   17  H   UNL     1     -38.865 -47.408  11.703  1.00  0.00     0.162 HD
BRANCH  16  18
HETATM   18  C   UNL     1     -40.532 -46.323  10.950  1.00  0.00     0.084 C 
HETATM   19  C   UNL     1     -39.714 -45.202  10.291  1.00  0.00     0.025 C 
HETATM   20  C   UNL     1     -40.222 -43.887  10.880  1.00  0.00     0.002 C 
HETATM   21  C   UNL     1     -41.374 -44.253  11.803  1.00  0.00     0.002 C 
HETATM   22  C   UNL     1     -41.083 -45.684  12.221  1.00  0.00     0.025 C 
ENDBRANCH  16  18
ENDBRANCH  13  14
ENDBRANCH  12  13
ENDBRANCH   1  12
TORSDOF 7
ENDMDL
MODEL 9
REMARK VINA RESULT:      -4.9      4.152      7.238
REMARK  7 active torsions:
REMARK  status: ('A' for Active; 'I' for Inactive)
REMARK    1  A    between atoms: C_2  and  C_3 
REMARK    2  A    between atoms: C_2  and  N_10 
REMARK    3  A    between atoms: C_3  and  N_4 
REMARK    4  A    between atoms: N_10  and  C_11 
REMARK    5  A    between atoms: C_11  and  C_12 
REMARK    6  A    between atoms: C_12  and  C_13 
REMARK       I    between atoms: C_13  and  N_15 
REMARK    7  A    between atoms: N_15  and  C_16 
ROOT
HETATM    1  N   UNL     1     -43.935 -51.875  14.901  1.00  0.00     0.089 N 
HETATM    2  H   UNL     1     -42.978 -52.167  14.695  1.00  0.00     0.316 HD
ENDROOT
BRANCH   1   3
HETATM    3  C   UNL     1     -44.866 -52.906  14.361  1.00  0.00     0.236 C 
HETATM    4  C   UNL     1     -45.490 -52.327  13.085  1.00  0.00     0.044 C 
BRANCH   3   5
HETATM    5  C   UNL     1     -44.162 -54.253  14.079  1.00  0.00     0.183 C 
BRANCH   5   6
HETATM    6  N   UNL     1     -42.722 -54.174  13.925  1.00  0.00    -0.302 N 
HETATM    7  C   UNL     1     -41.789 -54.427  14.890  1.00  0.00     0.111 A 
HETATM    8  C   UNL     1     -40.569 -54.379  14.259  1.00  0.00     0.037 A 
HETATM    9  C   UNL     1     -40.872 -54.091  12.916  1.00  0.00     0.108 A 
HETATM   10  N   UNL     1     -42.185 -53.956  12.709  1.00  0.00    -0.310 N 
ATOM     11  HN  UNL     1     -42.666 -53.739  11.836  1.00  0.00     0.186 HD
ENDBRANCH   5   6
ENDBRANCH   3   5
ENDBRANCH   1   3
BRANCH   1  12
HETATM   12  C   UNL     1     -44.176 -50.558  14.291  1.00  0.00     0.279 C 
BRANCH  12  13
HETATM   13  C   UNL     1     -42.909 -49.711  14.205  1.00  0.00     0.132 C 
BRANCH  13  14
HETATM   14  C   UNL     1     -41.950 -50.358  13.217  1.00  0.00     0.219 C 
HETATM   15  O   UNL     1     -42.319 -51.088  12.302  1.00  0.00    -0.274 OA
HETATM   16  N   UNL     1     -40.623 -50.068  13.455  1.00  0.00    -0.356 N 
HETATM   17  H   UNL     1     -40.416 -49.260  14.028  1.00  0.00     0.162 HD
BRANCH  16  18
HETATM   18  C   UNL     1     -39.585 -50.572  12.575  1.00  0.00     0.084 C 
HETATM   19  C   UNL     1     -38.440 -51.276  13.319  1.00  0.00     0.025 C 
HETATM   20  C   UNL     1     -37.151 -50.906  12.586  1.00  0.00     0.002 C 
HETATM   21  C   UNL     1     -37.571 -50.068  11.389  1.00  0.00     0.002 C 
HETATM   22  C   UNL     1     -38.895 -49.451  11.804  1.00  0.00     0.025 C 
ENDBRANCH  16  18
ENDBRANCH  13  14
ENDBRANCH  12  13
ENDBRANCH   1  12
TORSDOF 7
ENDMDL
