MODEL 1
REMARK VINA RESULT:      -6.0      0.000      0.000
REMARK  3 active torsions:
REMARK  status: ('A' for Active; 'I' for Inactive)
REMARK    1  A    between atoms: C_2  and  C_3 
REMARK    2  A    between atoms: C_2  and  N_10 
REMARK    3  A    between atoms: C_3  and  N_4 
REMARK       I    between atoms: N_10  and  C_11 
REMARK       I    between atoms: C_11  and  N_13 
REMARK       I    between atoms: N_17  and  C_20 
ROOT
HETATM    1  N   UNL     1     -42.191 -49.596  11.907  1.00  0.00    -0.337 N 
HETATM    2  C   UNL     1     -41.945 -50.906  12.237  1.00  0.00     0.318 C 
HETATM    3  O   UNL     1     -41.044 -51.541  11.698  1.00  0.00    -0.247 OA
HETATM    4  N   UNL     1     -42.755 -51.430  13.236  1.00  0.00    -0.333 N 
HETATM    5  C   UNL     1     -43.887 -50.744  13.868  1.00  0.00     0.129 C 
HETATM    6  C   UNL     1     -45.200 -51.201  13.233  1.00  0.00     0.040 C 
HETATM    7  C   UNL     1     -45.800 -52.410  13.957  1.00  0.00     0.127 C 
HETATM    8  N   UNL     1     -44.844 -53.453  14.335  1.00  0.00    -0.351 N 
HETATM    9  C   UNL     1     -43.743 -53.736  13.398  1.00  0.00     0.145 C 
HETATM   10  C   UNL     1     -42.529 -52.825  13.652  1.00  0.00     0.147 C 
HETATM   11  C   UNL     1     -44.842 -54.149  15.538  1.00  0.00     0.215 C 
HETATM   12  O   UNL     1     -43.955 -54.964  15.810  1.00  0.00    -0.274 OA
HETATM   13  C   UNL     1     -45.923 -53.904  16.562  1.00  0.00     0.117 C 
HETATM   14  H   UNL     1     -43.159 -49.325  11.959  1.00  0.00     0.164 HD
ENDROOT
BRANCH   1  15
HETATM   15  C   UNL     1     -41.389 -48.880  10.900  1.00  0.00     0.102 C 
HETATM   16  C   UNL     1     -42.323 -47.936  10.135  1.00  0.00     0.034 C 
BRANCH  15  17
HETATM   17  C   UNL     1     -40.201 -48.126  11.536  1.00  0.00     0.172 C 
BRANCH  17  18
HETATM   18  N   UNL     1     -39.088 -48.981  11.898  1.00  0.00    -0.302 N 
HETATM   19  C   UNL     1     -38.458 -49.037  13.109  1.00  0.00     0.111 A 
HETATM   20  C   UNL     1     -37.413 -49.918  12.956  1.00  0.00     0.037 A 
HETATM   21  C   UNL     1     -37.499 -50.343  11.617  1.00  0.00     0.108 A 
HETATM   22  N   UNL     1     -38.519 -49.774  10.969  1.00  0.00    -0.310 N 
ATOM     23  HN  UNL     1     -38.801 -49.909   9.998  1.00  0.00     0.186 HD
ENDBRANCH  17  18
ENDBRANCH  15  17
ENDBRANCH   1  15
TORSDOF 3
ENDMDL
MODEL 2
REMARK VINA RESULT:      -5.6      2.641      3.431
REMARK  3 active torsions:
REMARK  status: ('A' for Active; 'I' for Inactive)
REMARK    1  A    between atoms: C_2  and  C_3 
REMARK    2  A    between atoms: C_2  and  N_10 
REMARK    3  A    between atoms: C_3  and  N_4 
REMARK       I    between atoms: N_10  and  C_11 
REMARK       I    between atoms: C_11  and  N_13 
REMARK       I    between atoms: N_17  and  C_20 
ROOT
HETATM    1  N   UNL     1     -42.888 -48.816  11.687  1.00  0.00    -0.337 N 
HETATM    2  C   UNL     1     -41.776 -49.619  11.749  1.00  0.00     0.318 C 
HETATM    3  O   UNL     1     -40.779 -49.382  11.075  1.00  0.00    -0.247 OA
HETATM    4  N   UNL     1     -41.855 -50.675  12.647  1.00  0.00    -0.333 N 
HETATM    5  C   UNL     1     -43.040 -51.048  13.428  1.00  0.00     0.129 C 
HETATM    6  C   UNL     1     -43.776 -52.203  12.749  1.00  0.00     0.040 C 
HETATM    7  C   UNL     1     -43.283 -53.568  13.239  1.00  0.00     0.127 C 
HETATM    8  N   UNL     1     -41.831 -53.696  13.384  1.00  0.00    -0.351 N 
HETATM    9  C   UNL     1     -40.987 -53.020  12.383  1.00  0.00     0.145 C 
HETATM   10  C   UNL     1     -40.687 -51.564  12.778  1.00  0.00     0.147 C 
HETATM   11  C   UNL     1     -41.177 -54.338  14.428  1.00  0.00     0.215 C 
HETATM   12  O   UNL     1     -39.946 -54.339  14.515  1.00  0.00    -0.274 OA
HETATM   13  C   UNL     1     -41.967 -55.038  15.506  1.00  0.00     0.117 C 
HETATM   14  H   UNL     1     -43.762 -49.299  11.814  1.00  0.00     0.164 HD
ENDROOT
BRANCH   1  15
HETATM   15  C   UNL     1     -42.945 -47.627  10.818  1.00  0.00     0.102 C 
HETATM   16  C   UNL     1     -44.305 -47.623  10.111  1.00  0.00     0.034 C 
BRANCH  15  17
HETATM   17  C   UNL     1     -42.701 -46.323  11.607  1.00  0.00     0.172 C 
BRANCH  17  18
HETATM   18  N   UNL     1     -41.413 -45.710  11.345  1.00  0.00    -0.302 N 
HETATM   19  C   UNL     1     -40.742 -44.836  12.152  1.00  0.00     0.111 A 
HETATM   20  C   UNL     1     -39.619 -44.455  11.455  1.00  0.00     0.037 A 
HETATM   21  C   UNL     1     -39.702 -45.158  10.237  1.00  0.00     0.108 A 
HETATM   22  N   UNL     1     -40.794 -45.923  10.167  1.00  0.00    -0.310 N 
ATOM     23  HN  UNL     1     -41.089 -46.529   9.400  1.00  0.00     0.186 HD
ENDBRANCH  17  18
ENDBRANCH  15  17
ENDBRANCH   1  15
TORSDOF 3
ENDMDL
MODEL 3
REMARK VINA RESULT:      -5.5      2.275      7.047
REMARK  3 active torsions:
REMARK  status: ('A' for Active; 'I' for Inactive)
REMARK    1  A    between atoms: C_2  and  C_3 
REMARK    2  A    between atoms: C_2  and  N_10 
REMARK    3  A    between atoms: C_3  and  N_4 
REMARK       I    between atoms: N_10  and  C_11 
REMARK       I    between atoms: C_11  and  N_13 
REMARK       I    between atoms: N_17  and  C_20 
ROOT
HETATM    1  N   UNL     1     -42.583 -52.044  12.758  1.00  0.00    -0.337 N 
HETATM    2  C   UNL     1     -41.487 -51.459  12.173  1.00  0.00     0.318 C 
HETATM    3  O   UNL     1     -40.525 -52.128  11.810  1.00  0.00    -0.247 OA
HETATM    4  N   UNL     1     -41.571 -50.085  11.994  1.00  0.00    -0.333 N 
HETATM    5  C   UNL     1     -42.662 -49.225  12.467  1.00  0.00     0.129 C 
HETATM    6  C   UNL     1     -42.265 -48.544  13.776  1.00  0.00     0.040 C 
HETATM    7  C   UNL     1     -41.584 -47.192  13.540  1.00  0.00     0.127 C 
HETATM    8  N   UNL     1     -40.605 -47.165  12.451  1.00  0.00    -0.351 N 
HETATM    9  C   UNL     1     -39.763 -48.359  12.266  1.00  0.00     0.145 C 
HETATM   10  C   UNL     1     -40.437 -49.398  11.353  1.00  0.00     0.147 C 
HETATM   11  C   UNL     1     -40.452 -46.138  11.528  1.00  0.00     0.215 C 
HETATM   12  O   UNL     1     -39.650 -46.224  10.594  1.00  0.00    -0.274 OA
HETATM   13  C   UNL     1     -41.291 -44.888  11.634  1.00  0.00     0.117 C 
HETATM   14  H   UNL     1     -43.040 -51.477  13.453  1.00  0.00     0.164 HD
ENDROOT
BRANCH   1  15
HETATM   15  C   UNL     1     -42.669 -53.499  12.976  1.00  0.00     0.102 C 
HETATM   16  C   UNL     1     -42.077 -53.808  14.355  1.00  0.00     0.034 C 
BRANCH  15  17
HETATM   17  C   UNL     1     -44.117 -54.019  12.840  1.00  0.00     0.172 C 
BRANCH  17  18
HETATM   18  N   UNL     1     -45.129 -53.002  13.053  1.00  0.00    -0.302 N 
HETATM   19  C   UNL     1     -45.617 -52.570  14.253  1.00  0.00     0.111 A 
HETATM   20  C   UNL     1     -46.616 -51.673  13.959  1.00  0.00     0.037 A 
HETATM   21  C   UNL     1     -46.652 -51.629  12.553  1.00  0.00     0.108 A 
HETATM   22  N   UNL     1     -45.747 -52.437  11.997  1.00  0.00    -0.310 N 
ATOM     23  HN  UNL     1     -45.566 -52.591  11.004  1.00  0.00     0.186 HD
ENDBRANCH  17  18
ENDBRANCH  15  17
ENDBRANCH   1  15
TORSDOF 3
ENDMDL
MODEL 4
REMARK VINA RESULT:      -5.4      3.137      6.697
REMARK  3 active torsions:
REMARK  status: ('A' for Active; 'I' for Inactive)
REMARK    1  A    between atoms: C_2  and  C_3 
REMARK    2  A    between atoms: C_2  and  N_10 
REMARK    3  A    between atoms: C_3  and  N_4 
REMARK       I    between atoms: N_10  and  C_11 
REMARK       I    between atoms: C_11  and  N_13 
REMARK       I    between atoms: N_17  and  C_20 
ROOT
HETATM    1  N   UNL     1     -43.931 -50.758  12.713  1.00  0.00    -0.337 N 
HETATM    2  C   UNL     1     -43.483 -49.762  13.546  1.00  0.00     0.318 C 
HETATM    3  O   UNL     1     -43.737 -49.773  14.746  1.00  0.00    -0.247 OA
HETATM    4  N   UNL     1     -42.704 -48.786  12.941  1.00  0.00    -0.333 N 
HETATM    5  C   UNL     1     -42.422 -48.684  11.504  1.00  0.00     0.129 C 
HETATM    6  C   UNL     1     -43.352 -47.658  10.858  1.00  0.00     0.040 C 
HETATM    7  C   UNL     1     -42.749 -46.250  10.862  1.00  0.00     0.127 C 
HETATM    8  N   UNL     1     -42.084 -45.856  12.106  1.00  0.00    -0.351 N 
HETATM    9  C   UNL     1     -42.687 -46.309  13.371  1.00  0.00     0.145 C 
HETATM   10  C   UNL     1     -42.174 -47.700  13.783  1.00  0.00     0.147 C 
HETATM   11  C   UNL     1     -40.888 -45.153  12.195  1.00  0.00     0.215 C 
HETATM   12  O   UNL     1     -40.354 -44.923  13.284  1.00  0.00    -0.274 OA
HETATM   13  C   UNL     1     -40.193 -44.671  10.945  1.00  0.00     0.117 C 
HETATM   14  H   UNL     1     -44.146 -50.457  11.777  1.00  0.00     0.164 HD
ENDROOT
BRANCH   1  15
HETATM   15  C   UNL     1     -44.730 -51.892  13.209  1.00  0.00     0.102 C 
HETATM   16  C   UNL     1     -46.203 -51.602  12.903  1.00  0.00     0.034 C 
BRANCH  15  17
HETATM   17  C   UNL     1     -44.268 -53.234  12.602  1.00  0.00     0.172 C 
BRANCH  17  18
HETATM   18  N   UNL     1     -42.992 -53.700  13.107  1.00  0.00    -0.302 N 
HETATM   19  C   UNL     1     -42.704 -54.075  14.389  1.00  0.00     0.111 A 
HETATM   20  C   UNL     1     -41.357 -54.349  14.416  1.00  0.00     0.037 A 
HETATM   21  C   UNL     1     -40.921 -54.113  13.098  1.00  0.00     0.108 A 
HETATM   22  N   UNL     1     -41.913 -53.717  12.298  1.00  0.00    -0.310 N 
ATOM     23  HN  UNL     1     -41.867 -53.484  11.306  1.00  0.00     0.186 HD
ENDBRANCH  17  18
ENDBRANCH  15  17
ENDBRANCH   1  15
TORSDOF 3
ENDMDL
MODEL 5
REMARK VINA RESULT:      -5.4      1.723      3.257
REMARK  3 active torsions:
REMARK  status: ('A' for Active; 'I' for Inactive)
REMARK    1  A    between atoms: C_2  and  C_3 
REMARK    2  A    between atoms: C_2  and  N_10 
REMARK    3  A    between atoms: C_3  and  N_4 
REMARK       I    between atoms: N_10  and  C_11 
REMARK       I    between atoms: C_11  and  N_13 
REMARK       I    between atoms: N_17  and  C_20 
ROOT
HETATM    1  N   UNL     1     -39.858 -51.098  13.029  1.00  0.00    -0.337 N 
HETATM    2  C   UNL     1     -41.053 -50.804  13.638  1.00  0.00     0.318 C 
HETATM    3  O   UNL     1     -41.240 -49.723  14.186  1.00  0.00    -0.247 OA
HETATM    4  N   UNL     1     -42.024 -51.792  13.549  1.00  0.00    -0.333 N 
HETATM    5  C   UNL     1     -41.838 -53.126  12.967  1.00  0.00     0.129 C 
HETATM    6  C   UNL     1     -41.584 -54.151  14.072  1.00  0.00     0.040 C 
HETATM    7  C   UNL     1     -42.882 -54.785  14.580  1.00  0.00     0.127 C 
HETATM    8  N   UNL     1     -43.998 -53.857  14.776  1.00  0.00    -0.351 N 
HETATM    9  C   UNL     1     -43.682 -52.515  15.295  1.00  0.00     0.145 C 
HETATM   10  C   UNL     1     -43.337 -51.531  14.164  1.00  0.00     0.147 C 
HETATM   11  C   UNL     1     -45.324 -54.107  14.443  1.00  0.00     0.215 C 
HETATM   12  O   UNL     1     -46.196 -53.243  14.573  1.00  0.00    -0.274 OA
HETATM   13  C   UNL     1     -45.730 -55.449  13.886  1.00  0.00     0.117 C 
HETATM   14  H   UNL     1     -39.590 -52.067  13.077  1.00  0.00     0.164 HD
ENDROOT
BRANCH   1  15
HETATM   15  C   UNL     1     -38.741 -50.137  12.994  1.00  0.00     0.102 C 
HETATM   16  C   UNL     1     -37.455 -50.892  13.344  1.00  0.00     0.034 C 
BRANCH  15  17
HETATM   17  C   UNL     1     -38.637 -49.422  11.629  1.00  0.00     0.172 C 
BRANCH  17  18
HETATM   18  N   UNL     1     -39.799 -48.624  11.293  1.00  0.00    -0.302 N 
HETATM   19  C   UNL     1     -40.109 -47.382  11.774  1.00  0.00     0.111 A 
HETATM   20  C   UNL     1     -41.339 -47.064  11.250  1.00  0.00     0.037 A 
HETATM   21  C   UNL     1     -41.688 -48.177  10.462  1.00  0.00     0.108 A 
HETATM   22  N   UNL     1     -40.753 -49.129  10.485  1.00  0.00    -0.310 N 
ATOM     23  HN  UNL     1     -40.758 -50.029  10.004  1.00  0.00     0.186 HD
ENDBRANCH  17  18
ENDBRANCH  15  17
ENDBRANCH   1  15
TORSDOF 3
ENDMDL
MODEL 6
REMARK VINA RESULT:      -5.2      1.936      7.116
REMARK  3 active torsions:
REMARK  status: ('A' for Active; 'I' for Inactive)
REMARK    1  A    between atoms: C_2  and  C_3 
REMARK    2  A    between atoms: C_2  and  N_10 
REMARK    3  A    between atoms: C_3  and  N_4 
REMARK       I    between atoms: N_10  and  C_11 
REMARK       I    between atoms: C_11  and  N_13 
REMARK       I    between atoms: N_17  and  C_20 
ROOT
HETATM    1  N   UNL     1     -42.385 -52.692  14.320  1.00  0.00    -0.337 N 
HETATM    2  C   UNL     1     -42.250 -52.048  13.114  1.00  0.00     0.318 C 
HETATM    3  O   UNL     1     -42.579 -52.588  12.063  1.00  0.00    -0.247 OA
HETATM    4  N   UNL     1     -41.757 -50.753  13.184  1.00  0.00    -0.333 N 
HETATM    5  C   UNL     1     -41.285 -50.080  14.399  1.00  0.00     0.129 C 
HETATM    6  C   UNL     1     -39.760 -50.148  14.479  1.00  0.00     0.040 C 
HETATM    7  C   UNL     1     -39.093 -48.944  13.807  1.00  0.00     0.127 C 
HETATM    8  N   UNL     1     -39.676 -48.538  12.526  1.00  0.00    -0.351 N 
HETATM    9  C   UNL     1     -40.150 -49.605  11.628  1.00  0.00     0.145 C 
HETATM   10  C   UNL     1     -41.607 -49.999  11.927  1.00  0.00     0.147 C 
HETATM   11  C   UNL     1     -39.890 -47.228  12.116  1.00  0.00     0.215 C 
HETATM   12  O   UNL     1     -40.455 -46.970  11.049  1.00  0.00    -0.274 OA
HETATM   13  C   UNL     1     -39.453 -46.076  12.987  1.00  0.00     0.117 C 
HETATM   14  H   UNL     1     -41.680 -52.462  15.000  1.00  0.00     0.164 HD
ENDROOT
BRANCH   1  15
HETATM   15  C   UNL     1     -42.937 -54.054  14.421  1.00  0.00     0.102 C 
HETATM   16  C   UNL     1     -42.010 -54.875  15.324  1.00  0.00     0.034 C 
BRANCH  15  17
HETATM   17  C   UNL     1     -44.392 -54.052  14.938  1.00  0.00     0.172 C 
BRANCH  17  18
HETATM   18  N   UNL     1     -45.246 -53.078  14.287  1.00  0.00    -0.302 N 
HETATM   19  C   UNL     1     -45.870 -52.013  14.873  1.00  0.00     0.111 A 
HETATM   20  C   UNL     1     -46.637 -51.432  13.891  1.00  0.00     0.037 A 
HETATM   21  C   UNL     1     -46.406 -52.217  12.747  1.00  0.00     0.108 A 
HETATM   22  N   UNL     1     -45.558 -53.221  12.983  1.00  0.00    -0.310 N 
ATOM     23  HN  UNL     1     -45.224 -53.930  12.330  1.00  0.00     0.186 HD
ENDBRANCH  17  18
ENDBRANCH  15  17
ENDBRANCH   1  15
TORSDOF 3
ENDMDL
MODEL 7
REMARK VINA RESULT:      -5.2      4.613      7.249
REMARK  3 active torsions:
REMARK  status: ('A' for Active; 'I' for Inactive)
REMARK    1  A    between atoms: C_2  and  C_3 
REMARK    2  A    between atoms: C_2  and  N_10 
REMARK    3  A    between atoms: C_3  and  N_4 
REMARK       I    between atoms: N_10  and  C_11 
REMARK       I    between atoms: C_11  and  N_13 
REMARK       I    between atoms: N_17  and  C_20 
ROOT
HETATM    1  N   UNL     1     -40.432 -47.616  12.883  1.00  0.00    -0.337 N 
HETATM    2  C   UNL     1     -39.376 -48.472  13.073  1.00  0.00     0.318 C 
HETATM    3  O   UNL     1     -39.245 -49.484  12.391  1.00  0.00    -0.247 OA
HETATM    4  N   UNL     1     -38.467 -48.089  14.049  1.00  0.00    -0.333 N 
HETATM    5  C   UNL     1     -38.605 -46.930  14.939  1.00  0.00     0.129 C 
HETATM    6  C   UNL     1     -39.144 -47.372  16.299  1.00  0.00     0.040 C 
HETATM    7  C   UNL     1     -38.020 -47.725  17.278  1.00  0.00     0.127 C 
HETATM    8  N   UNL     1     -36.917 -48.505  16.713  1.00  0.00    -0.351 N 
HETATM    9  C   UNL     1     -37.256 -49.533  15.713  1.00  0.00     0.145 C 
HETATM   10  C   UNL     1     -37.299 -48.953  14.289  1.00  0.00     0.147 C 
HETATM   11  C   UNL     1     -35.568 -48.309  16.982  1.00  0.00     0.215 C 
HETATM   12  O   UNL     1     -34.694 -48.964  16.406  1.00  0.00    -0.274 OA
HETATM   13  C   UNL     1     -35.134 -47.262  17.977  1.00  0.00     0.117 C 
HETATM   14  H   UNL     1     -40.761 -47.163  13.720  1.00  0.00     0.164 HD
ENDROOT
BRANCH   1  15
HETATM   15  C   UNL     1     -41.459 -47.857  11.853  1.00  0.00     0.102 C 
HETATM   16  C   UNL     1     -42.834 -47.736  12.518  1.00  0.00     0.034 C 
BRANCH  15  17
HETATM   17  C   UNL     1     -41.311 -46.895  10.654  1.00  0.00     0.172 C 
BRANCH  17  18
HETATM   18  N   UNL     1     -42.450 -46.894   9.758  1.00  0.00    -0.302 N 
HETATM   19  C   UNL     1     -43.370 -45.897   9.602  1.00  0.00     0.111 A 
HETATM   20  C   UNL     1     -44.309 -46.376   8.719  1.00  0.00     0.037 A 
HETATM   21  C   UNL     1     -43.864 -47.671   8.396  1.00  0.00     0.108 A 
HETATM   22  N   UNL     1     -42.731 -47.991   9.026  1.00  0.00    -0.310 N 
ATOM     23  HN  UNL     1     -42.203 -48.862   8.967  1.00  0.00     0.186 HD
ENDBRANCH  17  18
ENDBRANCH  15  17
ENDBRANCH   1  15
TORSDOF 3
ENDMDL
MODEL 8
REMARK VINA RESULT:      -5.1      2.872      3.791
REMARK  3 active torsions:
REMARK  status: ('A' for Active; 'I' for Inactive)
REMARK    1  A    between atoms: C_2  and  C_3 
REMARK    2  A    between atoms: C_2  and  N_10 
REMARK    3  A    between atoms: C_3  and  N_4 
REMARK       I    between atoms: N_10  and  C_11 
REMARK       I    between atoms: C_11  and  N_13 
REMARK       I    between atoms: N_17  and  C_20 
ROOT
HETATM    1  N   UNL     1     -39.304 -51.245  13.693  1.00  0.00    -0.337 N 
HETATM    2  C   UNL     1     -39.810 -52.267  14.458  1.00  0.00     0.318 C 
HETATM    3  O   UNL     1     -39.077 -52.977  15.139  1.00  0.00    -0.247 OA
HETATM    4  N   UNL     1     -41.191 -52.404  14.429  1.00  0.00    -0.333 N 
HETATM    5  C   UNL     1     -42.110 -51.631  13.585  1.00  0.00     0.129 C 
HETATM    6  C   UNL     1     -42.488 -52.438  12.343  1.00  0.00     0.040 C 
HETATM    7  C   UNL     1     -43.743 -53.288  12.567  1.00  0.00     0.127 C 
HETATM    8  N   UNL     1     -43.810 -53.979  13.857  1.00  0.00    -0.351 N 
HETATM    9  C   UNL     1     -42.553 -54.517  14.405  1.00  0.00     0.145 C 
HETATM   10  C   UNL     1     -41.801 -53.469  15.243  1.00  0.00     0.147 C 
HETATM   11  C   UNL     1     -44.947 -54.106  14.646  1.00  0.00     0.215 C 
HETATM   12  O   UNL     1     -44.904 -54.642  15.757  1.00  0.00    -0.274 OA
HETATM   13  C   UNL     1     -46.271 -53.564  14.167  1.00  0.00     0.117 C 
HETATM   14  H   UNL     1     -39.804 -51.074  12.837  1.00  0.00     0.164 HD
ENDROOT
BRANCH   1  15
HETATM   15  C   UNL     1     -37.863 -50.938  13.653  1.00  0.00     0.102 C 
HETATM   16  C   UNL     1     -37.476 -50.675  12.194  1.00  0.00     0.034 C 
BRANCH  15  17
HETATM   17  C   UNL     1     -37.498 -49.751  14.570  1.00  0.00     0.172 C 
BRANCH  17  18
HETATM   18  N   UNL     1     -36.921 -50.145  15.840  1.00  0.00    -0.302 N 
HETATM   19  C   UNL     1     -35.611 -50.039  16.214  1.00  0.00     0.111 A 
HETATM   20  C   UNL     1     -35.520 -50.618  17.457  1.00  0.00     0.037 A 
HETATM   21  C   UNL     1     -36.830 -51.041  17.750  1.00  0.00     0.108 A 
HETATM   22  N   UNL     1     -37.687 -50.754  16.767  1.00  0.00    -0.310 N 
ATOM     23  HN  UNL     1     -38.688 -50.950  16.728  1.00  0.00     0.186 HD
ENDBRANCH  17  18
ENDBRANCH  15  17
ENDBRANCH   1  15
TORSDOF 3
ENDMDL
MODEL 9
REMARK VINA RESULT:      -5.1      2.409      7.037
REMARK  3 active torsions:
REMARK  status: ('A' for Active; 'I' for Inactive)
REMARK    1  A    between atoms: C_2  and  C_3 
REMARK    2  A    between atoms: C_2  and  N_10 
REMARK    3  A    between atoms: C_3  and  N_4 
REMARK       I    between atoms: N_10  and  C_11 
REMARK       I    between atoms: C_11  and  N_13 
REMARK       I    between atoms: N_17  and  C_20 
ROOT
HETATM    1  N   UNL     1     -42.960 -51.641  15.560  1.00  0.00    -0.337 N 
HETATM    2  C   UNL     1     -41.706 -52.197  15.509  1.00  0.00     0.318 C 
HETATM    3  O   UNL     1     -41.359 -53.062  16.308  1.00  0.00    -0.247 OA
HETATM    4  N   UNL     1     -40.894 -51.741  14.480  1.00  0.00    -0.333 N 
HETATM    5  C   UNL     1     -41.228 -50.665  13.539  1.00  0.00     0.129 C 
HETATM    6  C   UNL     1     -40.576 -49.356  13.984  1.00  0.00     0.040 C 
HETATM    7  C   UNL     1     -39.183 -49.170  13.376  1.00  0.00     0.127 C 
HETATM    8  N   UNL     1     -38.337 -50.366  13.366  1.00  0.00    -0.351 N 
HETATM    9  C   UNL     1     -38.425 -51.268  14.527  1.00  0.00     0.145 C 
HETATM   10  C   UNL     1     -39.542 -52.313  14.356  1.00  0.00     0.147 C 
HETATM   11  C   UNL     1     -37.513 -50.763  12.321  1.00  0.00     0.215 C 
HETATM   12  O   UNL     1     -36.886 -51.826  12.362  1.00  0.00    -0.274 OA
HETATM   13  C   UNL     1     -37.382 -49.906  11.085  1.00  0.00     0.117 C 
HETATM   14  H   UNL     1     -43.002 -50.675  15.283  1.00  0.00     0.164 HD
ENDROOT
BRANCH   1  15
HETATM   15  C   UNL     1     -43.957 -52.052  16.564  1.00  0.00     0.102 C 
HETATM   16  C   UNL     1     -44.538 -50.785  17.200  1.00  0.00     0.034 C 
BRANCH  15  17
HETATM   17  C   UNL     1     -45.057 -52.948  15.954  1.00  0.00     0.172 C 
BRANCH  17  18
HETATM   18  N   UNL     1     -45.477 -52.542  14.627  1.00  0.00    -0.302 N 
HETATM   19  C   UNL     1     -46.331 -51.522  14.314  1.00  0.00     0.111 A 
HETATM   20  C   UNL     1     -46.502 -51.571  12.951  1.00  0.00     0.037 A 
HETATM   21  C   UNL     1     -45.706 -52.654  12.531  1.00  0.00     0.108 A 
HETATM   22  N   UNL     1     -45.080 -53.247  13.550  1.00  0.00    -0.310 N 
ATOM     23  HN  UNL     1     -44.448 -54.048  13.520  1.00  0.00     0.186 HD
ENDBRANCH  17  18
ENDBRANCH  15  17
ENDBRANCH   1  15
TORSDOF 3
ENDMDL
