MODEL 1
REMARK VINA RESULT:      -6.1      0.000      0.000
REMARK  4 active torsions:
REMARK  status: ('A' for Active; 'I' for Inactive)
REMARK    1  A    between atoms: C_2  and  C_5 
REMARK       I    between atoms: N_9  and  C_11 
REMARK       I    between atoms: C_11  and  N_13 
REMARK    2  A    between atoms: N_13  and  C_14 
REMARK    3  A    between atoms: C_14  and  C_15 
REMARK    4  A    between atoms: C_15  and  N_16 
ROOT
HETATM    1  C   UNL     1     -46.809 -52.414  14.159  1.00  0.00     0.111 C 
HETATM    2  C   UNL     1     -46.988 -51.365  15.269  1.00  0.00     0.017 C 
HETATM    3  C   UNL     1     -45.673 -51.028  15.973  1.00  0.00     0.021 C 
HETATM    4  C   UNL     1     -44.980 -52.293  16.472  1.00  0.00     0.127 C 
HETATM    5  N   UNL     1     -44.808 -53.242  15.371  1.00  0.00    -0.334 N 
HETATM    6  C   UNL     1     -46.045 -53.630  14.690  1.00  0.00     0.141 C 
HETATM    7  C   UNL     1     -43.649 -53.936  15.062  1.00  0.00     0.318 C 
HETATM    8  O   UNL     1     -43.627 -54.889  14.289  1.00  0.00    -0.247 OA
HETATM    9  N   UNL     1     -42.506 -53.471  15.670  1.00  0.00    -0.341 N 
HETATM   10  H   UNL     1     -42.497 -52.468  15.777  1.00  0.00     0.164 HD
ENDROOT
BRANCH   9  11
HETATM   11  C   UNL     1     -41.234 -54.078  15.298  1.00  0.00     0.144 C 
BRANCH  11  12
HETATM   12  C   UNL     1     -40.231 -53.056  14.778  1.00  0.00     0.149 C 
BRANCH  12  13
HETATM   13  N   UNL     1     -40.609 -52.518  13.488  1.00  0.00    -0.350 N 
HETATM   14  C   UNL     1     -40.674 -51.194  13.150  1.00  0.00     0.108 A 
HETATM   15  C   UNL     1     -41.046 -51.188  11.825  1.00  0.00     0.106 A 
HETATM   16  N   UNL     1     -41.205 -52.468  11.356  1.00  0.00    -0.361 N 
HETATM   17  C   UNL     1     -40.934 -53.247  12.381  1.00  0.00     0.182 A 
ATOM     18  HN  UNL     1     -41.474 -52.753  10.415  1.00  0.00     0.166 HD
ENDBRANCH  12  13
ENDBRANCH  11  12
ENDBRANCH   9  11
BRANCH   1  19
HETATM   19  C   UNL     1     -46.163 -51.856  12.891  1.00  0.00     0.393 C 
HETATM   20  F   UNL     1     -47.072 -51.297  12.060  1.00  0.00    -0.171 F 
HETATM   21  F   UNL     1     -45.569 -52.859  12.200  1.00  0.00    -0.171 F 
HETATM   22  F   UNL     1     -45.218 -50.925  13.129  1.00  0.00    -0.171 F 
ENDBRANCH   1  19
TORSDOF 4
ENDMDL
MODEL 2
REMARK VINA RESULT:      -5.8      1.907      2.461
REMARK  4 active torsions:
REMARK  status: ('A' for Active; 'I' for Inactive)
REMARK    1  A    between atoms: C_2  and  C_5 
REMARK       I    between atoms: N_9  and  C_11 
REMARK       I    between atoms: C_11  and  N_13 
REMARK    2  A    between atoms: N_13  and  C_14 
REMARK    3  A    between atoms: C_14  and  C_15 
REMARK    4  A    between atoms: C_15  and  N_16 
ROOT
HETATM    1  C   UNL     1     -46.310 -53.117  13.996  1.00  0.00     0.111 C 
HETATM    2  C   UNL     1     -46.337 -53.640  15.441  1.00  0.00     0.017 C 
HETATM    3  C   UNL     1     -45.002 -53.439  16.161  1.00  0.00     0.021 C 
HETATM    4  C   UNL     1     -43.850 -54.025  15.350  1.00  0.00     0.127 C 
HETATM    5  N   UNL     1     -43.853 -53.470  13.995  1.00  0.00    -0.334 N 
HETATM    6  C   UNL     1     -45.096 -53.674  13.247  1.00  0.00     0.141 C 
HETATM    7  C   UNL     1     -42.756 -52.971  13.312  1.00  0.00     0.318 C 
HETATM    8  O   UNL     1     -42.766 -52.745  12.106  1.00  0.00    -0.247 OA
HETATM    9  N   UNL     1     -41.646 -52.722  14.085  1.00  0.00    -0.341 N 
HETATM   10  H   UNL     1     -41.876 -52.392  15.010  1.00  0.00     0.164 HD
ENDROOT
BRANCH   9  11
HETATM   11  C   UNL     1     -40.497 -52.086  13.454  1.00  0.00     0.144 C 
BRANCH  11  12
HETATM   12  C   UNL     1     -40.490 -50.574  13.645  1.00  0.00     0.149 C 
BRANCH  12  13
HETATM   13  N   UNL     1     -40.979 -49.868  12.479  1.00  0.00    -0.350 N 
HETATM   14  C   UNL     1     -42.110 -49.102  12.410  1.00  0.00     0.108 A 
HETATM   15  C   UNL     1     -42.132 -48.623  11.120  1.00  0.00     0.106 A 
HETATM   16  N   UNL     1     -41.048 -49.077  10.412  1.00  0.00    -0.361 N 
HETATM   17  C   UNL     1     -40.371 -49.824  11.257  1.00  0.00     0.182 A 
ATOM     18  HN  UNL     1     -40.816 -48.877   9.440  1.00  0.00     0.166 HD
ENDBRANCH  12  13
ENDBRANCH  11  12
ENDBRANCH   9  11
BRANCH   1  19
HETATM   19  C   UNL     1     -46.377 -51.593  13.898  1.00  0.00     0.393 C 
HETATM   20  F   UNL     1     -47.281 -51.068  14.758  1.00  0.00    -0.171 F 
HETATM   21  F   UNL     1     -46.770 -51.230  12.653  1.00  0.00    -0.171 F 
HETATM   22  F   UNL     1     -45.201 -50.981  14.136  1.00  0.00    -0.171 F 
ENDBRANCH   1  19
TORSDOF 4
ENDMDL
MODEL 3
REMARK VINA RESULT:      -5.7      2.019      2.507
REMARK  4 active torsions:
REMARK  status: ('A' for Active; 'I' for Inactive)
REMARK    1  A    between atoms: C_2  and  C_5 
REMARK       I    between atoms: N_9  and  C_11 
REMARK       I    between atoms: C_11  and  N_13 
REMARK    2  A    between atoms: N_13  and  C_14 
REMARK    3  A    between atoms: C_14  and  C_15 
REMARK    4  A    between atoms: C_15  and  N_16 
ROOT
HETATM    1  C   UNL     1     -46.558 -53.089  14.611  1.00  0.00     0.111 C 
HETATM    2  C   UNL     1     -46.337 -53.627  16.034  1.00  0.00     0.017 C 
HETATM    3  C   UNL     1     -44.862 -53.612  16.442  1.00  0.00     0.021 C 
HETATM    4  C   UNL     1     -44.001 -54.330  15.407  1.00  0.00     0.127 C 
HETATM    5  N   UNL     1     -44.228 -53.759  14.079  1.00  0.00    -0.334 N 
HETATM    6  C   UNL     1     -45.619 -53.788  13.622  1.00  0.00     0.141 C 
HETATM    7  C   UNL     1     -43.250 -53.396  13.166  1.00  0.00     0.318 C 
HETATM    8  O   UNL     1     -43.495 -53.153  11.988  1.00  0.00    -0.247 OA
HETATM    9  N   UNL     1     -41.976 -53.305  13.674  1.00  0.00    -0.341 N 
HETATM   10  H   UNL     1     -41.954 -52.962  14.622  1.00  0.00     0.164 HD
ENDROOT
BRANCH   9  11
HETATM   11  C   UNL     1     -40.919 -52.814  12.799  1.00  0.00     0.144 C 
BRANCH  11  12
HETATM   12  C   UNL     1     -39.937 -51.904  13.525  1.00  0.00     0.149 C 
BRANCH  12  13
HETATM   13  N   UNL     1     -39.201 -51.049  12.618  1.00  0.00    -0.350 N 
HETATM   14  C   UNL     1     -37.846 -50.861  12.602  1.00  0.00     0.108 A 
HETATM   15  C   UNL     1     -37.625 -49.996  11.554  1.00  0.00     0.106 A 
HETATM   16  N   UNL     1     -38.804 -49.661  10.939  1.00  0.00    -0.361 N 
HETATM   17  C   UNL     1     -39.736 -50.311  11.602  1.00  0.00     0.182 A 
ATOM     18  HN  UNL     1     -38.931 -49.041  10.140  1.00  0.00     0.166 HD
ENDBRANCH  12  13
ENDBRANCH  11  12
ENDBRANCH   9  11
BRANCH   1  19
HETATM   19  C   UNL     1     -46.446 -51.568  14.509  1.00  0.00     0.393 C 
HETATM   20  F   UNL     1     -47.159 -50.941  15.473  1.00  0.00    -0.171 F 
HETATM   21  F   UNL     1     -46.948 -51.150  13.322  1.00  0.00    -0.171 F 
HETATM   22  F   UNL     1     -45.182 -51.110  14.588  1.00  0.00    -0.171 F 
ENDBRANCH   1  19
TORSDOF 4
ENDMDL
MODEL 4
REMARK VINA RESULT:      -5.7      1.871      2.709
REMARK  4 active torsions:
REMARK  status: ('A' for Active; 'I' for Inactive)
REMARK    1  A    between atoms: C_2  and  C_5 
REMARK       I    between atoms: N_9  and  C_11 
REMARK       I    between atoms: C_11  and  N_13 
REMARK    2  A    between atoms: N_13  and  C_14 
REMARK    3  A    between atoms: C_14  and  C_15 
REMARK    4  A    between atoms: C_15  and  N_16 
ROOT
HETATM    1  C   UNL     1     -46.006 -54.162  15.130  1.00  0.00     0.111 C 
HETATM    2  C   UNL     1     -47.060 -53.171  14.607  1.00  0.00     0.017 C 
HETATM    3  C   UNL     1     -46.436 -51.881  14.074  1.00  0.00     0.021 C 
HETATM    4  C   UNL     1     -45.509 -51.253  15.111  1.00  0.00     0.127 C 
HETATM    5  N   UNL     1     -44.509 -52.227  15.550  1.00  0.00    -0.334 N 
HETATM    6  C   UNL     1     -45.057 -53.466  16.110  1.00  0.00     0.141 C 
HETATM    7  C   UNL     1     -43.147 -52.005  15.670  1.00  0.00     0.318 C 
HETATM    8  O   UNL     1     -42.396 -52.771  16.267  1.00  0.00    -0.247 OA
HETATM    9  N   UNL     1     -42.680 -50.868  15.053  1.00  0.00    -0.341 N 
HETATM   10  H   UNL     1     -43.167 -50.658  14.195  1.00  0.00     0.164 HD
ENDROOT
BRANCH   9  11
HETATM   11  C   UNL     1     -41.242 -50.635  15.038  1.00  0.00     0.144 C 
BRANCH  11  12
HETATM   12  C   UNL     1     -40.620 -50.918  13.676  1.00  0.00     0.149 C 
BRANCH  12  13
HETATM   13  N   UNL     1     -40.455 -52.334  13.427  1.00  0.00    -0.350 N 
HETATM   14  C   UNL     1     -39.667 -53.196  14.140  1.00  0.00     0.108 A 
HETATM   15  C   UNL     1     -39.863 -54.423  13.548  1.00  0.00     0.106 A 
HETATM   16  N   UNL     1     -40.747 -54.325  12.503  1.00  0.00    -0.361 N 
HETATM   17  C   UNL     1     -41.086 -53.055  12.455  1.00  0.00     0.182 A 
ATOM     18  HN  UNL     1     -41.071 -55.076  11.894  1.00  0.00     0.166 HD
ENDBRANCH  12  13
ENDBRANCH  11  12
ENDBRANCH   9  11
BRANCH   1  19
HETATM   19  C   UNL     1     -45.239 -54.878  14.019  1.00  0.00     0.393 C 
HETATM   20  F   UNL     1     -45.867 -56.006  13.613  1.00  0.00    -0.171 F 
HETATM   21  F   UNL     1     -44.020 -55.256  14.475  1.00  0.00    -0.171 F 
HETATM   22  F   UNL     1     -45.035 -54.121  12.924  1.00  0.00    -0.171 F 
ENDBRANCH   1  19
TORSDOF 4
ENDMDL
MODEL 5
REMARK VINA RESULT:      -5.7      2.451      3.193
REMARK  4 active torsions:
REMARK  status: ('A' for Active; 'I' for Inactive)
REMARK    1  A    between atoms: C_2  and  C_5 
REMARK       I    between atoms: N_9  and  C_11 
REMARK       I    between atoms: C_11  and  N_13 
REMARK    2  A    between atoms: N_13  and  C_14 
REMARK    3  A    between atoms: C_14  and  C_15 
REMARK    4  A    between atoms: C_15  and  N_16 
ROOT
HETATM    1  C   UNL     1     -45.711 -53.544  13.261  1.00  0.00     0.111 C 
HETATM    2  C   UNL     1     -45.435 -54.925  13.877  1.00  0.00     0.017 C 
HETATM    3  C   UNL     1     -44.139 -54.956  14.688  1.00  0.00     0.021 C 
HETATM    4  C   UNL     1     -42.964 -54.441  13.861  1.00  0.00     0.127 C 
HETATM    5  N   UNL     1     -43.268 -53.113  13.325  1.00  0.00    -0.334 N 
HETATM    6  C   UNL     1     -44.479 -53.039  12.504  1.00  0.00     0.141 C 
HETATM    7  C   UNL     1     -42.432 -52.008  13.354  1.00  0.00     0.318 C 
HETATM    8  O   UNL     1     -42.635 -51.000  12.684  1.00  0.00    -0.247 OA
HETATM    9  N   UNL     1     -41.357 -52.106  14.207  1.00  0.00    -0.341 N 
HETATM   10  H   UNL     1     -41.569 -52.619  15.049  1.00  0.00     0.164 HD
ENDROOT
BRANCH   9  11
HETATM   11  C   UNL     1     -40.505 -50.936  14.376  1.00  0.00     0.144 C 
BRANCH  11  12
HETATM   12  C   UNL     1     -39.036 -51.243  14.115  1.00  0.00     0.149 C 
BRANCH  12  13
HETATM   13  N   UNL     1     -38.577 -50.712  12.849  1.00  0.00    -0.350 N 
HETATM   14  C   UNL     1     -37.292 -50.730  12.380  1.00  0.00     0.108 A 
HETATM   15  C   UNL     1     -37.364 -50.143  11.137  1.00  0.00     0.106 A 
HETATM   16  N   UNL     1     -38.652 -49.775  10.844  1.00  0.00    -0.361 N 
HETATM   17  C   UNL     1     -39.360 -50.131  11.894  1.00  0.00     0.182 A 
ATOM     18  HN  UNL     1     -38.989 -49.323   9.994  1.00  0.00     0.166 HD
ENDBRANCH  12  13
ENDBRANCH  11  12
ENDBRANCH   9  11
BRANCH   1  19
HETATM   19  C   UNL     1     -46.208 -52.513  14.274  1.00  0.00     0.393 C 
HETATM   20  F   UNL     1     -47.349 -52.908  14.883  1.00  0.00    -0.171 F 
HETATM   21  F   UNL     1     -46.489 -51.348  13.641  1.00  0.00    -0.171 F 
HETATM   22  F   UNL     1     -45.317 -52.231  15.244  1.00  0.00    -0.171 F 
ENDBRANCH   1  19
TORSDOF 4
ENDMDL
MODEL 6
REMARK VINA RESULT:      -5.4      2.642      3.523
REMARK  4 active torsions:
REMARK  status: ('A' for Active; 'I' for Inactive)
REMARK    1  A    between atoms: C_2  and  C_5 
REMARK       I    between atoms: N_9  and  C_11 
REMARK       I    between atoms: C_11  and  N_13 
REMARK    2  A    between atoms: N_13  and  C_14 
REMARK    3  A    between atoms: C_14  and  C_15 
REMARK    4  A    between atoms: C_15  and  N_16 
ROOT
HETATM    1  C   UNL     1     -45.565 -53.968  15.193  1.00  0.00     0.111 C 
HETATM    2  C   UNL     1     -46.744 -52.982  15.143  1.00  0.00     0.017 C 
HETATM    3  C   UNL     1     -46.370 -51.657  14.476  1.00  0.00     0.021 C 
HETATM    4  C   UNL     1     -45.128 -51.050  15.123  1.00  0.00     0.127 C 
HETATM    5  N   UNL     1     -44.031 -52.019  15.115  1.00  0.00    -0.334 N 
HETATM    6  C   UNL     1     -44.324 -53.290  15.781  1.00  0.00     0.141 C 
HETATM    7  C   UNL     1     -42.722 -51.771  14.732  1.00  0.00     0.318 C 
HETATM    8  O   UNL     1     -41.799 -52.542  14.972  1.00  0.00    -0.247 OA
HETATM    9  N   UNL     1     -42.525 -50.600  14.038  1.00  0.00    -0.341 N 
HETATM   10  H   UNL     1     -43.297 -50.367  13.431  1.00  0.00     0.164 HD
ENDROOT
BRANCH   9  11
HETATM   11  C   UNL     1     -41.197 -50.334  13.500  1.00  0.00     0.144 C 
BRANCH  11  12
HETATM   12  C   UNL     1     -41.191 -50.245  11.980  1.00  0.00     0.149 C 
BRANCH  12  13
HETATM   13  N   UNL     1     -40.963 -48.896  11.506  1.00  0.00    -0.350 N 
HETATM   14  C   UNL     1     -40.028 -48.017  11.980  1.00  0.00     0.108 A 
HETATM   15  C   UNL     1     -40.178 -46.892  11.201  1.00  0.00     0.106 A 
HETATM   16  N   UNL     1     -41.173 -47.068  10.273  1.00  0.00    -0.361 N 
HETATM   17  C   UNL     1     -41.627 -48.285  10.481  1.00  0.00     0.182 A 
ATOM     18  HN  UNL     1     -41.491 -46.400   9.573  1.00  0.00     0.166 HD
ENDBRANCH  12  13
ENDBRANCH  11  12
ENDBRANCH   9  11
BRANCH   1  19
HETATM   19  C   UNL     1     -45.260 -54.623  13.846  1.00  0.00     0.393 C 
HETATM   20  F   UNL     1     -43.933 -54.814  13.661  1.00  0.00    -0.171 F 
HETATM   21  F   UNL     1     -45.680 -53.817  12.840  1.00  0.00    -0.171 F 
HETATM   22  F   UNL     1     -45.861 -55.816  13.674  1.00  0.00    -0.171 F 
ENDBRANCH   1  19
TORSDOF 4
ENDMDL
MODEL 7
REMARK VINA RESULT:      -5.2      2.483      3.719
REMARK  4 active torsions:
REMARK  status: ('A' for Active; 'I' for Inactive)
REMARK    1  A    between atoms: C_2  and  C_5 
REMARK       I    between atoms: N_9  and  C_11 
REMARK       I    between atoms: C_11  and  N_13 
REMARK    2  A    between atoms: N_13  and  C_14 
REMARK    3  A    between atoms: C_14  and  C_15 
REMARK    4  A    between atoms: C_15  and  N_16 
ROOT
HETATM    1  C   UNL     1     -46.910 -52.301  14.147  1.00  0.00     0.111 C 
HETATM    2  C   UNL     1     -46.933 -51.228  15.249  1.00  0.00     0.017 C 
HETATM    3  C   UNL     1     -45.632 -51.187  16.052  1.00  0.00     0.021 C 
HETATM    4  C   UNL     1     -45.278 -52.570  16.592  1.00  0.00     0.127 C 
HETATM    5  N   UNL     1     -45.240 -53.543  15.499  1.00  0.00    -0.334 N 
HETATM    6  C   UNL     1     -46.478 -53.652  14.724  1.00  0.00     0.141 C 
HETATM    7  C   UNL     1     -44.245 -54.481  15.273  1.00  0.00     0.318 C 
HETATM    8  O   UNL     1     -44.379 -55.422  14.496  1.00  0.00    -0.247 OA
HETATM    9  N   UNL     1     -43.076 -54.277  15.967  1.00  0.00    -0.341 N 
HETATM   10  H   UNL     1     -42.852 -53.300  16.083  1.00  0.00     0.164 HD
ENDROOT
BRANCH   9  11
HETATM   11  C   UNL     1     -41.947 -55.155  15.688  1.00  0.00     0.144 C 
BRANCH  11  12
HETATM   12  C   UNL     1     -41.790 -56.253  16.732  1.00  0.00     0.149 C 
BRANCH  12  13
HETATM   13  N   UNL     1     -40.404 -56.502  17.068  1.00  0.00    -0.350 N 
HETATM   14  C   UNL     1     -39.939 -57.439  17.949  1.00  0.00     0.108 A 
HETATM   15  C   UNL     1     -38.569 -57.313  17.906  1.00  0.00     0.106 A 
HETATM   16  N   UNL     1     -38.197 -56.330  17.025  1.00  0.00    -0.361 N 
HETATM   17  C   UNL     1     -39.323 -55.860  16.535  1.00  0.00     0.182 A 
ATOM     18  HN  UNL     1     -37.250 -56.029  16.797  1.00  0.00     0.166 HD
ENDBRANCH  12  13
ENDBRANCH  11  12
ENDBRANCH   9  11
BRANCH   1  19
HETATM   19  C   UNL     1     -46.062 -51.912  12.936  1.00  0.00     0.393 C 
HETATM   20  F   UNL     1     -46.785 -51.259  11.997  1.00  0.00    -0.171 F 
HETATM   21  F   UNL     1     -45.574 -53.028  12.342  1.00  0.00    -0.171 F 
HETATM   22  F   UNL     1     -45.007 -51.131  13.240  1.00  0.00    -0.171 F 
ENDBRANCH   1  19
TORSDOF 4
ENDMDL
MODEL 8
REMARK VINA RESULT:      -5.0      4.153      6.916
REMARK  4 active torsions:
REMARK  status: ('A' for Active; 'I' for Inactive)
REMARK    1  A    between atoms: C_2  and  C_5 
REMARK       I    between atoms: N_9  and  C_11 
REMARK       I    between atoms: C_11  and  N_13 
REMARK    2  A    between atoms: N_13  and  C_14 
REMARK    3  A    between atoms: C_14  and  C_15 
REMARK    4  A    between atoms: C_15  and  N_16 
ROOT
HETATM    1  C   UNL     1     -37.809 -49.083  12.974  1.00  0.00     0.111 C 
HETATM    2  C   UNL     1     -37.453 -49.375  14.441  1.00  0.00     0.017 C 
HETATM    3  C   UNL     1     -38.509 -50.234  15.139  1.00  0.00     0.021 C 
HETATM    4  C   UNL     1     -39.899 -49.625  14.986  1.00  0.00     0.127 C 
HETATM    5  N   UNL     1     -40.197 -49.397  13.571  1.00  0.00    -0.334 N 
HETATM    6  C   UNL     1     -39.238 -48.543  12.866  1.00  0.00     0.141 C 
HETATM    7  C   UNL     1     -41.372 -49.734  12.917  1.00  0.00     0.318 C 
HETATM    8  O   UNL     1     -41.662 -49.308  11.803  1.00  0.00    -0.247 OA
HETATM    9  N   UNL     1     -42.192 -50.605  13.595  1.00  0.00    -0.341 N 
HETATM   10  H   UNL     1     -41.682 -51.289  14.132  1.00  0.00     0.164 HD
ENDROOT
BRANCH   9  11
HETATM   11  C   UNL     1     -43.385 -51.095  12.916  1.00  0.00     0.144 C 
BRANCH  11  12
HETATM   12  C   UNL     1     -43.290 -52.575  12.565  1.00  0.00     0.149 C 
BRANCH  12  13
HETATM   13  N   UNL     1     -44.404 -53.339  13.085  1.00  0.00    -0.350 N 
HETATM   14  C   UNL     1     -44.340 -54.582  13.652  1.00  0.00     0.108 A 
HETATM   15  C   UNL     1     -45.637 -54.871  14.013  1.00  0.00     0.106 A 
HETATM   16  N   UNL     1     -46.477 -53.838  13.681  1.00  0.00    -0.361 N 
HETATM   17  C   UNL     1     -45.706 -52.930  13.125  1.00  0.00     0.182 A 
ATOM     18  HN  UNL     1     -47.484 -53.786  13.835  1.00  0.00     0.166 HD
ENDBRANCH  12  13
ENDBRANCH  11  12
ENDBRANCH   9  11
BRANCH   1  19
HETATM   19  C   UNL     1     -37.590 -50.276  12.044  1.00  0.00     0.393 C 
HETATM   20  F   UNL     1     -36.709 -51.166  12.558  1.00  0.00    -0.171 F 
HETATM   21  F   UNL     1     -37.069 -49.851  10.868  1.00  0.00    -0.171 F 
HETATM   22  F   UNL     1     -38.717 -50.954  11.756  1.00  0.00    -0.171 F 
ENDBRANCH   1  19
TORSDOF 4
ENDMDL
MODEL 9
REMARK VINA RESULT:      -4.9      2.304      3.429
REMARK  4 active torsions:
REMARK  status: ('A' for Active; 'I' for Inactive)
REMARK    1  A    between atoms: C_2  and  C_5 
REMARK       I    between atoms: N_9  and  C_11 
REMARK       I    between atoms: C_11  and  N_13 
REMARK    2  A    between atoms: N_13  and  C_14 
REMARK    3  A    between atoms: C_14  and  C_15 
REMARK    4  A    between atoms: C_15  and  N_16 
ROOT
HETATM    1  C   UNL     1     -45.155 -53.852  15.010  1.00  0.00     0.111 C 
HETATM    2  C   UNL     1     -46.340 -52.909  15.274  1.00  0.00     0.017 C 
HETATM    3  C   UNL     1     -46.225 -51.593  14.502  1.00  0.00     0.021 C 
HETATM    4  C   UNL     1     -44.878 -50.924  14.761  1.00  0.00     0.127 C 
HETATM    5  N   UNL     1     -43.787 -51.853  14.464  1.00  0.00    -0.334 N 
HETATM    6  C   UNL     1     -43.828 -53.113  15.211  1.00  0.00     0.141 C 
HETATM    7  C   UNL     1     -42.651 -51.572  13.723  1.00  0.00     0.318 C 
HETATM    8  O   UNL     1     -41.665 -52.304  13.708  1.00  0.00    -0.247 OA
HETATM    9  N   UNL     1     -42.706 -50.417  12.978  1.00  0.00    -0.341 N 
HETATM   10  H   UNL     1     -43.626 -50.230  12.609  1.00  0.00     0.164 HD
ENDROOT
BRANCH   9  11
HETATM   11  C   UNL     1     -41.594 -50.122  12.083  1.00  0.00     0.144 C 
BRANCH  11  12
HETATM   12  C   UNL     1     -40.563 -49.199  12.719  1.00  0.00     0.149 C 
BRANCH  12  13
HETATM   13  N   UNL     1     -39.318 -49.878  13.010  1.00  0.00    -0.350 N 
HETATM   14  C   UNL     1     -38.505 -50.503  12.106  1.00  0.00     0.108 A 
HETATM   15  C   UNL     1     -37.442 -50.965  12.849  1.00  0.00     0.106 A 
HETATM   16  N   UNL     1     -37.591 -50.634  14.171  1.00  0.00    -0.361 N 
HETATM   17  C   UNL     1     -38.730 -49.980  14.238  1.00  0.00     0.182 A 
ATOM     18  HN  UNL     1     -36.954 -50.849  14.939  1.00  0.00     0.166 HD
ENDBRANCH  12  13
ENDBRANCH  11  12
ENDBRANCH   9  11
BRANCH   1  19
HETATM   19  C   UNL     1     -45.214 -54.536  13.644  1.00  0.00     0.393 C 
HETATM   20  F   UNL     1     -43.980 -54.769  13.138  1.00  0.00    -0.171 F 
HETATM   21  F   UNL     1     -45.852 -53.735  12.757  1.00  0.00    -0.171 F 
HETATM   22  F   UNL     1     -45.867 -55.714  13.655  1.00  0.00    -0.171 F 
ENDBRANCH   1  19
TORSDOF 4
ENDMDL
