MODEL 1
REMARK VINA RESULT:      -5.5      0.000      0.000
REMARK  5 active torsions:
REMARK  status: ('A' for Active; 'I' for Inactive)
REMARK    1  A    between atoms: C_2  and  C_5 
REMARK    2  A    between atoms: C_8  and  C_9 
REMARK    3  A    between atoms: C_9  and  C_10 
REMARK    4  A    between atoms: C_10  and  N_11 
REMARK       I    between atoms: N_11  and  C_12 
REMARK    5  A    between atoms: C_12  and  C_14 
ROOT
HETATM    1  C   UNL     1     -44.593 -51.212  13.684  1.00  0.00     0.024 A 
HETATM    2  C   UNL     1     -44.153 -50.419  14.730  1.00  0.00     0.077 A 
HETATM    3  S   UNL     1     -42.599 -49.787  14.394  1.00  0.00    -0.087 SA
HETATM    4  C   UNL     1     -42.606 -50.604  12.882  1.00  0.00     0.052 A 
HETATM    5  N   UNL     1     -43.684 -51.320  12.639  1.00  0.00    -0.356 N 
ATOM      6  HN  UNL     1     -43.832 -51.877  11.798  1.00  0.00     0.166 HD
ENDROOT
BRANCH   4   7
HETATM    7  C   UNL     1     -41.427 -50.473  11.967  1.00  0.00     0.084 C 
BRANCH   7   8
HETATM    8  C   UNL     1     -41.240 -49.043  11.461  1.00  0.00     0.129 C 
BRANCH   8   9
HETATM    9  N   UNL     1     -42.271 -48.659  10.510  1.00  0.00    -0.360 N 
HETATM   10  C   UNL     1     -43.189 -47.681  10.804  1.00  0.00     0.221 C 
HETATM   11  O   UNL     1     -43.220 -47.060  11.858  1.00  0.00    -0.273 OA
HETATM   12  H   UNL     1     -42.264 -49.075   9.589  1.00  0.00     0.162 HD
BRANCH  10  13
HETATM   13  C   UNL     1     -44.151 -47.390   9.703  1.00  0.00     0.078 A 
HETATM   14  C   UNL     1     -43.676 -47.463   8.269  1.00  0.00     0.015 A 
HETATM   15  C   UNL     1     -44.009 -46.131   8.876  1.00  0.00     0.015 A 
ENDBRANCH  10  13
ENDBRANCH   8   9
ENDBRANCH   7   8
ENDBRANCH   4   7
BRANCH   1  16
HETATM   16  C   UNL     1     -45.927 -51.945  13.600  1.00  0.00    -0.008 C 
HETATM   17  C   UNL     1     -46.637 -51.612  12.272  1.00  0.00     0.021 C 
HETATM   18  C   UNL     1     -46.834 -51.526  14.773  1.00  0.00     0.021 C 
HETATM   19  C   UNL     1     -45.735 -53.475  13.666  1.00  0.00     0.021 C 
ENDBRANCH   1  16
TORSDOF 5
ENDMDL
MODEL 2
REMARK VINA RESULT:      -5.4      1.699      2.244
REMARK  5 active torsions:
REMARK  status: ('A' for Active; 'I' for Inactive)
REMARK    1  A    between atoms: C_2  and  C_5 
REMARK    2  A    between atoms: C_8  and  C_9 
REMARK    3  A    between atoms: C_9  and  C_10 
REMARK    4  A    between atoms: C_10  and  N_11 
REMARK       I    between atoms: N_11  and  C_12 
REMARK    5  A    between atoms: C_12  and  C_14 
ROOT
HETATM    1  C   UNL     1     -44.537 -50.774  13.840  1.00  0.00     0.024 A 
HETATM    2  C   UNL     1     -43.858 -50.181  14.891  1.00  0.00     0.077 A 
HETATM    3  S   UNL     1     -42.703 -49.062  14.307  1.00  0.00    -0.087 SA
HETATM    4  C   UNL     1     -43.173 -49.435  12.696  1.00  0.00     0.052 A 
HETATM    5  N   UNL     1     -44.118 -50.345  12.587  1.00  0.00    -0.356 N 
ATOM      6  HN  UNL     1     -44.493 -50.689  11.703  1.00  0.00     0.166 HD
ENDROOT
BRANCH   4   7
HETATM    7  C   UNL     1     -42.501 -48.740  11.551  1.00  0.00     0.084 C 
BRANCH   7   8
HETATM    8  C   UNL     1     -43.221 -47.453  11.149  1.00  0.00     0.129 C 
BRANCH   8   9
HETATM    9  N   UNL     1     -44.515 -47.716  10.541  1.00  0.00    -0.360 N 
HETATM   10  C   UNL     1     -44.859 -47.177   9.325  1.00  0.00     0.221 C 
HETATM   11  O   UNL     1     -44.129 -46.451   8.663  1.00  0.00    -0.273 OA
HETATM   12  H   UNL     1     -45.144 -48.365  10.993  1.00  0.00     0.162 HD
BRANCH  10  13
HETATM   13  C   UNL     1     -46.208 -47.578   8.834  1.00  0.00     0.078 A 
HETATM   14  C   UNL     1     -46.830 -48.857   9.347  1.00  0.00     0.015 A 
HETATM   15  C   UNL     1     -46.365 -48.775   7.922  1.00  0.00     0.015 A 
ENDBRANCH  10  13
ENDBRANCH   8   9
ENDBRANCH   7   8
ENDBRANCH   4   7
BRANCH   1  16
HETATM   16  C   UNL     1     -45.645 -51.815  13.948  1.00  0.00    -0.008 C 
HETATM   17  C   UNL     1     -46.727 -51.343  14.941  1.00  0.00     0.021 C 
HETATM   18  C   UNL     1     -45.064 -53.155  14.439  1.00  0.00     0.021 C 
HETATM   19  C   UNL     1     -46.325 -52.058  12.584  1.00  0.00     0.021 C 
ENDBRANCH   1  16
TORSDOF 5
ENDMDL
MODEL 3
REMARK VINA RESULT:      -5.4      3.119      6.156
REMARK  5 active torsions:
REMARK  status: ('A' for Active; 'I' for Inactive)
REMARK    1  A    between atoms: C_2  and  C_5 
REMARK    2  A    between atoms: C_8  and  C_9 
REMARK    3  A    between atoms: C_9  and  C_10 
REMARK    4  A    between atoms: C_10  and  N_11 
REMARK       I    between atoms: N_11  and  C_12 
REMARK    5  A    between atoms: C_12  and  C_14 
ROOT
HETATM    1  C   UNL     1     -43.083 -47.599  10.238  1.00  0.00     0.024 A 
HETATM    2  C   UNL     1     -43.053 -47.081  11.522  1.00  0.00     0.077 A 
HETATM    3  S   UNL     1     -41.828 -47.837  12.448  1.00  0.00    -0.087 SA
HETATM    4  C   UNL     1     -41.415 -48.805  11.089  1.00  0.00     0.052 A 
HETATM    5  N   UNL     1     -42.146 -48.600  10.014  1.00  0.00    -0.356 N 
ATOM      6  HN  UNL     1     -42.039 -49.107   9.135  1.00  0.00     0.166 HD
ENDROOT
BRANCH   4   7
HETATM    7  C   UNL     1     -40.298 -49.798  11.203  1.00  0.00     0.084 C 
BRANCH   7   8
HETATM    8  C   UNL     1     -40.265 -50.483  12.569  1.00  0.00     0.129 C 
BRANCH   8   9
HETATM    9  N   UNL     1     -41.042 -51.713  12.583  1.00  0.00    -0.360 N 
HETATM   10  C   UNL     1     -40.504 -52.895  13.032  1.00  0.00     0.221 C 
HETATM   11  O   UNL     1     -39.360 -53.016  13.451  1.00  0.00    -0.273 OA
HETATM   12  H   UNL     1     -42.017 -51.678  12.322  1.00  0.00     0.162 HD
BRANCH  10  13
HETATM   13  C   UNL     1     -41.449 -54.048  13.010  1.00  0.00     0.078 A 
HETATM   14  C   UNL     1     -42.932 -53.790  13.155  1.00  0.00     0.015 A 
HETATM   15  C   UNL     1     -42.181 -54.460  14.268  1.00  0.00     0.015 A 
ENDBRANCH  10  13
ENDBRANCH   8   9
ENDBRANCH   7   8
ENDBRANCH   4   7
BRANCH   1  16
HETATM   16  C   UNL     1     -44.023 -47.183   9.114  1.00  0.00    -0.008 C 
HETATM   17  C   UNL     1     -43.578 -47.818   7.781  1.00  0.00     0.021 C 
HETATM   18  C   UNL     1     -44.020 -45.649   8.965  1.00  0.00     0.021 C 
HETATM   19  C   UNL     1     -45.472 -47.633   9.395  1.00  0.00     0.021 C 
ENDBRANCH   1  16
TORSDOF 5
ENDMDL
MODEL 4
REMARK VINA RESULT:      -5.2      1.402      1.922
REMARK  5 active torsions:
REMARK  status: ('A' for Active; 'I' for Inactive)
REMARK    1  A    between atoms: C_2  and  C_5 
REMARK    2  A    between atoms: C_8  and  C_9 
REMARK    3  A    between atoms: C_9  and  C_10 
REMARK    4  A    between atoms: C_10  and  N_11 
REMARK       I    between atoms: N_11  and  C_12 
REMARK    5  A    between atoms: C_12  and  C_14 
ROOT
HETATM    1  C   UNL     1     -44.336 -52.448  13.306  1.00  0.00     0.024 A 
HETATM    2  C   UNL     1     -43.582 -53.604  13.419  1.00  0.00     0.077 A 
HETATM    3  S   UNL     1     -41.969 -53.322  12.919  1.00  0.00    -0.087 SA
HETATM    4  C   UNL     1     -42.372 -51.685  12.583  1.00  0.00     0.052 A 
HETATM    5  N   UNL     1     -43.628 -51.361  12.809  1.00  0.00    -0.356 N 
ATOM      6  HN  UNL     1     -44.027 -50.438  12.641  1.00  0.00     0.166 HD
ENDROOT
BRANCH   4   7
HETATM    7  C   UNL     1     -41.316 -50.757  12.062  1.00  0.00     0.084 C 
BRANCH   7   8
HETATM    8  C   UNL     1     -41.756 -49.294  12.104  1.00  0.00     0.129 C 
BRANCH   8   9
HETATM    9  N   UNL     1     -42.548 -48.927  10.940  1.00  0.00    -0.360 N 
HETATM   10  C   UNL     1     -42.299 -47.772  10.240  1.00  0.00     0.221 C 
HETATM   11  O   UNL     1     -41.414 -46.973  10.520  1.00  0.00    -0.273 OA
HETATM   12  H   UNL     1     -43.248 -49.573  10.603  1.00  0.00     0.162 HD
BRANCH  10  13
HETATM   13  C   UNL     1     -43.181 -47.569   9.055  1.00  0.00     0.078 A 
HETATM   14  C   UNL     1     -43.705 -46.183   8.753  1.00  0.00     0.015 A 
HETATM   15  C   UNL     1     -44.647 -47.245   9.240  1.00  0.00     0.015 A 
ENDBRANCH  10  13
ENDBRANCH   8   9
ENDBRANCH   7   8
ENDBRANCH   4   7
BRANCH   1  16
HETATM   16  C   UNL     1     -45.809 -52.289  13.659  1.00  0.00    -0.008 C 
HETATM   17  C   UNL     1     -46.378 -53.618  14.196  1.00  0.00     0.021 C 
HETATM   18  C   UNL     1     -46.609 -51.869  12.411  1.00  0.00     0.021 C 
HETATM   19  C   UNL     1     -46.016 -51.211  14.745  1.00  0.00     0.021 C 
ENDBRANCH   1  16
TORSDOF 5
ENDMDL
MODEL 5
REMARK VINA RESULT:      -5.1      3.697      6.585
REMARK  5 active torsions:
REMARK  status: ('A' for Active; 'I' for Inactive)
REMARK    1  A    between atoms: C_2  and  C_5 
REMARK    2  A    between atoms: C_8  and  C_9 
REMARK    3  A    between atoms: C_9  and  C_10 
REMARK    4  A    between atoms: C_10  and  N_11 
REMARK       I    between atoms: N_11  and  C_12 
REMARK    5  A    between atoms: C_12  and  C_14 
ROOT
HETATM    1  C   UNL     1     -38.986 -51.036  12.995  1.00  0.00     0.024 A 
HETATM    2  C   UNL     1     -38.541 -51.557  14.198  1.00  0.00     0.077 A 
HETATM    3  S   UNL     1     -39.354 -53.020  14.558  1.00  0.00    -0.087 SA
HETATM    4  C   UNL     1     -40.246 -52.870  13.097  1.00  0.00     0.052 A 
HETATM    5  N   UNL     1     -39.977 -51.796  12.385  1.00  0.00    -0.356 N 
ATOM      6  HN  UNL     1     -40.434 -51.553  11.506  1.00  0.00     0.166 HD
ENDROOT
BRANCH   4   7
HETATM    7  C   UNL     1     -41.249 -53.923  12.733  1.00  0.00     0.084 C 
BRANCH   7   8
HETATM    8  C   UNL     1     -42.330 -54.089  13.800  1.00  0.00     0.129 C 
BRANCH   8   9
HETATM    9  N   UNL     1     -43.371 -53.079  13.687  1.00  0.00    -0.360 N 
HETATM   10  C   UNL     1     -44.523 -53.314  12.977  1.00  0.00     0.221 C 
HETATM   11  O   UNL     1     -44.773 -54.362  12.396  1.00  0.00    -0.273 OA
HETATM   12  H   UNL     1     -43.270 -52.215  14.201  1.00  0.00     0.162 HD
BRANCH  10  13
HETATM   13  C   UNL     1     -45.497 -52.185  12.994  1.00  0.00     0.078 A 
HETATM   14  C   UNL     1     -45.422 -51.162  14.106  1.00  0.00     0.015 A 
HETATM   15  C   UNL     1     -46.575 -52.121  14.053  1.00  0.00     0.015 A 
ENDBRANCH  10  13
ENDBRANCH   8   9
ENDBRANCH   7   8
ENDBRANCH   4   7
BRANCH   1  16
HETATM   16  C   UNL     1     -38.503 -49.754  12.327  1.00  0.00    -0.008 C 
HETATM   17  C   UNL     1     -37.861 -48.817  13.371  1.00  0.00     0.021 C 
HETATM   18  C   UNL     1     -39.687 -49.028  11.661  1.00  0.00     0.021 C 
HETATM   19  C   UNL     1     -37.448 -50.048  11.240  1.00  0.00     0.021 C 
ENDBRANCH   1  16
TORSDOF 5
ENDMDL
MODEL 6
REMARK VINA RESULT:      -5.1      2.616      4.450
REMARK  5 active torsions:
REMARK  status: ('A' for Active; 'I' for Inactive)
REMARK    1  A    between atoms: C_2  and  C_5 
REMARK    2  A    between atoms: C_8  and  C_9 
REMARK    3  A    between atoms: C_9  and  C_10 
REMARK    4  A    between atoms: C_10  and  N_11 
REMARK       I    between atoms: N_11  and  C_12 
REMARK    5  A    between atoms: C_12  and  C_14 
ROOT
HETATM    1  C   UNL     1     -44.694 -51.084  13.995  1.00  0.00     0.024 A 
HETATM    2  C   UNL     1     -43.937 -50.839  15.128  1.00  0.00     0.077 A 
HETATM    3  S   UNL     1     -42.529 -49.949  14.731  1.00  0.00    -0.087 SA
HETATM    4  C   UNL     1     -43.011 -49.945  13.081  1.00  0.00     0.052 A 
HETATM    5  N   UNL     1     -44.138 -50.577  12.827  1.00  0.00    -0.356 N 
ATOM      6  HN  UNL     1     -44.547 -50.681  11.898  1.00  0.00     0.166 HD
ENDROOT
BRANCH   4   7
HETATM    7  C   UNL     1     -42.151 -49.260  12.063  1.00  0.00     0.084 C 
BRANCH   7   8
HETATM    8  C   UNL     1     -41.106 -50.198  11.460  1.00  0.00     0.129 C 
BRANCH   8   9
HETATM    9  N   UNL     1     -41.366 -51.591  11.786  1.00  0.00    -0.360 N 
HETATM   10  C   UNL     1     -40.462 -52.341  12.498  1.00  0.00     0.221 C 
HETATM   11  O   UNL     1     -39.390 -51.919  12.912  1.00  0.00    -0.273 OA
HETATM   12  H   UNL     1     -42.262 -51.990  11.543  1.00  0.00     0.162 HD
BRANCH  10  13
HETATM   13  C   UNL     1     -40.905 -53.738  12.774  1.00  0.00     0.078 A 
HETATM   14  C   UNL     1     -42.347 -53.995  13.149  1.00  0.00     0.015 A 
HETATM   15  C   UNL     1     -41.269 -54.161  14.180  1.00  0.00     0.015 A 
ENDBRANCH  10  13
ENDBRANCH   8   9
ENDBRANCH   7   8
ENDBRANCH   4   7
BRANCH   1  16
HETATM   16  C   UNL     1     -46.018 -51.835  13.933  1.00  0.00    -0.008 C 
HETATM   17  C   UNL     1     -45.784 -53.348  14.127  1.00  0.00     0.021 C 
HETATM   18  C   UNL     1     -46.694 -51.603  12.568  1.00  0.00     0.021 C 
HETATM   19  C   UNL     1     -46.988 -51.360  15.035  1.00  0.00     0.021 C 
ENDBRANCH   1  16
TORSDOF 5
ENDMDL
MODEL 7
REMARK VINA RESULT:      -5.0      1.914      5.563
REMARK  5 active torsions:
REMARK  status: ('A' for Active; 'I' for Inactive)
REMARK    1  A    between atoms: C_2  and  C_5 
REMARK    2  A    between atoms: C_8  and  C_9 
REMARK    3  A    between atoms: C_9  and  C_10 
REMARK    4  A    between atoms: C_10  and  N_11 
REMARK       I    between atoms: N_11  and  C_12 
REMARK    5  A    between atoms: C_12  and  C_14 
ROOT
HETATM    1  C   UNL     1     -41.181 -48.649  11.331  1.00  0.00     0.024 A 
HETATM    2  C   UNL     1     -39.837 -48.657  11.665  1.00  0.00     0.077 A 
HETATM    3  S   UNL     1     -39.329 -50.237  12.081  1.00  0.00    -0.087 SA
HETATM    4  C   UNL     1     -40.923 -50.813  11.795  1.00  0.00     0.052 A 
HETATM    5  N   UNL     1     -41.791 -49.894  11.428  1.00  0.00    -0.356 N 
ATOM      6  HN  UNL     1     -42.778 -50.071  11.241  1.00  0.00     0.166 HD
ENDROOT
BRANCH   4   7
HETATM    7  C   UNL     1     -41.227 -52.268  11.983  1.00  0.00     0.084 C 
BRANCH   7   8
HETATM    8  C   UNL     1     -41.806 -52.568  13.365  1.00  0.00     0.129 C 
BRANCH   8   9
HETATM    9  N   UNL     1     -43.229 -52.869  13.308  1.00  0.00    -0.360 N 
HETATM   10  C   UNL     1     -44.175 -51.876  13.394  1.00  0.00     0.221 C 
HETATM   11  O   UNL     1     -43.916 -50.687  13.518  1.00  0.00    -0.273 OA
HETATM   12  H   UNL     1     -43.519 -53.821  13.133  1.00  0.00     0.162 HD
BRANCH  10  13
HETATM   13  C   UNL     1     -45.582 -52.358  13.283  1.00  0.00     0.078 A 
HETATM   14  C   UNL     1     -46.587 -51.529  12.516  1.00  0.00     0.015 A 
HETATM   15  C   UNL     1     -46.696 -51.637  14.009  1.00  0.00     0.015 A 
ENDBRANCH  10  13
ENDBRANCH   8   9
ENDBRANCH   7   8
ENDBRANCH   4   7
BRANCH   1  16
HETATM   16  C   UNL     1     -42.001 -47.441  10.897  1.00  0.00    -0.008 C 
HETATM   17  C   UNL     1     -42.749 -47.746   9.584  1.00  0.00     0.021 C 
HETATM   18  C   UNL     1     -41.076 -46.227  10.678  1.00  0.00     0.021 C 
HETATM   19  C   UNL     1     -43.049 -47.057  11.964  1.00  0.00     0.021 C 
ENDBRANCH   1  16
TORSDOF 5
ENDMDL
MODEL 8
REMARK VINA RESULT:      -4.8      1.786      2.458
REMARK  5 active torsions:
REMARK  status: ('A' for Active; 'I' for Inactive)
REMARK    1  A    between atoms: C_2  and  C_5 
REMARK    2  A    between atoms: C_8  and  C_9 
REMARK    3  A    between atoms: C_9  and  C_10 
REMARK    4  A    between atoms: C_10  and  N_11 
REMARK       I    between atoms: N_11  and  C_12 
REMARK    5  A    between atoms: C_12  and  C_14 
ROOT
HETATM    1  C   UNL     1     -44.505 -52.796  13.790  1.00  0.00     0.024 A 
HETATM    2  C   UNL     1     -43.825 -53.615  14.676  1.00  0.00     0.077 A 
HETATM    3  S   UNL     1     -42.213 -53.860  14.154  1.00  0.00    -0.087 SA
HETATM    4  C   UNL     1     -42.518 -52.866  12.785  1.00  0.00     0.052 A 
HETATM    5  N   UNL     1     -43.742 -52.390  12.702  1.00  0.00    -0.356 N 
ATOM      6  HN  UNL     1     -44.085 -51.802  11.942  1.00  0.00     0.166 HD
ENDROOT
BRANCH   4   7
HETATM    7  C   UNL     1     -41.420 -52.616  11.796  1.00  0.00     0.084 C 
BRANCH   7   8
HETATM    8  C   UNL     1     -40.671 -51.314  12.075  1.00  0.00     0.129 C 
BRANCH   8   9
HETATM    9  N   UNL     1     -40.966 -50.289  11.085  1.00  0.00    -0.360 N 
HETATM   10  C   UNL     1     -41.453 -49.058  11.452  1.00  0.00     0.221 C 
HETATM   11  O   UNL     1     -41.672 -48.720  12.608  1.00  0.00    -0.273 OA
HETATM   12  H   UNL     1     -40.741 -50.468  10.116  1.00  0.00     0.162 HD
BRANCH  10  13
HETATM   13  C   UNL     1     -41.666 -48.118  10.315  1.00  0.00     0.078 A 
HETATM   14  C   UNL     1     -42.168 -46.720  10.596  1.00  0.00     0.015 A 
HETATM   15  C   UNL     1     -43.065 -47.709   9.912  1.00  0.00     0.015 A 
ENDBRANCH  10  13
ENDBRANCH   8   9
ENDBRANCH   7   8
ENDBRANCH   4   7
BRANCH   1  16
HETATM   16  C   UNL     1     -45.953 -52.338  13.908  1.00  0.00    -0.008 C 
HETATM   17  C   UNL     1     -46.837 -53.487  14.435  1.00  0.00     0.021 C 
HETATM   18  C   UNL     1     -46.479 -51.893  12.530  1.00  0.00     0.021 C 
HETATM   19  C   UNL     1     -46.091 -51.148  14.881  1.00  0.00     0.021 C 
ENDBRANCH   1  16
TORSDOF 5
ENDMDL
MODEL 9
REMARK VINA RESULT:      -4.8      2.113      6.176
REMARK  5 active torsions:
REMARK  status: ('A' for Active; 'I' for Inactive)
REMARK    1  A    between atoms: C_2  and  C_5 
REMARK    2  A    between atoms: C_8  and  C_9 
REMARK    3  A    between atoms: C_9  and  C_10 
REMARK    4  A    between atoms: C_10  and  N_11 
REMARK       I    between atoms: N_11  and  C_12 
REMARK    5  A    between atoms: C_12  and  C_14 
ROOT
HETATM    1  C   UNL     1     -43.077 -47.487  10.197  1.00  0.00     0.024 A 
HETATM    2  C   UNL     1     -41.759 -47.065  10.250  1.00  0.00     0.077 A 
HETATM    3  S   UNL     1     -40.993 -47.661  11.660  1.00  0.00    -0.087 SA
HETATM    4  C   UNL     1     -42.456 -48.440  12.112  1.00  0.00     0.052 A 
HETATM    5  N   UNL     1     -43.463 -48.262  11.283  1.00  0.00    -0.356 N 
ATOM      6  HN  UNL     1     -44.400 -48.641  11.419  1.00  0.00     0.166 HD
ENDROOT
BRANCH   4   7
HETATM    7  C   UNL     1     -42.506 -49.238  13.380  1.00  0.00     0.084 C 
BRANCH   7   8
HETATM    8  C   UNL     1     -42.950 -50.681  13.142  1.00  0.00     0.129 C 
BRANCH   8   9
HETATM    9  N   UNL     1     -43.903 -51.133  14.143  1.00  0.00    -0.360 N 
HETATM   10  C   UNL     1     -44.877 -52.054  13.840  1.00  0.00     0.221 C 
HETATM   11  O   UNL     1     -45.025 -52.563  12.737  1.00  0.00    -0.273 OA
HETATM   12  H   UNL     1     -43.799 -50.813  15.096  1.00  0.00     0.162 HD
BRANCH  10  13
HETATM   13  C   UNL     1     -45.746 -52.431  14.992  1.00  0.00     0.078 A 
HETATM   14  C   UNL     1     -47.097 -53.056  14.725  1.00  0.00     0.015 A 
HETATM   15  C   UNL     1     -47.017 -51.662  15.275  1.00  0.00     0.015 A 
ENDBRANCH  10  13
ENDBRANCH   8   9
ENDBRANCH   7   8
ENDBRANCH   4   7
BRANCH   1  16
HETATM   16  C   UNL     1     -44.085 -47.175   9.098  1.00  0.00    -0.008 C 
HETATM   17  C   UNL     1     -45.481 -47.700   9.488  1.00  0.00     0.021 C 
HETATM   18  C   UNL     1     -43.649 -47.839   7.778  1.00  0.00     0.021 C 
HETATM   19  C   UNL     1     -44.200 -45.655   8.854  1.00  0.00     0.021 C 
ENDBRANCH   1  16
TORSDOF 5
ENDMDL
