MODEL 1
REMARK VINA RESULT:      -5.9      0.000      0.000
REMARK  6 active torsions:
REMARK  status: ('A' for Active; 'I' for Inactive)
REMARK    1  A    between atoms: C_5  and  C_6 
REMARK    2  A    between atoms: C_6  and  C_7 
REMARK    3  A    between atoms: C_7  and  C_8 
REMARK       I    between atoms: C_8  and  N_10 
REMARK    4  A    between atoms: N_10  and  C_11 
REMARK    5  A    between atoms: C_11  and  C_12 
REMARK    6  A    between atoms: C_12  and  C_13 
ROOT
HETATM    1  C   UNL     1     -40.576 -52.186  12.373  1.00  0.00     0.217 C 
HETATM    2  O   UNL     1     -39.464 -52.246  12.893  1.00  0.00    -0.274 OA
HETATM    3  N   UNL     1     -40.962 -51.146  11.560  1.00  0.00    -0.361 N 
HETATM    4  H   UNL     1     -41.839 -51.206  11.055  1.00  0.00     0.162 HD
ENDROOT
BRANCH   3   5
HETATM    5  C   UNL     1     -40.068 -50.097  11.104  1.00  0.00     0.129 C 
BRANCH   5   6
HETATM    6  C   UNL     1     -40.490 -48.712  11.602  1.00  0.00     0.084 C 
BRANCH   6   7
HETATM    7  C   UNL     1     -41.700 -48.196  10.874  1.00  0.00     0.052 A 
HETATM    8  N   UNL     1     -41.904 -48.348   9.578  1.00  0.00    -0.357 N 
HETATM    9  C   UNL     1     -43.083 -47.720   9.203  1.00  0.00     0.012 A 
ATOM     10  HN  UNL     1     -41.285 -48.855   8.945  1.00  0.00     0.166 HD
HETATM   11  C   UNL     1     -43.482 -47.730   7.771  1.00  0.00     0.068 C 
HETATM   12  C   UNL     1     -43.777 -47.129  10.241  1.00  0.00     0.076 A 
HETATM   13  S   UNL     1     -42.931 -47.341  11.715  1.00  0.00    -0.087 SA
ENDBRANCH   6   7
ENDBRANCH   5   6
ENDBRANCH   3   5
BRANCH   1  14
HETATM   14  C   UNL     1     -41.657 -53.214  12.673  1.00  0.00     0.105 C 
BRANCH  14  15
HETATM   15  C   UNL     1     -42.359 -53.001  14.015  1.00  0.00     0.041 C 
BRANCH  15  16
HETATM   16  C   UNL     1     -43.716 -53.709  14.095  1.00  0.00     0.122 C 
HETATM   17  C   UNL     1     -44.332 -53.893  12.715  1.00  0.00     0.034 C 
HETATM   18  C   UNL     1     -45.295 -52.733  12.551  1.00  0.00     0.034 C 
HETATM   19  C   UNL     1     -45.255 -51.995  13.879  1.00  0.00     0.118 C 
HETATM   20  C   UNL     1     -46.619 -51.554  14.373  1.00  0.00     0.039 C 
HETATM   21  O   UNL     1     -44.656 -52.898  14.817  1.00  0.00    -0.381 OA
ENDBRANCH  15  16
ENDBRANCH  14  15
ENDBRANCH   1  14
TORSDOF 6
ENDMDL
MODEL 2
REMARK VINA RESULT:      -5.9      3.193      6.373
REMARK  6 active torsions:
REMARK  status: ('A' for Active; 'I' for Inactive)
REMARK    1  A    between atoms: C_5  and  C_6 
REMARK    2  A    between atoms: C_6  and  C_7 
REMARK    3  A    between atoms: C_7  and  C_8 
REMARK       I    between atoms: C_8  and  N_10 
REMARK    4  A    between atoms: N_10  and  C_11 
REMARK    5  A    between atoms: C_11  and  C_12 
REMARK    6  A    between atoms: C_12  and  C_13 
ROOT
HETATM    1  C   UNL     1     -42.240 -48.862  11.466  1.00  0.00     0.217 C 
HETATM    2  O   UNL     1     -43.085 -48.690  12.341  1.00  0.00    -0.274 OA
HETATM    3  N   UNL     1     -41.294 -49.859  11.530  1.00  0.00    -0.361 N 
HETATM    4  H   UNL     1     -40.703 -50.038  10.726  1.00  0.00     0.162 HD
ENDROOT
BRANCH   3   5
HETATM    5  C   UNL     1     -41.280 -50.901  12.541  1.00  0.00     0.129 C 
BRANCH   5   6
HETATM    6  C   UNL     1     -41.826 -52.232  12.014  1.00  0.00     0.084 C 
BRANCH   6   7
HETATM    7  C   UNL     1     -43.171 -52.561  12.599  1.00  0.00     0.052 A 
HETATM    8  N   UNL     1     -44.164 -51.697  12.702  1.00  0.00    -0.357 N 
HETATM    9  C   UNL     1     -45.252 -52.291  13.326  1.00  0.00     0.012 A 
ATOM     10  HN  UNL     1     -44.136 -50.733  12.370  1.00  0.00     0.166 HD
HETATM   11  C   UNL     1     -46.468 -51.477  13.585  1.00  0.00     0.068 C 
HETATM   12  C   UNL     1     -45.073 -53.620  13.655  1.00  0.00     0.076 A 
HETATM   13  S   UNL     1     -43.506 -54.138  13.196  1.00  0.00    -0.087 SA
ENDBRANCH   6   7
ENDBRANCH   5   6
ENDBRANCH   3   5
BRANCH   1  14
HETATM   14  C   UNL     1     -42.108 -47.914  10.284  1.00  0.00     0.105 C 
BRANCH  14  15
HETATM   15  C   UNL     1     -43.157 -46.801  10.261  1.00  0.00     0.041 C 
BRANCH  15  16
HETATM   16  C   UNL     1     -43.771 -46.591   8.873  1.00  0.00     0.122 C 
HETATM   17  C   UNL     1     -44.962 -45.645   8.927  1.00  0.00     0.034 C 
HETATM   18  C   UNL     1     -46.183 -46.543   8.990  1.00  0.00     0.034 C 
HETATM   19  C   UNL     1     -45.639 -47.957   8.876  1.00  0.00     0.118 C 
HETATM   20  C   UNL     1     -46.457 -48.853   7.966  1.00  0.00     0.039 C 
HETATM   21  O   UNL     1     -44.302 -47.830   8.374  1.00  0.00    -0.381 OA
ENDBRANCH  15  16
ENDBRANCH  14  15
ENDBRANCH   1  14
TORSDOF 6
ENDMDL
MODEL 3
REMARK VINA RESULT:      -5.5      1.866      3.833
REMARK  6 active torsions:
REMARK  status: ('A' for Active; 'I' for Inactive)
REMARK    1  A    between atoms: C_5  and  C_6 
REMARK    2  A    between atoms: C_6  and  C_7 
REMARK    3  A    between atoms: C_7  and  C_8 
REMARK       I    between atoms: C_8  and  N_10 
REMARK    4  A    between atoms: N_10  and  C_11 
REMARK    5  A    between atoms: C_11  and  C_12 
REMARK    6  A    between atoms: C_12  and  C_13 
ROOT
HETATM    1  C   UNL     1     -43.727 -52.207  13.240  1.00  0.00     0.217 C 
HETATM    2  O   UNL     1     -44.663 -52.025  14.016  1.00  0.00    -0.274 OA
HETATM    3  N   UNL     1     -43.090 -51.177  12.588  1.00  0.00    -0.361 N 
HETATM    4  H   UNL     1     -42.246 -51.367  12.060  1.00  0.00     0.162 HD
ENDROOT
BRANCH   3   5
HETATM    5  C   UNL     1     -43.340 -49.771  12.852  1.00  0.00     0.129 C 
BRANCH   5   6
HETATM    6  C   UNL     1     -42.326 -48.858  12.156  1.00  0.00     0.084 C 
BRANCH   6   7
HETATM    7  C   UNL     1     -42.971 -48.002  11.100  1.00  0.00     0.052 A 
HETATM    8  N   UNL     1     -44.207 -48.168  10.667  1.00  0.00    -0.357 N 
HETATM    9  C   UNL     1     -44.488 -47.254   9.662  1.00  0.00     0.012 A 
ATOM     10  HN  UNL     1     -44.861 -48.866  11.021  1.00  0.00     0.166 HD
HETATM   11  C   UNL     1     -45.818 -47.296   8.999  1.00  0.00     0.068 C 
HETATM   12  C   UNL     1     -43.459 -46.379   9.375  1.00  0.00     0.076 A 
HETATM   13  S   UNL     1     -42.102 -46.715  10.365  1.00  0.00    -0.087 SA
ENDBRANCH   6   7
ENDBRANCH   5   6
ENDBRANCH   3   5
BRANCH   1  14
HETATM   14  C   UNL     1     -43.263 -53.605  12.859  1.00  0.00     0.105 C 
BRANCH  14  15
HETATM   15  C   UNL     1     -42.103 -54.126  13.709  1.00  0.00     0.041 C 
BRANCH  15  16
HETATM   16  C   UNL     1     -40.774 -54.155  12.947  1.00  0.00     0.122 C 
HETATM   17  C   UNL     1     -39.604 -54.450  13.875  1.00  0.00     0.034 C 
HETATM   18  C   UNL     1     -39.019 -53.095  14.222  1.00  0.00     0.034 C 
HETATM   19  C   UNL     1     -39.822 -52.097  13.404  1.00  0.00     0.118 C 
HETATM   20  C   UNL     1     -38.977 -51.011  12.767  1.00  0.00     0.039 C 
HETATM   21  O   UNL     1     -40.492 -52.860  12.393  1.00  0.00    -0.381 OA
ENDBRANCH  15  16
ENDBRANCH  14  15
ENDBRANCH   1  14
TORSDOF 6
ENDMDL
MODEL 4
REMARK VINA RESULT:      -5.4      1.812      2.346
REMARK  6 active torsions:
REMARK  status: ('A' for Active; 'I' for Inactive)
REMARK    1  A    between atoms: C_5  and  C_6 
REMARK    2  A    between atoms: C_6  and  C_7 
REMARK    3  A    between atoms: C_7  and  C_8 
REMARK       I    between atoms: C_8  and  N_10 
REMARK    4  A    between atoms: N_10  and  C_11 
REMARK    5  A    between atoms: C_11  and  C_12 
REMARK    6  A    between atoms: C_12  and  C_13 
ROOT
HETATM    1  C   UNL     1     -41.125 -50.983  12.257  1.00  0.00     0.217 C 
HETATM    2  O   UNL     1     -40.309 -50.631  13.106  1.00  0.00    -0.274 OA
HETATM    3  N   UNL     1     -41.688 -50.108  11.357  1.00  0.00    -0.361 N 
HETATM    4  H   UNL     1     -42.255 -50.469  10.600  1.00  0.00     0.162 HD
ENDROOT
BRANCH   3   5
HETATM    5  C   UNL     1     -41.276 -48.724  11.205  1.00  0.00     0.129 C 
BRANCH   5   6
HETATM    6  C   UNL     1     -42.326 -47.741  11.733  1.00  0.00     0.084 C 
BRANCH   6   7
HETATM    7  C   UNL     1     -43.324 -47.361  10.674  1.00  0.00     0.052 A 
HETATM    8  N   UNL     1     -44.425 -48.043  10.417  1.00  0.00    -0.357 N 
HETATM    9  C   UNL     1     -45.108 -47.465   9.357  1.00  0.00     0.012 A 
ATOM     10  HN  UNL     1     -44.729 -48.874  10.924  1.00  0.00     0.166 HD
HETATM   11  C   UNL     1     -46.359 -48.104   8.870  1.00  0.00     0.068 C 
HETATM   12  C   UNL     1     -44.524 -46.320   8.850  1.00  0.00     0.076 A 
HETATM   13  S   UNL     1     -43.079 -45.968   9.698  1.00  0.00    -0.087 SA
ENDBRANCH   6   7
ENDBRANCH   5   6
ENDBRANCH   3   5
BRANCH   1  14
HETATM   14  C   UNL     1     -41.659 -52.407  12.202  1.00  0.00     0.105 C 
BRANCH  14  15
HETATM   15  C   UNL     1     -41.298 -53.251  13.426  1.00  0.00     0.041 C 
BRANCH  15  16
HETATM   16  C   UNL     1     -42.342 -53.154  14.543  1.00  0.00     0.122 C 
HETATM   17  C   UNL     1     -42.235 -54.324  15.511  1.00  0.00     0.034 C 
HETATM   18  C   UNL     1     -43.279 -55.322  15.046  1.00  0.00     0.034 C 
HETATM   19  C   UNL     1     -43.996 -54.636  13.895  1.00  0.00     0.118 C 
HETATM   20  C   UNL     1     -45.501 -54.821  13.917  1.00  0.00     0.039 C 
HETATM   21  O   UNL     1     -43.666 -53.245  13.994  1.00  0.00    -0.381 OA
ENDBRANCH  15  16
ENDBRANCH  14  15
ENDBRANCH   1  14
TORSDOF 6
ENDMDL
MODEL 5
REMARK VINA RESULT:      -5.4      1.769      2.395
REMARK  6 active torsions:
REMARK  status: ('A' for Active; 'I' for Inactive)
REMARK    1  A    between atoms: C_5  and  C_6 
REMARK    2  A    between atoms: C_6  and  C_7 
REMARK    3  A    between atoms: C_7  and  C_8 
REMARK       I    between atoms: C_8  and  N_10 
REMARK    4  A    between atoms: N_10  and  C_11 
REMARK    5  A    between atoms: C_11  and  C_12 
REMARK    6  A    between atoms: C_12  and  C_13 
ROOT
HETATM    1  C   UNL     1     -42.614 -52.605  12.844  1.00  0.00     0.217 C 
HETATM    2  O   UNL     1     -41.736 -53.044  13.583  1.00  0.00    -0.274 OA
HETATM    3  N   UNL     1     -42.635 -51.302  12.404  1.00  0.00    -0.361 N 
HETATM    4  H   UNL     1     -43.306 -51.024  11.698  1.00  0.00     0.162 HD
ENDROOT
BRANCH   3   5
HETATM    5  C   UNL     1     -41.559 -50.353  12.629  1.00  0.00     0.129 C 
BRANCH   5   6
HETATM    6  C   UNL     1     -40.895 -49.903  11.324  1.00  0.00     0.084 C 
BRANCH   6   7
HETATM    7  C   UNL     1     -41.126 -48.442  11.049  1.00  0.00     0.052 A 
HETATM    8  N   UNL     1     -40.159 -47.561  10.873  1.00  0.00    -0.357 N 
HETATM    9  C   UNL     1     -40.695 -46.295  10.687  1.00  0.00     0.012 A 
ATOM     10  HN  UNL     1     -39.162 -47.779  10.874  1.00  0.00     0.166 HD
HETATM   11  C   UNL     1     -39.774 -45.140  10.515  1.00  0.00     0.068 C 
HETATM   12  C   UNL     1     -42.075 -46.247  10.687  1.00  0.00     0.076 A 
HETATM   13  S   UNL     1     -42.721 -47.811  10.948  1.00  0.00    -0.087 SA
ENDBRANCH   6   7
ENDBRANCH   5   6
ENDBRANCH   3   5
BRANCH   1  14
HETATM   14  C   UNL     1     -43.814 -53.447  12.439  1.00  0.00     0.105 C 
BRANCH  14  15
HETATM   15  C   UNL     1     -44.609 -54.005  13.621  1.00  0.00     0.041 C 
BRANCH  15  16
HETATM   16  C   UNL     1     -46.102 -53.667  13.546  1.00  0.00     0.122 C 
HETATM   17  C   UNL     1     -46.342 -52.361  12.803  1.00  0.00     0.034 C 
HETATM   18  C   UNL     1     -46.475 -51.306  13.885  1.00  0.00     0.034 C 
HETATM   19  C   UNL     1     -46.398 -52.071  15.195  1.00  0.00     0.118 C 
HETATM   20  C   UNL     1     -47.402 -51.608  16.233  1.00  0.00     0.039 C 
HETATM   21  O   UNL     1     -46.627 -53.448  14.865  1.00  0.00    -0.381 OA
ENDBRANCH  15  16
ENDBRANCH  14  15
ENDBRANCH   1  14
TORSDOF 6
ENDMDL
MODEL 6
REMARK VINA RESULT:      -5.4      2.167      4.022
REMARK  6 active torsions:
REMARK  status: ('A' for Active; 'I' for Inactive)
REMARK    1  A    between atoms: C_5  and  C_6 
REMARK    2  A    between atoms: C_6  and  C_7 
REMARK    3  A    between atoms: C_7  and  C_8 
REMARK       I    between atoms: C_8  and  N_10 
REMARK    4  A    between atoms: N_10  and  C_11 
REMARK    5  A    between atoms: C_11  and  C_12 
REMARK    6  A    between atoms: C_12  and  C_13 
ROOT
HETATM    1  C   UNL     1     -43.180 -51.792  12.847  1.00  0.00     0.217 C 
HETATM    2  O   UNL     1     -44.068 -51.263  13.513  1.00  0.00    -0.274 OA
HETATM    3  N   UNL     1     -42.299 -51.072  12.076  1.00  0.00    -0.361 N 
HETATM    4  H   UNL     1     -41.509 -51.543  11.649  1.00  0.00     0.162 HD
ENDROOT
BRANCH   3   5
HETATM    5  C   UNL     1     -42.215 -49.623  12.078  1.00  0.00     0.129 C 
BRANCH   5   6
HETATM    6  C   UNL     1     -41.079 -49.103  11.191  1.00  0.00     0.084 C 
BRANCH   6   7
HETATM    7  C   UNL     1     -41.190 -47.624  10.943  1.00  0.00     0.052 A 
HETATM    8  N   UNL     1     -40.173 -46.851  10.610  1.00  0.00    -0.357 N 
HETATM    9  C   UNL     1     -40.591 -45.532  10.499  1.00  0.00     0.012 A 
ATOM     10  HN  UNL     1     -39.218 -47.176  10.456  1.00  0.00     0.166 HD
HETATM   11  C   UNL     1     -39.588 -44.483  10.175  1.00  0.00     0.068 C 
HETATM   12  C   UNL     1     -41.940 -45.335  10.716  1.00  0.00     0.076 A 
HETATM   13  S   UNL     1     -42.703 -46.822  11.089  1.00  0.00    -0.087 SA
ENDBRANCH   6   7
ENDBRANCH   5   6
ENDBRANCH   3   5
BRANCH   1  14
HETATM   14  C   UNL     1     -43.051 -53.305  12.744  1.00  0.00     0.105 C 
BRANCH  14  15
HETATM   15  C   UNL     1     -42.053 -53.911  13.733  1.00  0.00     0.041 C 
BRANCH  15  16
HETATM   16  C   UNL     1     -40.665 -54.122  13.120  1.00  0.00     0.122 C 
HETATM   17  C   UNL     1     -39.670 -54.632  14.154  1.00  0.00     0.034 C 
HETATM   18  C   UNL     1     -38.929 -53.400  14.637  1.00  0.00     0.034 C 
HETATM   19  C   UNL     1     -39.468 -52.258  13.790  1.00  0.00     0.118 C 
HETATM   20  C   UNL     1     -38.399 -51.297  13.309  1.00  0.00     0.039 C 
HETATM   21  O   UNL     1     -40.125 -52.869  12.672  1.00  0.00    -0.381 OA
ENDBRANCH  15  16
ENDBRANCH  14  15
ENDBRANCH   1  14
TORSDOF 6
ENDMDL
MODEL 7
REMARK VINA RESULT:      -5.3      1.729      2.897
REMARK  6 active torsions:
REMARK  status: ('A' for Active; 'I' for Inactive)
REMARK    1  A    between atoms: C_5  and  C_6 
REMARK    2  A    between atoms: C_6  and  C_7 
REMARK    3  A    between atoms: C_7  and  C_8 
REMARK       I    between atoms: C_8  and  N_10 
REMARK    4  A    between atoms: N_10  and  C_11 
REMARK    5  A    between atoms: C_11  and  C_12 
REMARK    6  A    between atoms: C_12  and  C_13 
ROOT
HETATM    1  C   UNL     1     -43.477 -50.191  13.293  1.00  0.00     0.217 C 
HETATM    2  O   UNL     1     -43.374 -49.191  14.000  1.00  0.00    -0.274 OA
HETATM    3  N   UNL     1     -42.482 -50.606  12.440  1.00  0.00    -0.361 N 
HETATM    4  H   UNL     1     -42.565 -51.503  11.976  1.00  0.00     0.162 HD
ENDROOT
BRANCH   3   5
HETATM    5  C   UNL     1     -41.157 -50.014  12.389  1.00  0.00     0.129 C 
BRANCH   5   6
HETATM    6  C   UNL     1     -40.801 -49.501  10.990  1.00  0.00     0.084 C 
BRANCH   6   7
HETATM    7  C   UNL     1     -41.561 -48.253  10.637  1.00  0.00     0.052 A 
HETATM    8  N   UNL     1     -42.605 -48.225   9.830  1.00  0.00    -0.357 N 
HETATM    9  C   UNL     1     -43.051 -46.922   9.670  1.00  0.00     0.012 A 
ATOM     10  HN  UNL     1     -43.023 -49.044   9.389  1.00  0.00     0.166 HD
HETATM   11  C   UNL     1     -44.196 -46.658   8.759  1.00  0.00     0.068 C 
HETATM   12  C   UNL     1     -42.351 -45.979  10.397  1.00  0.00     0.076 A 
HETATM   13  S   UNL     1     -41.094 -46.730  11.285  1.00  0.00    -0.087 SA
ENDBRANCH   6   7
ENDBRANCH   5   6
ENDBRANCH   3   5
BRANCH   1  14
HETATM   14  C   UNL     1     -44.767 -50.996  13.231  1.00  0.00     0.105 C 
BRANCH  14  15
HETATM   15  C   UNL     1     -44.782 -52.216  14.154  1.00  0.00     0.041 C 
BRANCH  15  16
HETATM   16  C   UNL     1     -44.463 -53.522  13.419  1.00  0.00     0.122 C 
HETATM   17  C   UNL     1     -44.320 -54.687  14.387  1.00  0.00     0.034 C 
HETATM   18  C   UNL     1     -42.829 -54.822  14.631  1.00  0.00     0.034 C 
HETATM   19  C   UNL     1     -42.185 -53.791  13.720  1.00  0.00     0.118 C 
HETATM   20  C   UNL     1     -40.944 -54.295  13.009  1.00  0.00     0.039 C 
HETATM   21  O   UNL     1     -43.188 -53.423  12.764  1.00  0.00    -0.381 OA
ENDBRANCH  15  16
ENDBRANCH  14  15
ENDBRANCH   1  14
TORSDOF 6
ENDMDL
MODEL 8
REMARK VINA RESULT:      -5.3      3.006      6.638
REMARK  6 active torsions:
REMARK  status: ('A' for Active; 'I' for Inactive)
REMARK    1  A    between atoms: C_5  and  C_6 
REMARK    2  A    between atoms: C_6  and  C_7 
REMARK    3  A    between atoms: C_7  and  C_8 
REMARK       I    between atoms: C_8  and  N_10 
REMARK    4  A    between atoms: N_10  and  C_11 
REMARK    5  A    between atoms: C_11  and  C_12 
REMARK    6  A    between atoms: C_12  and  C_13 
ROOT
HETATM    1  C   UNL     1     -41.743 -48.799  11.290  1.00  0.00     0.217 C 
HETATM    2  O   UNL     1     -42.040 -48.476  12.438  1.00  0.00    -0.274 OA
HETATM    3  N   UNL     1     -41.024 -49.935  11.000  1.00  0.00    -0.361 N 
HETATM    4  H   UNL     1     -40.915 -50.223  10.034  1.00  0.00     0.162 HD
ENDROOT
BRANCH   3   5
HETATM    5  C   UNL     1     -40.672 -50.946  11.980  1.00  0.00     0.129 C 
BRANCH   5   6
HETATM    6  C   UNL     1     -41.466 -52.243  11.792  1.00  0.00     0.084 C 
BRANCH   6   7
HETATM    7  C   UNL     1     -42.099 -52.707  13.075  1.00  0.00     0.052 A 
HETATM    8  N   UNL     1     -42.073 -53.956  13.503  1.00  0.00    -0.357 N 
HETATM    9  C   UNL     1     -42.783 -54.070  14.689  1.00  0.00     0.012 A 
ATOM     10  HN  UNL     1     -41.598 -54.726  13.030  1.00  0.00     0.166 HD
HETATM   11  C   UNL     1     -42.919 -55.408  15.323  1.00  0.00     0.068 C 
HETATM   12  C   UNL     1     -43.308 -52.884  15.162  1.00  0.00     0.076 A 
HETATM   13  S   UNL     1     -42.928 -51.600  14.094  1.00  0.00    -0.087 SA
ENDBRANCH   6   7
ENDBRANCH   5   6
ENDBRANCH   3   5
BRANCH   1  14
HETATM   14  C   UNL     1     -42.061 -47.907  10.100  1.00  0.00     0.105 C 
BRANCH  14  15
HETATM   15  C   UNL     1     -43.387 -47.154  10.226  1.00  0.00     0.041 C 
BRANCH  15  16
HETATM   16  C   UNL     1     -44.011 -46.817   8.868  1.00  0.00     0.122 C 
HETATM   17  C   UNL     1     -45.232 -45.921   9.022  1.00  0.00     0.034 C 
HETATM   18  C   UNL     1     -46.422 -46.861   8.987  1.00  0.00     0.034 C 
HETATM   19  C   UNL     1     -45.832 -48.236   8.721  1.00  0.00     0.118 C 
HETATM   20  C   UNL     1     -46.622 -49.055   7.719  1.00  0.00     0.039 C 
HETATM   21  O   UNL     1     -44.501 -48.011   8.238  1.00  0.00    -0.381 OA
ENDBRANCH  15  16
ENDBRANCH  14  15
ENDBRANCH   1  14
TORSDOF 6
ENDMDL
MODEL 9
REMARK VINA RESULT:      -5.2      3.638      4.196
REMARK  6 active torsions:
REMARK  status: ('A' for Active; 'I' for Inactive)
REMARK    1  A    between atoms: C_5  and  C_6 
REMARK    2  A    between atoms: C_6  and  C_7 
REMARK    3  A    between atoms: C_7  and  C_8 
REMARK       I    between atoms: C_8  and  N_10 
REMARK    4  A    between atoms: N_10  and  C_11 
REMARK    5  A    between atoms: C_11  and  C_12 
REMARK    6  A    between atoms: C_12  and  C_13 
ROOT
HETATM    1  C   UNL     1     -41.423 -53.337  12.864  1.00  0.00     0.217 C 
HETATM    2  O   UNL     1     -40.647 -53.125  11.934  1.00  0.00    -0.274 OA
HETATM    3  N   UNL     1     -41.003 -53.771  14.100  1.00  0.00    -0.361 N 
HETATM    4  H   UNL     1     -41.664 -53.809  14.867  1.00  0.00     0.162 HD
ENDROOT
BRANCH   3   5
HETATM    5  C   UNL     1     -39.609 -53.878  14.492  1.00  0.00     0.129 C 
BRANCH   5   6
HETATM    6  C   UNL     1     -39.145 -52.683  15.330  1.00  0.00     0.084 C 
BRANCH   6   7
HETATM    7  C   UNL     1     -38.875 -51.471  14.482  1.00  0.00     0.052 A 
HETATM    8  N   UNL     1     -38.291 -51.512  13.298  1.00  0.00    -0.357 N 
HETATM    9  C   UNL     1     -38.143 -50.228  12.794  1.00  0.00     0.012 A 
ATOM     10  HN  UNL     1     -37.992 -52.364  12.823  1.00  0.00     0.166 HD
HETATM   11  C   UNL     1     -37.464 -50.041  11.485  1.00  0.00     0.068 C 
HETATM   12  C   UNL     1     -38.658 -49.230  13.597  1.00  0.00     0.076 A 
HETATM   13  S   UNL     1     -39.323 -49.903  15.025  1.00  0.00    -0.087 SA
ENDBRANCH   6   7
ENDBRANCH   5   6
ENDBRANCH   3   5
BRANCH   1  14
HETATM   14  C   UNL     1     -42.931 -53.235  12.688  1.00  0.00     0.105 C 
BRANCH  14  15
HETATM   15  C   UNL     1     -43.731 -53.743  13.888  1.00  0.00     0.041 C 
BRANCH  15  16
HETATM   16  C   UNL     1     -45.242 -53.749  13.635  1.00  0.00     0.122 C 
HETATM   17  C   UNL     1     -45.641 -52.696  12.611  1.00  0.00     0.034 C 
HETATM   18  C   UNL     1     -46.095 -51.499  13.426  1.00  0.00     0.034 C 
HETATM   19  C   UNL     1     -46.024 -51.957  14.873  1.00  0.00     0.118 C 
HETATM   20  C   UNL     1     -47.209 -51.519  15.711  1.00  0.00     0.039 C 
HETATM   21  O   UNL     1     -45.947 -53.388  14.834  1.00  0.00    -0.381 OA
ENDBRANCH  15  16
ENDBRANCH  14  15
ENDBRANCH   1  14
TORSDOF 6
ENDMDL
