MODEL 1
REMARK VINA RESULT:      -7.2      0.000      0.000
REMARK  3 active torsions:
REMARK  status: ('A' for Active; 'I' for Inactive)
REMARK       I    between atoms: C_2  and  N_3 
REMARK       I    between atoms: C_2  and  N_15 
REMARK    1  A    between atoms: N_3  and  C_4 
REMARK    2  A    between atoms: N_15  and  C_16 
REMARK    3  A    between atoms: C_20  and  C_24 
ROOT
HETATM    1  O   UNL     1     -42.210 -49.666  13.593  1.00  0.00    -0.247 OA
HETATM    2  C   UNL     1     -42.296 -50.262  12.527  1.00  0.00     0.321 C 
HETATM    3  N   UNL     1     -42.959 -51.464  12.419  1.00  0.00    -0.337 N 
HETATM    4  N   UNL     1     -41.810 -49.837  11.316  1.00  0.00    -0.306 N 
HETATM    5  H   UNL     1     -42.768 -52.012  11.593  1.00  0.00     0.164 HD
HETATM    6  H   UNL     1     -42.068 -50.382  10.507  1.00  0.00     0.171 HD
ENDROOT
BRANCH   3   7
HETATM    7  C   UNL     1     -43.524 -52.135  13.604  1.00  0.00     0.103 C 
HETATM    8  C   UNL     1     -44.566 -53.260  13.333  1.00  0.00     0.041 C 
HETATM    9  C   UNL     1     -45.932 -53.857  13.628  1.00  0.00     0.035 C 
HETATM   10  C   UNL     1     -43.954 -53.845  14.675  1.00  0.00     0.138 C 
HETATM   11  C   UNL     1     -45.548 -55.328  13.937  1.00  0.00     0.168 C 
HETATM   12  O   UNL     1     -44.354 -55.225  14.737  1.00  0.00    -0.385 OA
HETATM   13  C   UNL     1     -42.592 -53.327  14.159  1.00  0.00     0.007 C 
HETATM   14  C   UNL     1     -41.511 -52.765  15.089  1.00  0.00     0.014 C 
HETATM   15  C   UNL     1     -41.899 -54.376  13.280  1.00  0.00     0.014 C 
HETATM   16  C   UNL     1     -40.194 -53.378  14.598  1.00  0.00     0.001 C 
HETATM   17  C   UNL     1     -40.468 -53.898  13.197  1.00  0.00     0.001 C 
ENDBRANCH   3   7
BRANCH   4  18
HETATM   18  C   UNL     1     -41.207 -48.586  11.074  1.00  0.00     0.067 A 
HETATM   19  C   UNL     1     -39.947 -48.206  11.479  1.00  0.00     0.120 A 
HETATM   20  N   UNL     1     -39.451 -46.958  11.328  1.00  0.00    -0.353 N 
HETATM   21  C   UNL     1     -40.242 -46.039  10.740  1.00  0.00     0.085 A 
ATOM     22  HN  UNL     1     -38.513 -46.720  11.647  1.00  0.00     0.166 HD
HETATM   23  N   UNL     1     -41.462 -46.331  10.244  1.00  0.00    -0.353 N 
HETATM   24  C   UNL     1     -41.909 -47.595  10.417  1.00  0.00     0.120 A 
ATOM     25  HN  UNL     1     -42.022 -45.629   9.761  1.00  0.00     0.166 HD
BRANCH  21  26
HETATM   26  C   UNL     1     -39.775 -44.608  10.712  1.00  0.00     0.053 A 
HETATM   27  C   UNL     1     -39.675 -43.801  11.986  1.00  0.00     0.013 A 
HETATM   28  C   UNL     1     -40.744 -43.481  10.983  1.00  0.00     0.013 A 
ENDBRANCH  21  26
ENDBRANCH   4  18
TORSDOF 3
ENDMDL
MODEL 2
REMARK VINA RESULT:      -7.0      3.103      8.059
REMARK  3 active torsions:
REMARK  status: ('A' for Active; 'I' for Inactive)
REMARK       I    between atoms: C_2  and  N_3 
REMARK       I    between atoms: C_2  and  N_15 
REMARK    1  A    between atoms: N_3  and  C_4 
REMARK    2  A    between atoms: N_15  and  C_16 
REMARK    3  A    between atoms: C_20  and  C_24 
ROOT
HETATM    1  O   UNL     1     -39.961 -50.008  11.373  1.00  0.00    -0.247 OA
HETATM    2  C   UNL     1     -41.107 -50.136  11.786  1.00  0.00     0.321 C 
HETATM    3  N   UNL     1     -42.130 -49.326  11.348  1.00  0.00    -0.337 N 
HETATM    4  N   UNL     1     -41.550 -51.084  12.675  1.00  0.00    -0.306 N 
HETATM    5  H   UNL     1     -42.969 -49.315  11.912  1.00  0.00     0.164 HD
HETATM    6  H   UNL     1     -42.546 -51.136  12.823  1.00  0.00     0.171 HD
ENDROOT
BRANCH   3   7
HETATM    7  C   UNL     1     -41.878 -48.207  10.423  1.00  0.00     0.103 C 
HETATM    8  C   UNL     1     -43.128 -47.571   9.747  1.00  0.00     0.041 C 
HETATM    9  C   UNL     1     -43.816 -47.109   8.472  1.00  0.00     0.035 C 
HETATM   10  C   UNL     1     -42.220 -46.271   9.798  1.00  0.00     0.138 C 
HETATM   11  C   UNL     1     -44.236 -45.670   8.870  1.00  0.00     0.168 C 
HETATM   12  O   UNL     1     -43.098 -45.152   9.588  1.00  0.00    -0.385 OA
HETATM   13  C   UNL     1     -41.737 -46.787  11.172  1.00  0.00     0.007 C 
HETATM   14  C   UNL     1     -40.302 -46.594  11.675  1.00  0.00     0.014 C 
HETATM   15  C   UNL     1     -42.656 -46.300  12.300  1.00  0.00     0.014 C 
HETATM   16  C   UNL     1     -40.439 -46.168  13.142  1.00  0.00     0.001 C 
HETATM   17  C   UNL     1     -41.852 -46.538  13.557  1.00  0.00     0.001 C 
ENDBRANCH   3   7
BRANCH   4  18
HETATM   18  C   UNL     1     -40.774 -52.138  13.195  1.00  0.00     0.067 A 
HETATM   19  C   UNL     1     -40.740 -53.429  12.717  1.00  0.00     0.120 A 
HETATM   20  N   UNL     1     -40.070 -54.438  13.316  1.00  0.00    -0.353 N 
HETATM   21  C   UNL     1     -39.392 -54.154  14.445  1.00  0.00     0.085 A 
ATOM     22  HN  UNL     1     -40.078 -55.381  12.928  1.00  0.00     0.166 HD
HETATM   23  N   UNL     1     -39.304 -52.908  14.952  1.00  0.00    -0.353 N 
HETATM   24  C   UNL     1     -39.988 -51.934  14.313  1.00  0.00     0.120 A 
ATOM     25  HN  UNL     1     -38.745 -52.709  15.783  1.00  0.00     0.166 HD
BRANCH  21  26
HETATM   26  C   UNL     1     -38.779 -55.293  15.216  1.00  0.00     0.053 A 
HETATM   27  C   UNL     1     -39.509 -55.921  16.380  1.00  0.00     0.013 A 
HETATM   28  C   UNL     1     -38.289 -55.085  16.629  1.00  0.00     0.013 A 
ENDBRANCH  21  26
ENDBRANCH   4  18
TORSDOF 3
ENDMDL
MODEL 3
REMARK VINA RESULT:      -6.6      1.428      3.046
REMARK  3 active torsions:
REMARK  status: ('A' for Active; 'I' for Inactive)
REMARK       I    between atoms: C_2  and  N_3 
REMARK       I    between atoms: C_2  and  N_15 
REMARK    1  A    between atoms: N_3  and  C_4 
REMARK    2  A    between atoms: N_15  and  C_16 
REMARK    3  A    between atoms: C_20  and  C_24 
ROOT
HETATM    1  O   UNL     1     -41.134 -51.415  12.528  1.00  0.00    -0.247 OA
HETATM    2  C   UNL     1     -42.333 -51.169  12.546  1.00  0.00     0.321 C 
HETATM    3  N   UNL     1     -43.260 -52.105  12.949  1.00  0.00    -0.337 N 
HETATM    4  N   UNL     1     -42.923 -49.972  12.225  1.00  0.00    -0.306 N 
HETATM    5  H   UNL     1     -44.221 -51.927  12.692  1.00  0.00     0.164 HD
HETATM    6  H   UNL     1     -43.911 -49.890  12.407  1.00  0.00     0.171 HD
ENDROOT
BRANCH   3   7
HETATM    7  C   UNL     1     -42.858 -53.479  13.297  1.00  0.00     0.103 C 
HETATM    8  C   UNL     1     -41.766 -53.624  14.397  1.00  0.00     0.041 C 
HETATM    9  C   UNL     1     -40.445 -54.233  14.838  1.00  0.00     0.035 C 
HETATM   10  C   UNL     1     -42.552 -54.972  14.688  1.00  0.00     0.138 C 
HETATM   11  C   UNL     1     -40.839 -54.827  16.215  1.00  0.00     0.168 C 
HETATM   12  O   UNL     1     -42.138 -55.412  15.993  1.00  0.00    -0.385 OA
HETATM   13  C   UNL     1     -43.835 -54.170  14.375  1.00  0.00     0.007 C 
HETATM   14  C   UNL     1     -45.049 -54.787  13.671  1.00  0.00     0.014 C 
HETATM   15  C   UNL     1     -44.375 -53.479  15.634  1.00  0.00     0.014 C 
HETATM   16  C   UNL     1     -46.270 -54.282  14.450  1.00  0.00     0.001 C 
HETATM   17  C   UNL     1     -45.788 -53.094  15.264  1.00  0.00     0.001 C 
ENDBRANCH   3   7
BRANCH   4  18
HETATM   18  C   UNL     1     -42.234 -48.784  11.909  1.00  0.00     0.067 A 
HETATM   19  C   UNL     1     -41.679 -48.472  10.689  1.00  0.00     0.120 A 
HETATM   20  N   UNL     1     -40.926 -47.373  10.461  1.00  0.00    -0.353 N 
HETATM   21  C   UNL     1     -40.716 -46.536  11.494  1.00  0.00     0.085 A 
ATOM     22  HN  UNL     1     -40.531 -47.185   9.539  1.00  0.00     0.166 HD
HETATM   23  N   UNL     1     -41.275 -46.715  12.708  1.00  0.00    -0.353 N 
HETATM   24  C   UNL     1     -42.023 -47.827  12.882  1.00  0.00     0.120 A 
ATOM     25  HN  UNL     1     -41.139 -46.041  13.462  1.00  0.00     0.166 HD
BRANCH  21  26
HETATM   26  C   UNL     1     -39.747 -45.398  11.306  1.00  0.00     0.053 A 
HETATM   27  C   UNL     1     -40.240 -44.008  10.979  1.00  0.00     0.013 A 
HETATM   28  C   UNL     1     -39.519 -44.806   9.935  1.00  0.00     0.013 A 
ENDBRANCH  21  26
ENDBRANCH   4  18
TORSDOF 3
ENDMDL
MODEL 4
REMARK VINA RESULT:      -6.4      2.245      2.928
REMARK  3 active torsions:
REMARK  status: ('A' for Active; 'I' for Inactive)
REMARK       I    between atoms: C_2  and  N_3 
REMARK       I    between atoms: C_2  and  N_15 
REMARK    1  A    between atoms: N_3  and  C_4 
REMARK    2  A    between atoms: N_15  and  C_16 
REMARK    3  A    between atoms: C_20  and  C_24 
ROOT
HETATM    1  O   UNL     1     -42.699 -49.297  14.495  1.00  0.00    -0.247 OA
HETATM    2  C   UNL     1     -43.362 -49.856  13.629  1.00  0.00     0.321 C 
HETATM    3  N   UNL     1     -44.261 -50.853  13.934  1.00  0.00    -0.337 N 
HETATM    4  N   UNL     1     -43.352 -49.570  12.286  1.00  0.00    -0.306 N 
HETATM    5  H   UNL     1     -44.568 -51.434  13.166  1.00  0.00     0.164 HD
HETATM    6  H   UNL     1     -44.044 -50.035  11.719  1.00  0.00     0.171 HD
ENDROOT
BRANCH   3   7
HETATM    7  C   UNL     1     -44.406 -51.357  15.311  1.00  0.00     0.103 C 
HETATM    8  C   UNL     1     -45.732 -50.997  16.044  1.00  0.00     0.041 C 
HETATM    9  C   UNL     1     -46.417 -50.439  17.281  1.00  0.00     0.035 C 
HETATM   10  C   UNL     1     -45.460 -52.392  16.752  1.00  0.00     0.138 C 
HETATM   11  C   UNL     1     -47.438 -51.567  17.586  1.00  0.00     0.168 C 
HETATM   12  O   UNL     1     -46.699 -52.785  17.366  1.00  0.00    -0.385 OA
HETATM   13  C   UNL     1     -44.948 -52.873  15.376  1.00  0.00     0.007 C 
HETATM   14  C   UNL     1     -43.783 -53.858  15.221  1.00  0.00     0.014 C 
HETATM   15  C   UNL     1     -46.095 -53.428  14.522  1.00  0.00     0.014 C 
HETATM   16  C   UNL     1     -44.234 -54.854  14.146  1.00  0.00     0.001 C 
HETATM   17  C   UNL     1     -45.397 -54.196  13.424  1.00  0.00     0.001 C 
ENDBRANCH   3   7
BRANCH   4  18
HETATM   18  C   UNL     1     -42.642 -48.512  11.684  1.00  0.00     0.067 A 
HETATM   19  C   UNL     1     -41.422 -48.613  11.055  1.00  0.00     0.120 A 
HETATM   20  N   UNL     1     -40.721 -47.554  10.593  1.00  0.00    -0.353 N 
HETATM   21  C   UNL     1     -41.259 -46.330  10.757  1.00  0.00     0.085 A 
ATOM     22  HN  UNL     1     -39.817 -47.677  10.137  1.00  0.00     0.166 HD
HETATM   23  N   UNL     1     -42.480 -46.133  11.295  1.00  0.00    -0.353 N 
HETATM   24  C   UNL     1     -43.141 -47.225  11.737  1.00  0.00     0.120 A 
ATOM     25  HN  UNL     1     -42.886 -45.199  11.366  1.00  0.00     0.166 HD
BRANCH  21  26
HETATM   26  C   UNL     1     -40.423 -45.129  10.401  1.00  0.00     0.053 A 
HETATM   27  C   UNL     1     -39.439 -44.550  11.391  1.00  0.00     0.013 A 
HETATM   28  C   UNL     1     -40.688 -43.792  11.053  1.00  0.00     0.013 A 
ENDBRANCH  21  26
ENDBRANCH   4  18
TORSDOF 3
ENDMDL
MODEL 5
REMARK VINA RESULT:      -6.1      2.903      8.309
REMARK  3 active torsions:
REMARK  status: ('A' for Active; 'I' for Inactive)
REMARK       I    between atoms: C_2  and  N_3 
REMARK       I    between atoms: C_2  and  N_15 
REMARK    1  A    between atoms: N_3  and  C_4 
REMARK    2  A    between atoms: N_15  and  C_16 
REMARK    3  A    between atoms: C_20  and  C_24 
ROOT
HETATM    1  O   UNL     1     -42.324 -49.388  12.782  1.00  0.00    -0.247 OA
HETATM    2  C   UNL     1     -41.750 -49.395  11.699  1.00  0.00     0.321 C 
HETATM    3  N   UNL     1     -41.812 -48.322  10.838  1.00  0.00    -0.337 N 
HETATM    4  N   UNL     1     -40.959 -50.402  11.205  1.00  0.00    -0.306 N 
HETATM    5  H   UNL     1     -41.544 -48.497   9.880  1.00  0.00     0.164 HD
HETATM    6  H   UNL     1     -40.458 -50.207  10.351  1.00  0.00     0.171 HD
ENDROOT
BRANCH   3   7
HETATM    7  C   UNL     1     -42.644 -47.144  11.143  1.00  0.00     0.103 C 
HETATM    8  C   UNL     1     -41.942 -45.757  11.049  1.00  0.00     0.041 C 
HETATM    9  C   UNL     1     -41.636 -44.416  11.694  1.00  0.00     0.035 C 
HETATM   10  C   UNL     1     -43.403 -45.293  10.639  1.00  0.00     0.138 C 
HETATM   11  C   UNL     1     -42.041 -43.443  10.556  1.00  0.00     0.168 C 
HETATM   12  O   UNL     1     -43.263 -43.997  10.031  1.00  0.00    -0.385 OA
HETATM   13  C   UNL     1     -43.504 -46.635   9.879  1.00  0.00     0.007 C 
HETATM   14  C   UNL     1     -44.810 -47.432   9.772  1.00  0.00     0.014 C 
HETATM   15  C   UNL     1     -42.964 -46.503   8.450  1.00  0.00     0.014 C 
HETATM   16  C   UNL     1     -44.889 -47.886   8.309  1.00  0.00     0.001 C 
HETATM   17  C   UNL     1     -43.488 -47.732   7.744  1.00  0.00     0.001 C 
ENDBRANCH   3   7
BRANCH   4  18
HETATM   18  C   UNL     1     -40.592 -51.567  11.906  1.00  0.00     0.067 A 
HETATM   19  C   UNL     1     -41.136 -52.820  11.734  1.00  0.00     0.120 A 
HETATM   20  N   UNL     1     -40.837 -53.886  12.507  1.00  0.00    -0.353 N 
HETATM   21  C   UNL     1     -39.946 -53.705  13.501  1.00  0.00     0.085 A 
ATOM     22  HN  UNL     1     -41.269 -54.795  12.345  1.00  0.00     0.166 HD
HETATM   23  N   UNL     1     -39.304 -52.537  13.706  1.00  0.00    -0.353 N 
HETATM   24  C   UNL     1     -39.636 -51.504  12.902  1.00  0.00     0.120 A 
ATOM     25  HN  UNL     1     -38.598 -52.438  14.437  1.00  0.00     0.166 HD
BRANCH  21  26
HETATM   26  C   UNL     1     -39.724 -54.832  14.476  1.00  0.00     0.053 A 
HETATM   27  C   UNL     1     -40.384 -54.821  15.835  1.00  0.00     0.013 A 
HETATM   28  C   UNL     1     -38.903 -54.614  15.724  1.00  0.00     0.013 A 
ENDBRANCH  21  26
ENDBRANCH   4  18
TORSDOF 3
ENDMDL
MODEL 6
REMARK VINA RESULT:      -5.8      1.679      2.092
REMARK  3 active torsions:
REMARK  status: ('A' for Active; 'I' for Inactive)
REMARK       I    between atoms: C_2  and  N_3 
REMARK       I    between atoms: C_2  and  N_15 
REMARK    1  A    between atoms: N_3  and  C_4 
REMARK    2  A    between atoms: N_15  and  C_16 
REMARK    3  A    between atoms: C_20  and  C_24 
ROOT
HETATM    1  O   UNL     1     -43.224 -48.449  14.617  1.00  0.00    -0.247 OA
HETATM    2  C   UNL     1     -42.903 -49.105  13.634  1.00  0.00     0.321 C 
HETATM    3  N   UNL     1     -43.216 -50.441  13.520  1.00  0.00    -0.337 N 
HETATM    4  N   UNL     1     -42.252 -48.637  12.521  1.00  0.00    -0.306 N 
HETATM    5  H   UNL     1     -42.704 -50.966  12.825  1.00  0.00     0.164 HD
HETATM    6  H   UNL     1     -42.167 -49.273  11.743  1.00  0.00     0.171 HD
ENDROOT
BRANCH   3   7
HETATM    7  C   UNL     1     -43.877 -51.169  14.619  1.00  0.00     0.103 C 
HETATM    8  C   UNL     1     -45.374 -51.538  14.403  1.00  0.00     0.041 C 
HETATM    9  C   UNL     1     -46.798 -51.534  14.934  1.00  0.00     0.035 C 
HETATM   10  C   UNL     1     -44.972 -52.770  15.320  1.00  0.00     0.138 C 
HETATM   11  C   UNL     1     -47.185 -53.025  14.749  1.00  0.00     0.168 C 
HETATM   12  O   UNL     1     -46.011 -53.752  15.160  1.00  0.00    -0.385 OA
HETATM   13  C   UNL     1     -43.623 -52.759  14.566  1.00  0.00     0.007 C 
HETATM   14  C   UNL     1     -42.292 -53.106  15.242  1.00  0.00     0.014 C 
HETATM   15  C   UNL     1     -43.694 -53.614  13.295  1.00  0.00     0.014 C 
HETATM   16  C   UNL     1     -41.557 -54.015  14.250  1.00  0.00     0.001 C 
HETATM   17  C   UNL     1     -42.247 -53.821  12.911  1.00  0.00     0.001 C 
ENDBRANCH   3   7
BRANCH   4  18
HETATM   18  C   UNL     1     -41.922 -47.288  12.278  1.00  0.00     0.067 A 
HETATM   19  C   UNL     1     -42.802 -46.294  11.916  1.00  0.00     0.120 A 
HETATM   20  N   UNL     1     -42.428 -45.040  11.580  1.00  0.00    -0.353 N 
HETATM   21  C   UNL     1     -41.112 -44.753  11.609  1.00  0.00     0.085 A 
ATOM     22  HN  UNL     1     -43.116 -44.336  11.313  1.00  0.00     0.166 HD
HETATM   23  N   UNL     1     -40.178 -45.635  12.019  1.00  0.00    -0.353 N 
HETATM   24  C   UNL     1     -40.606 -46.874  12.349  1.00  0.00     0.120 A 
ATOM     25  HN  UNL     1     -39.192 -45.379  12.077  1.00  0.00     0.166 HD
BRANCH  21  26
HETATM   26  C   UNL     1     -40.661 -43.417  11.080  1.00  0.00     0.053 A 
HETATM   27  C   UNL     1     -40.478 -42.239  12.008  1.00  0.00     0.013 A 
HETATM   28  C   UNL     1     -41.618 -42.249  11.033  1.00  0.00     0.013 A 
ENDBRANCH  21  26
ENDBRANCH   4  18
TORSDOF 3
ENDMDL
MODEL 7
REMARK VINA RESULT:      -5.7      2.475      7.713
REMARK  3 active torsions:
REMARK  status: ('A' for Active; 'I' for Inactive)
REMARK       I    between atoms: C_2  and  N_3 
REMARK       I    between atoms: C_2  and  N_15 
REMARK    1  A    between atoms: N_3  and  C_4 
REMARK    2  A    between atoms: N_15  and  C_16 
REMARK    3  A    between atoms: C_20  and  C_24 
ROOT
HETATM    1  O   UNL     1     -42.185 -50.234  12.807  1.00  0.00    -0.247 OA
HETATM    2  C   UNL     1     -41.835 -51.114  12.029  1.00  0.00     0.321 C 
HETATM    3  N   UNL     1     -40.800 -50.927  11.141  1.00  0.00    -0.337 N 
HETATM    4  N   UNL     1     -42.358 -52.380  11.945  1.00  0.00    -0.306 N 
HETATM    5  H   UNL     1     -40.743 -51.581  10.372  1.00  0.00     0.164 HD
HETATM    6  H   UNL     1     -41.882 -53.028  11.338  1.00  0.00     0.171 HD
ENDROOT
BRANCH   3   7
HETATM    7  C   UNL     1     -40.119 -49.626  11.023  1.00  0.00     0.103 C 
HETATM    8  C   UNL     1     -40.751 -48.439  11.807  1.00  0.00     0.041 C 
HETATM    9  C   UNL     1     -41.257 -47.006  11.799  1.00  0.00     0.035 C 
HETATM   10  C   UNL     1     -39.237 -47.967  11.876  1.00  0.00     0.138 C 
HETATM   11  C   UNL     1     -40.497 -46.419  13.018  1.00  0.00     0.168 C 
HETATM   12  O   UNL     1     -39.169 -46.968  12.908  1.00  0.00    -0.385 OA
HETATM   13  C   UNL     1     -38.887 -49.462  12.048  1.00  0.00     0.007 C 
HETATM   14  C   UNL     1     -37.619 -50.091  11.458  1.00  0.00     0.014 C 
HETATM   15  C   UNL     1     -38.920 -49.870  13.526  1.00  0.00     0.014 C 
HETATM   16  C   UNL     1     -37.056 -50.988  12.568  1.00  0.00     0.001 C 
HETATM   17  C   UNL     1     -38.189 -51.192  13.559  1.00  0.00     0.001 C 
ENDBRANCH   3   7
BRANCH   4  18
HETATM   18  C   UNL     1     -43.332 -52.918  12.811  1.00  0.00     0.067 A 
HETATM   19  C   UNL     1     -44.678 -53.024  12.547  1.00  0.00     0.120 A 
HETATM   20  N   UNL     1     -45.594 -53.440  13.449  1.00  0.00    -0.353 N 
HETATM   21  C   UNL     1     -45.153 -53.772  14.677  1.00  0.00     0.085 A 
ATOM     22  HN  UNL     1     -46.584 -53.498  13.209  1.00  0.00     0.166 HD
HETATM   23  N   UNL     1     -43.847 -53.771  15.012  1.00  0.00    -0.353 N 
HETATM   24  C   UNL     1     -42.972 -53.353  14.072  1.00  0.00     0.120 A 
ATOM     25  HN  UNL     1     -43.534 -54.073  15.935  1.00  0.00     0.166 HD
BRANCH  21  26
HETATM   26  C   UNL     1     -46.173 -54.077  15.744  1.00  0.00     0.053 A 
HETATM   27  C   UNL     1     -46.648 -52.999  16.690  1.00  0.00     0.013 A 
HETATM   28  C   UNL     1     -45.772 -54.104  17.200  1.00  0.00     0.013 A 
ENDBRANCH  21  26
ENDBRANCH   4  18
TORSDOF 3
ENDMDL
MODEL 8
REMARK VINA RESULT:      -5.7     14.141     15.456
REMARK  3 active torsions:
REMARK  status: ('A' for Active; 'I' for Inactive)
REMARK       I    between atoms: C_2  and  N_3 
REMARK       I    between atoms: C_2  and  N_15 
REMARK    1  A    between atoms: N_3  and  C_4 
REMARK    2  A    between atoms: N_15  and  C_16 
REMARK    3  A    between atoms: C_20  and  C_24 
ROOT
HETATM    1  O   UNL     1     -49.912 -49.837   1.467  1.00  0.00    -0.247 OA
HETATM    2  C   UNL     1     -50.641 -49.463   0.556  1.00  0.00     0.321 C 
HETATM    3  N   UNL     1     -51.204 -50.351  -0.333  1.00  0.00    -0.337 N 
HETATM    4  N   UNL     1     -51.032 -48.171   0.304  1.00  0.00    -0.306 N 
HETATM    5  H   UNL     1     -51.567 -49.960  -1.192  1.00  0.00     0.164 HD
HETATM    6  H   UNL     1     -51.732 -48.040  -0.409  1.00  0.00     0.171 HD
ENDROOT
BRANCH   3   7
HETATM    7  C   UNL     1     -50.887 -51.789  -0.282  1.00  0.00     0.103 C 
HETATM    8  C   UNL     1     -51.923 -52.751  -0.935  1.00  0.00     0.041 C 
HETATM    9  C   UNL     1     -52.787 -53.996  -0.816  1.00  0.00     0.035 C 
HETATM   10  C   UNL     1     -50.618 -53.611  -1.213  1.00  0.00     0.138 C 
HETATM   11  C   UNL     1     -52.401 -54.747  -2.118  1.00  0.00     0.168 C 
HETATM   12  O   UNL     1     -50.974 -54.577  -2.217  1.00  0.00    -0.385 OA
HETATM   13  C   UNL     1     -49.910 -52.263  -1.473  1.00  0.00     0.007 C 
HETATM   14  C   UNL     1     -48.447 -52.007  -1.092  1.00  0.00     0.014 C 
HETATM   15  C   UNL     1     -50.051 -51.839  -2.940  1.00  0.00     0.014 C 
HETATM   16  C   UNL     1     -47.835 -51.278  -2.295  1.00  0.00     0.001 C 
HETATM   17  C   UNL     1     -49.006 -50.762  -3.113  1.00  0.00     0.001 C 
ENDBRANCH   3   7
BRANCH   4  18
HETATM   18  C   UNL     1     -50.735 -47.059   1.117  1.00  0.00     0.067 A 
HETATM   19  C   UNL     1     -51.614 -46.414   1.957  1.00  0.00     0.120 A 
HETATM   20  N   UNL     1     -51.321 -45.280   2.630  1.00  0.00    -0.353 N 
HETATM   21  C   UNL     1     -50.090 -44.759   2.468  1.00  0.00     0.085 A 
ATOM     22  HN  UNL     1     -52.007 -44.834   3.239  1.00  0.00     0.166 HD
HETATM   23  N   UNL     1     -49.134 -45.354   1.725  1.00  0.00    -0.353 N 
HETATM   24  C   UNL     1     -49.478 -46.488   1.077  1.00  0.00     0.120 A 
ATOM     25  HN  UNL     1     -48.194 -44.964   1.656  1.00  0.00     0.166 HD
BRANCH  21  26
HETATM   26  C   UNL     1     -49.799 -43.412   3.076  1.00  0.00     0.053 A 
HETATM   27  C   UNL     1     -49.120 -43.300   4.421  1.00  0.00     0.013 A 
HETATM   28  C   UNL     1     -50.569 -42.935   4.285  1.00  0.00     0.013 A 
ENDBRANCH  21  26
ENDBRANCH   4  18
TORSDOF 3
ENDMDL
MODEL 9
REMARK VINA RESULT:      -5.6      3.931      6.485
REMARK  3 active torsions:
REMARK  status: ('A' for Active; 'I' for Inactive)
REMARK       I    between atoms: C_2  and  N_3 
REMARK       I    between atoms: C_2  and  N_15 
REMARK    1  A    between atoms: N_3  and  C_4 
REMARK    2  A    between atoms: N_15  and  C_16 
REMARK    3  A    between atoms: C_20  and  C_24 
ROOT
HETATM    1  O   UNL     1     -39.921 -44.968  10.553  1.00  0.00    -0.247 OA
HETATM    2  C   UNL     1     -40.091 -45.088  11.760  1.00  0.00     0.321 C 
HETATM    3  N   UNL     1     -39.991 -46.309  12.389  1.00  0.00    -0.337 N 
HETATM    4  N   UNL     1     -40.353 -44.076  12.650  1.00  0.00    -0.306 N 
HETATM    5  H   UNL     1     -40.394 -46.375  13.313  1.00  0.00     0.164 HD
HETATM    6  H   UNL     1     -40.347 -44.320  13.628  1.00  0.00     0.171 HD
ENDROOT
BRANCH   3   7
HETATM    7  C   UNL     1     -39.760 -47.547  11.622  1.00  0.00     0.103 C 
HETATM    8  C   UNL     1     -39.206 -48.763  12.422  1.00  0.00     0.041 C 
HETATM    9  C   UNL     1     -38.174 -49.873  12.539  1.00  0.00     0.035 C 
HETATM   10  C   UNL     1     -40.038 -49.572  11.339  1.00  0.00     0.138 C 
HETATM   11  C   UNL     1     -39.090 -51.104  12.767  1.00  0.00     0.168 C 
HETATM   12  O   UNL     1     -40.186 -50.907  11.852  1.00  0.00    -0.385 OA
HETATM   13  C   UNL     1     -41.088 -48.444  11.454  1.00  0.00     0.007 C 
HETATM   14  C   UNL     1     -41.912 -47.951  10.259  1.00  0.00     0.014 C 
HETATM   15  C   UNL     1     -42.093 -48.737  12.576  1.00  0.00     0.014 C 
HETATM   16  C   UNL     1     -43.345 -47.806  10.786  1.00  0.00     0.001 C 
HETATM   17  C   UNL     1     -43.237 -47.789  12.301  1.00  0.00     0.001 C 
ENDBRANCH   3   7
BRANCH   4  18
HETATM   18  C   UNL     1     -40.378 -42.703  12.336  1.00  0.00     0.067 A 
HETATM   19  C   UNL     1     -39.656 -41.716  12.969  1.00  0.00     0.120 A 
HETATM   20  N   UNL     1     -39.796 -40.397  12.713  1.00  0.00    -0.353 N 
HETATM   21  C   UNL     1     -40.694 -40.035  11.777  1.00  0.00     0.085 A 
ATOM     22  HN  UNL     1     -39.241 -39.700  13.211  1.00  0.00     0.166 HD
HETATM   23  N   UNL     1     -41.397 -40.928  11.051  1.00  0.00    -0.353 N 
HETATM   24  C   UNL     1     -41.216 -42.234  11.343  1.00  0.00     0.120 A 
ATOM     25  HN  UNL     1     -42.037 -40.629  10.315  1.00  0.00     0.166 HD
BRANCH  21  26
HETATM   26  C   UNL     1     -40.984 -38.568  11.596  1.00  0.00     0.053 A 
HETATM   27  C   UNL     1     -40.292 -37.770  10.516  1.00  0.00     0.013 A 
HETATM   28  C   UNL     1     -39.945 -37.532  11.955  1.00  0.00     0.013 A 
ENDBRANCH  21  26
ENDBRANCH   4  18
TORSDOF 3
ENDMDL
