MODEL 1
REMARK VINA RESULT:      -6.0      0.000      0.000
REMARK  4 active torsions:
REMARK  status: ('A' for Active; 'I' for Inactive)
REMARK    1  A    between atoms: N_5  and  C_6 
REMARK    2  A    between atoms: C_6  and  C_7 
REMARK    3  A    between atoms: C_7  and  N_8 
REMARK       I    between atoms: N_8  and  C_9 
REMARK       I    between atoms: C_9  and  N_11 
REMARK    4  A    between atoms: N_11  and  C_12 
ROOT
HETATM    1  N   UNL     1     -40.761 -51.316  11.410  1.00  0.00    -0.341 N 
HETATM    2  C   UNL     1     -40.902 -49.950  11.602  1.00  0.00     0.322 C 
HETATM    3  O   UNL     1     -40.785 -49.443  12.713  1.00  0.00    -0.247 OA
HETATM    4  N   UNL     1     -41.218 -49.308  10.435  1.00  0.00    -0.289 N 
HETATM    5  H   UNL     1     -40.272 -51.556  10.558  1.00  0.00     0.164 HD
HETATM    6  H   UNL     1     -41.656 -49.837   9.700  1.00  0.00     0.172 HD
ENDROOT
BRANCH   1   7
HETATM    7  C   UNL     1     -40.428 -52.095  12.593  1.00  0.00     0.154 C 
BRANCH   7   8
HETATM    8  C   UNL     1     -41.462 -53.176  12.928  1.00  0.00     0.292 C 
BRANCH   8   9
HETATM    9  N   UNL     1     -42.570 -52.688  13.770  1.00  0.00     0.090 N 
HETATM   10  C   UNL     1     -42.799 -53.476  14.990  1.00  0.00     0.273 C 
HETATM   11  C   UNL     1     -43.370 -54.869  14.716  1.00  0.00     0.034 C 
HETATM   12  C   UNL     1     -44.661 -54.810  13.887  1.00  0.00    -0.015 C 
HETATM   13  C   UNL     1     -45.847 -54.349  14.740  1.00  0.00     0.010 C 
HETATM   14  C   UNL     1     -44.468 -53.909  12.658  1.00  0.00     0.034 C 
HETATM   15  C   UNL     1     -43.821 -52.563  13.004  1.00  0.00     0.273 C 
ENDBRANCH   8   9
ENDBRANCH   7   8
ENDBRANCH   1   7
BRANCH   4  16
HETATM   16  C   UNL     1     -41.417 -47.955  10.436  1.00  0.00     0.152 A 
HETATM   17  N   UNL     1     -40.536 -46.998  10.574  1.00  0.00    -0.346 N 
HETATM   18  C   UNL     1     -41.183 -45.785  10.640  1.00  0.00     0.097 A 
ATOM     19  HN  UNL     1     -39.526 -47.130  10.625  1.00  0.00     0.167 HD
HETATM   20  C   UNL     1     -42.554 -45.838  10.504  1.00  0.00     0.070 A 
HETATM   21  S   UNL     1     -43.042 -47.467  10.251  1.00  0.00    -0.064 SA
ENDBRANCH   4  16
TORSDOF 4
ENDMDL
MODEL 2
REMARK VINA RESULT:      -5.8      2.291      3.341
REMARK  4 active torsions:
REMARK  status: ('A' for Active; 'I' for Inactive)
REMARK    1  A    between atoms: N_5  and  C_6 
REMARK    2  A    between atoms: C_6  and  C_7 
REMARK    3  A    between atoms: C_7  and  N_8 
REMARK       I    between atoms: N_8  and  C_9 
REMARK       I    between atoms: C_9  and  N_11 
REMARK    4  A    between atoms: N_11  and  C_12 
ROOT
HETATM    1  N   UNL     1     -42.739 -52.814  11.985  1.00  0.00    -0.341 N 
HETATM    2  C   UNL     1     -41.613 -52.061  12.281  1.00  0.00     0.322 C 
HETATM    3  O   UNL     1     -40.948 -52.272  13.290  1.00  0.00    -0.247 OA
HETATM    4  N   UNL     1     -41.405 -51.080  11.349  1.00  0.00    -0.289 N 
HETATM    5  H   UNL     1     -42.835 -53.029  11.002  1.00  0.00     0.164 HD
HETATM    6  H   UNL     1     -42.189 -50.759  10.807  1.00  0.00     0.172 HD
ENDROOT
BRANCH   1   7
HETATM    7  C   UNL     1     -43.054 -53.884  12.919  1.00  0.00     0.154 C 
BRANCH   7   8
HETATM    8  C   UNL     1     -44.534 -53.942  13.312  1.00  0.00     0.292 C 
BRANCH   8   9
HETATM    9  N   UNL     1     -44.774 -53.667  14.741  1.00  0.00     0.090 N 
HETATM   10  C   UNL     1     -46.138 -53.968  15.197  1.00  0.00     0.273 C 
HETATM   11  C   UNL     1     -47.191 -53.007  14.642  1.00  0.00     0.034 C 
HETATM   12  C   UNL     1     -46.853 -51.541  14.949  1.00  0.00    -0.015 C 
HETATM   13  C   UNL     1     -47.131 -51.205  16.417  1.00  0.00     0.010 C 
HETATM   14  C   UNL     1     -45.397 -51.236  14.569  1.00  0.00     0.034 C 
HETATM   15  C   UNL     1     -44.413 -52.286  15.097  1.00  0.00     0.273 C 
ENDBRANCH   8   9
ENDBRANCH   7   8
ENDBRANCH   1   7
BRANCH   4  16
HETATM   16  C   UNL     1     -40.347 -50.223  11.489  1.00  0.00     0.152 A 
HETATM   17  N   UNL     1     -39.070 -50.499  11.531  1.00  0.00    -0.346 N 
HETATM   18  C   UNL     1     -38.362 -49.352  11.808  1.00  0.00     0.097 A 
ATOM     19  HN  UNL     1     -38.661 -51.422  11.382  1.00  0.00     0.167 HD
HETATM   20  C   UNL     1     -39.117 -48.206  11.927  1.00  0.00     0.070 A 
HETATM   21  S   UNL     1     -40.773 -48.578  11.648  1.00  0.00    -0.064 SA
ENDBRANCH   4  16
TORSDOF 4
ENDMDL
MODEL 3
REMARK VINA RESULT:      -5.6      1.622      2.159
REMARK  4 active torsions:
REMARK  status: ('A' for Active; 'I' for Inactive)
REMARK    1  A    between atoms: N_5  and  C_6 
REMARK    2  A    between atoms: C_6  and  C_7 
REMARK    3  A    between atoms: C_7  and  N_8 
REMARK       I    between atoms: N_8  and  C_9 
REMARK       I    between atoms: C_9  and  N_11 
REMARK    4  A    between atoms: N_11  and  C_12 
ROOT
HETATM    1  N   UNL     1     -41.092 -51.187  11.501  1.00  0.00    -0.341 N 
HETATM    2  C   UNL     1     -41.466 -49.858  11.627  1.00  0.00     0.322 C 
HETATM    3  O   UNL     1     -42.163 -49.473  12.560  1.00  0.00    -0.247 OA
HETATM    4  N   UNL     1     -40.999 -49.104  10.583  1.00  0.00    -0.289 N 
HETATM    5  H   UNL     1     -40.142 -51.311  11.179  1.00  0.00     0.164 HD
HETATM    6  H   UNL     1     -40.786 -49.565   9.715  1.00  0.00     0.172 HD
ENDROOT
BRANCH   1   7
HETATM    7  C   UNL     1     -41.543 -52.079  12.559  1.00  0.00     0.154 C 
BRANCH   7   8
HETATM    8  C   UNL     1     -42.913 -52.711  12.288  1.00  0.00     0.292 C 
BRANCH   8   9
HETATM    9  N   UNL     1     -43.643 -53.079  13.516  1.00  0.00     0.090 N 
HETATM   10  C   UNL     1     -44.971 -53.662  13.281  1.00  0.00     0.273 C 
HETATM   11  C   UNL     1     -45.993 -52.654  12.750  1.00  0.00     0.034 C 
HETATM   12  C   UNL     1     -46.120 -51.427  13.663  1.00  0.00    -0.015 C 
HETATM   13  C   UNL     1     -46.912 -51.759  14.931  1.00  0.00     0.010 C 
HETATM   14  C   UNL     1     -44.732 -50.863  13.999  1.00  0.00     0.034 C 
HETATM   15  C   UNL     1     -43.744 -51.946  14.449  1.00  0.00     0.273 C 
ENDBRANCH   8   9
ENDBRANCH   7   8
ENDBRANCH   1   7
BRANCH   4  16
HETATM   16  C   UNL     1     -41.288 -47.768  10.529  1.00  0.00     0.152 A 
HETATM   17  N   UNL     1     -42.324 -47.175   9.993  1.00  0.00    -0.346 N 
HETATM   18  C   UNL     1     -42.154 -45.811  10.054  1.00  0.00     0.097 A 
ATOM     19  HN  UNL     1     -43.133 -47.650   9.592  1.00  0.00     0.167 HD
HETATM   20  C   UNL     1     -41.002 -45.386  10.682  1.00  0.00     0.070 A 
HETATM   21  S   UNL     1     -40.119 -46.750  11.244  1.00  0.00    -0.064 SA
ENDBRANCH   4  16
TORSDOF 4
ENDMDL
MODEL 4
REMARK VINA RESULT:      -5.2      2.080      3.055
REMARK  4 active torsions:
REMARK  status: ('A' for Active; 'I' for Inactive)
REMARK    1  A    between atoms: N_5  and  C_6 
REMARK    2  A    between atoms: C_6  and  C_7 
REMARK    3  A    between atoms: C_7  and  N_8 
REMARK       I    between atoms: N_8  and  C_9 
REMARK       I    between atoms: C_9  and  N_11 
REMARK    4  A    between atoms: N_11  and  C_12 
ROOT
HETATM    1  N   UNL     1     -40.900 -49.125  11.113  1.00  0.00    -0.341 N 
HETATM    2  C   UNL     1     -42.156 -48.538  11.097  1.00  0.00     0.322 C 
HETATM    3  O   UNL     1     -42.809 -48.392  12.125  1.00  0.00    -0.247 OA
HETATM    4  N   UNL     1     -42.542 -48.210   9.824  1.00  0.00    -0.289 N 
HETATM    5  H   UNL     1     -40.240 -48.685  10.487  1.00  0.00     0.164 HD
HETATM    6  H   UNL     1     -42.125 -48.706   9.054  1.00  0.00     0.172 HD
ENDROOT
BRANCH   1   7
HETATM    7  C   UNL     1     -40.396 -49.517  12.420  1.00  0.00     0.154 C 
BRANCH   7   8
HETATM    8  C   UNL     1     -40.136 -51.022  12.553  1.00  0.00     0.292 C 
BRANCH   8   9
HETATM    9  N   UNL     1     -41.364 -51.838  12.490  1.00  0.00     0.090 N 
HETATM   10  C   UNL     1     -42.232 -51.720  13.670  1.00  0.00     0.273 C 
HETATM   11  C   UNL     1     -41.642 -52.365  14.927  1.00  0.00     0.034 C 
HETATM   12  C   UNL     1     -41.273 -53.838  14.699  1.00  0.00    -0.015 C 
HETATM   13  C   UNL     1     -42.521 -54.725  14.671  1.00  0.00     0.010 C 
HETATM   14  C   UNL     1     -40.446 -53.991  13.413  1.00  0.00     0.034 C 
HETATM   15  C   UNL     1     -41.063 -53.252  12.220  1.00  0.00     0.273 C 
ENDBRANCH   8   9
ENDBRANCH   7   8
ENDBRANCH   1   7
BRANCH   4  16
HETATM   16  C   UNL     1     -43.766 -47.637   9.613  1.00  0.00     0.152 A 
HETATM   17  N   UNL     1     -44.953 -48.127   9.858  1.00  0.00    -0.346 N 
HETATM   18  C   UNL     1     -45.913 -47.266   9.377  1.00  0.00     0.097 A 
ATOM     19  HN  UNL     1     -45.140 -49.011  10.332  1.00  0.00     0.167 HD
HETATM   20  C   UNL     1     -45.434 -46.104   8.810  1.00  0.00     0.070 A 
HETATM   21  S   UNL     1     -43.718 -46.079   8.916  1.00  0.00    -0.064 SA
ENDBRANCH   4  16
TORSDOF 4
ENDMDL
MODEL 5
REMARK VINA RESULT:      -5.2      3.020      4.019
REMARK  4 active torsions:
REMARK  status: ('A' for Active; 'I' for Inactive)
REMARK    1  A    between atoms: N_5  and  C_6 
REMARK    2  A    between atoms: C_6  and  C_7 
REMARK    3  A    between atoms: C_7  and  N_8 
REMARK       I    between atoms: N_8  and  C_9 
REMARK       I    between atoms: C_9  and  N_11 
REMARK    4  A    between atoms: N_11  and  C_12 
ROOT
HETATM    1  N   UNL     1     -41.176 -53.380  14.401  1.00  0.00    -0.341 N 
HETATM    2  C   UNL     1     -40.562 -52.704  13.359  1.00  0.00     0.322 C 
HETATM    3  O   UNL     1     -40.651 -53.095  12.199  1.00  0.00    -0.247 OA
HETATM    4  N   UNL     1     -39.848 -51.626  13.810  1.00  0.00    -0.289 N 
HETATM    5  H   UNL     1     -41.580 -52.769  15.098  1.00  0.00     0.164 HD
HETATM    6  H   UNL     1     -39.533 -51.625  14.766  1.00  0.00     0.172 HD
ENDROOT
BRANCH   1   7
HETATM    7  C   UNL     1     -41.958 -54.549  14.029  1.00  0.00     0.154 C 
BRANCH   7   8
HETATM    8  C   UNL     1     -43.415 -54.492  14.505  1.00  0.00     0.292 C 
BRANCH   8   9
HETATM    9  N   UNL     1     -44.390 -54.398  13.402  1.00  0.00     0.090 N 
HETATM   10  C   UNL     1     -44.124 -53.312  12.448  1.00  0.00     0.273 C 
HETATM   11  C   UNL     1     -44.364 -51.917  13.031  1.00  0.00     0.034 C 
HETATM   12  C   UNL     1     -45.780 -51.768  13.605  1.00  0.00    -0.015 C 
HETATM   13  C   UNL     1     -46.818 -51.623  12.489  1.00  0.00     0.010 C 
HETATM   14  C   UNL     1     -46.110 -52.949  14.530  1.00  0.00     0.034 C 
HETATM   15  C   UNL     1     -45.770 -54.307  13.903  1.00  0.00     0.273 C 
ENDBRANCH   8   9
ENDBRANCH   7   8
ENDBRANCH   1   7
BRANCH   4  16
HETATM   16  C   UNL     1     -39.157 -50.849  12.922  1.00  0.00     0.152 A 
HETATM   17  N   UNL     1     -39.621 -50.004  12.038  1.00  0.00    -0.346 N 
HETATM   18  C   UNL     1     -38.584 -49.530  11.268  1.00  0.00     0.097 A 
ATOM     19  HN  UNL     1     -40.600 -49.737  11.935  1.00  0.00     0.167 HD
HETATM   20  C   UNL     1     -37.332 -49.992  11.613  1.00  0.00     0.070 A 
HETATM   21  S   UNL     1     -37.460 -51.034  12.975  1.00  0.00    -0.064 SA
ENDBRANCH   4  16
TORSDOF 4
ENDMDL
MODEL 6
REMARK VINA RESULT:      -5.1      1.830      2.133
REMARK  4 active torsions:
REMARK  status: ('A' for Active; 'I' for Inactive)
REMARK    1  A    between atoms: N_5  and  C_6 
REMARK    2  A    between atoms: C_6  and  C_7 
REMARK    3  A    between atoms: C_7  and  N_8 
REMARK       I    between atoms: N_8  and  C_9 
REMARK       I    between atoms: C_9  and  N_11 
REMARK    4  A    between atoms: N_11  and  C_12 
ROOT
HETATM    1  N   UNL     1     -41.512 -50.059  12.089  1.00  0.00    -0.341 N 
HETATM    2  C   UNL     1     -42.463 -49.110  11.750  1.00  0.00     0.322 C 
HETATM    3  O   UNL     1     -43.386 -48.826  12.507  1.00  0.00    -0.247 OA
HETATM    4  N   UNL     1     -42.245 -48.607  10.495  1.00  0.00    -0.289 N 
HETATM    5  H   UNL     1     -40.574 -49.812  11.805  1.00  0.00     0.164 HD
HETATM    6  H   UNL     1     -41.723 -49.163   9.839  1.00  0.00     0.172 HD
ENDROOT
BRANCH   1   7
HETATM    7  C   UNL     1     -41.656 -50.663  13.406  1.00  0.00     0.154 C 
BRANCH   7   8
HETATM    8  C   UNL     1     -42.151 -52.113  13.367  1.00  0.00     0.292 C 
BRANCH   8   9
HETATM    9  N   UNL     1     -43.591 -52.234  13.072  1.00  0.00     0.090 N 
HETATM   10  C   UNL     1     -44.473 -51.781  14.156  1.00  0.00     0.273 C 
HETATM   11  C   UNL     1     -44.454 -52.699  15.381  1.00  0.00     0.034 C 
HETATM   12  C   UNL     1     -44.786 -54.153  15.016  1.00  0.00    -0.015 C 
HETATM   13  C   UNL     1     -46.283 -54.329  14.745  1.00  0.00     0.010 C 
HETATM   14  C   UNL     1     -43.940 -54.612  13.819  1.00  0.00     0.034 C 
HETATM   15  C   UNL     1     -43.949 -53.602  12.665  1.00  0.00     0.273 C 
ENDBRANCH   8   9
ENDBRANCH   7   8
ENDBRANCH   1   7
BRANCH   4  16
HETATM   16  C   UNL     1     -43.099 -47.669   9.982  1.00  0.00     0.152 A 
HETATM   17  N   UNL     1     -44.319 -47.828   9.537  1.00  0.00    -0.346 N 
HETATM   18  C   UNL     1     -44.768 -46.645   8.996  1.00  0.00     0.097 A 
ATOM     19  HN  UNL     1     -44.855 -48.695   9.583  1.00  0.00     0.167 HD
HETATM   20  C   UNL     1     -43.890 -45.585   9.082  1.00  0.00     0.070 A 
HETATM   21  S   UNL     1     -42.464 -46.087   9.901  1.00  0.00    -0.064 SA
ENDBRANCH   4  16
TORSDOF 4
ENDMDL
MODEL 7
REMARK VINA RESULT:      -5.1      3.567      7.011
REMARK  4 active torsions:
REMARK  status: ('A' for Active; 'I' for Inactive)
REMARK    1  A    between atoms: N_5  and  C_6 
REMARK    2  A    between atoms: C_6  and  C_7 
REMARK    3  A    between atoms: C_7  and  N_8 
REMARK       I    between atoms: N_8  and  C_9 
REMARK       I    between atoms: C_9  and  N_11 
REMARK    4  A    between atoms: N_11  and  C_12 
ROOT
HETATM    1  N   UNL     1     -40.516 -51.333  11.410  1.00  0.00    -0.341 N 
HETATM    2  C   UNL     1     -41.666 -51.764  12.053  1.00  0.00     0.322 C 
HETATM    3  O   UNL     1     -42.495 -50.969  12.487  1.00  0.00    -0.247 OA
HETATM    4  N   UNL     1     -41.702 -53.128  12.158  1.00  0.00    -0.289 N 
HETATM    5  H   UNL     1     -40.259 -51.903  10.616  1.00  0.00     0.164 HD
HETATM    6  H   UNL     1     -40.834 -53.635  12.125  1.00  0.00     0.172 HD
ENDROOT
BRANCH   1   7
HETATM    7  C   UNL     1     -40.377 -49.893  11.250  1.00  0.00     0.154 C 
BRANCH   7   8
HETATM    8  C   UNL     1     -39.254 -49.286  12.100  1.00  0.00     0.292 C 
BRANCH   8   9
HETATM    9  N   UNL     1     -39.623 -49.103  13.516  1.00  0.00     0.090 N 
HETATM   10  C   UNL     1     -39.472 -47.727  14.011  1.00  0.00     0.273 C 
HETATM   11  C   UNL     1     -38.012 -47.283  14.137  1.00  0.00     0.034 C 
HETATM   12  C   UNL     1     -37.192 -48.242  15.012  1.00  0.00    -0.015 C 
HETATM   13  C   UNL     1     -37.516 -48.051  16.496  1.00  0.00     0.010 C 
HETATM   14  C   UNL     1     -37.416 -49.695  14.570  1.00  0.00     0.034 C 
HETATM   15  C   UNL     1     -38.900 -50.039  14.391  1.00  0.00     0.273 C 
ENDBRANCH   8   9
ENDBRANCH   7   8
ENDBRANCH   1   7
BRANCH   4  16
HETATM   16  C   UNL     1     -42.757 -53.734  12.784  1.00  0.00     0.152 A 
HETATM   17  N   UNL     1     -43.990 -53.866  12.368  1.00  0.00    -0.346 N 
HETATM   18  C   UNL     1     -44.752 -54.431  13.365  1.00  0.00     0.097 A 
ATOM     19  HN  UNL     1     -44.334 -53.592  11.448  1.00  0.00     0.167 HD
HETATM   20  C   UNL     1     -44.069 -54.763  14.515  1.00  0.00     0.070 A 
HETATM   21  S   UNL     1     -42.403 -54.383  14.323  1.00  0.00    -0.064 SA
ENDBRANCH   4  16
TORSDOF 4
ENDMDL
MODEL 8
REMARK VINA RESULT:      -5.1      2.521      7.190
REMARK  4 active torsions:
REMARK  status: ('A' for Active; 'I' for Inactive)
REMARK    1  A    between atoms: N_5  and  C_6 
REMARK    2  A    between atoms: C_6  and  C_7 
REMARK    3  A    between atoms: C_7  and  N_8 
REMARK       I    between atoms: N_8  and  C_9 
REMARK       I    between atoms: C_9  and  N_11 
REMARK    4  A    between atoms: N_11  and  C_12 
ROOT
HETATM    1  N   UNL     1     -40.874 -51.303  11.437  1.00  0.00    -0.341 N 
HETATM    2  C   UNL     1     -42.004 -51.541  12.204  1.00  0.00     0.322 C 
HETATM    3  O   UNL     1     -42.304 -50.816  13.147  1.00  0.00    -0.247 OA
HETATM    4  N   UNL     1     -42.662 -52.670  11.792  1.00  0.00    -0.289 N 
HETATM    5  H   UNL     1     -41.013 -51.470  10.449  1.00  0.00     0.164 HD
HETATM    6  H   UNL     1     -42.144 -53.372  11.293  1.00  0.00     0.172 HD
ENDROOT
BRANCH   1   7
HETATM    7  C   UNL     1     -40.097 -50.127  11.795  1.00  0.00     0.154 C 
BRANCH   7   8
HETATM    8  C   UNL     1     -40.407 -48.898  10.932  1.00  0.00     0.292 C 
BRANCH   8   9
HETATM    9  N   UNL     1     -41.304 -47.930  11.589  1.00  0.00     0.090 N 
HETATM   10  C   UNL     1     -41.562 -46.713  10.807  1.00  0.00     0.273 C 
HETATM   11  C   UNL     1     -40.344 -45.793  10.692  1.00  0.00     0.034 C 
HETATM   12  C   UNL     1     -39.776 -45.414  12.067  1.00  0.00    -0.015 C 
HETATM   13  C   UNL     1     -40.658 -44.375  12.764  1.00  0.00     0.010 C 
HETATM   14  C   UNL     1     -39.592 -46.668  12.935  1.00  0.00     0.034 C 
HETATM   15  C   UNL     1     -40.828 -47.576  12.936  1.00  0.00     0.273 C 
ENDBRANCH   8   9
ENDBRANCH   7   8
ENDBRANCH   1   7
BRANCH   4  16
HETATM   16  C   UNL     1     -43.793 -53.073  12.448  1.00  0.00     0.152 A 
HETATM   17  N   UNL     1     -45.026 -52.670  12.279  1.00  0.00    -0.346 N 
HETATM   18  C   UNL     1     -45.832 -53.246  13.235  1.00  0.00     0.097 A 
ATOM     19  HN  UNL     1     -45.342 -52.028  11.552  1.00  0.00     0.167 HD
HETATM   20  C   UNL     1     -45.199 -54.121  14.092  1.00  0.00     0.070 A 
HETATM   21  S   UNL     1     -43.540 -54.248  13.661  1.00  0.00    -0.064 SA
ENDBRANCH   4  16
TORSDOF 4
ENDMDL
MODEL 9
REMARK VINA RESULT:      -5.0      1.772      2.780
REMARK  4 active torsions:
REMARK  status: ('A' for Active; 'I' for Inactive)
REMARK    1  A    between atoms: N_5  and  C_6 
REMARK    2  A    between atoms: C_6  and  C_7 
REMARK    3  A    between atoms: C_7  and  N_8 
REMARK       I    between atoms: N_8  and  C_9 
REMARK       I    between atoms: C_9  and  N_11 
REMARK    4  A    between atoms: N_11  and  C_12 
ROOT
HETATM    1  N   UNL     1     -41.545 -51.077  11.475  1.00  0.00    -0.341 N 
HETATM    2  C   UNL     1     -41.073 -49.773  11.484  1.00  0.00     0.322 C 
HETATM    3  O   UNL     1     -40.083 -49.454  12.135  1.00  0.00    -0.247 OA
HETATM    4  N   UNL     1     -41.865 -48.946  10.733  1.00  0.00    -0.289 N 
HETATM    5  H   UNL     1     -41.871 -51.383  10.568  1.00  0.00     0.164 HD
HETATM    6  H   UNL     1     -42.821 -49.214  10.573  1.00  0.00     0.172 HD
ENDROOT
BRANCH   1   7
HETATM    7  C   UNL     1     -40.775 -52.039  12.249  1.00  0.00     0.154 C 
BRANCH   7   8
HETATM    8  C   UNL     1     -41.543 -52.626  13.439  1.00  0.00     0.292 C 
BRANCH   8   9
HETATM    9  N   UNL     1     -41.323 -54.073  13.623  1.00  0.00     0.090 N 
HETATM   10  C   UNL     1     -42.058 -54.660  14.753  1.00  0.00     0.273 C 
HETATM   11  C   UNL     1     -41.531 -54.214  16.119  1.00  0.00     0.034 C 
HETATM   12  C   UNL     1     -40.029 -54.492  16.276  1.00  0.00    -0.015 C 
HETATM   13  C   UNL     1     -39.764 -55.981  16.514  1.00  0.00     0.010 C 
HETATM   14  C   UNL     1     -39.257 -53.971  15.055  1.00  0.00     0.034 C 
HETATM   15  C   UNL     1     -39.892 -54.396  13.726  1.00  0.00     0.273 C 
ENDBRANCH   8   9
ENDBRANCH   7   8
ENDBRANCH   1   7
BRANCH   4  16
HETATM   16  C   UNL     1     -41.563 -47.615  10.642  1.00  0.00     0.152 A 
HETATM   17  N   UNL     1     -40.388 -47.045  10.571  1.00  0.00    -0.346 N 
HETATM   18  C   UNL     1     -40.539 -45.678  10.619  1.00  0.00     0.097 A 
ATOM     19  HN  UNL     1     -39.498 -47.537  10.493  1.00  0.00     0.167 HD
HETATM   20  C   UNL     1     -41.840 -45.228  10.679  1.00  0.00     0.070 A 
HETATM   21  S   UNL     1     -42.914 -46.571  10.641  1.00  0.00    -0.064 SA
ENDBRANCH   4  16
TORSDOF 4
ENDMDL
