MODEL 1
REMARK VINA RESULT:      -4.4      0.000      0.000
REMARK  4 active torsions:
REMARK  status: ('A' for Active; 'I' for Inactive)
REMARK    1  A    between atoms: C_4  and  C_8 
REMARK    2  A    between atoms: C_8  and  N_9 
REMARK    3  A    between atoms: C_8  and  C_10 
REMARK    4  A    between atoms: C_10  and  N_11 
ROOT
HETATM    1  C   UNL     1     -42.108 -47.551  10.514  1.00  0.00     0.281 C 
ENDROOT
BRANCH   1   2
HETATM    2  C   UNL     1     -43.372 -47.597   9.710  1.00  0.00     0.010 A 
HETATM    3  C   UNL     1     -44.689 -47.544  10.131  1.00  0.00     0.120 A 
HETATM    4  N   UNL     1     -45.458 -47.655   9.009  1.00  0.00    -0.308 N 
HETATM    5  C   UNL     1     -46.898 -47.672   8.940  1.00  0.00     0.177 C 
HETATM    6  N   UNL     1     -44.740 -47.774   7.881  1.00  0.00    -0.310 N 
HETATM    7  C   UNL     1     -43.475 -47.740   8.306  1.00  0.00     0.118 A 
ATOM      8  HN  UNL     1     -45.082 -47.869   6.925  1.00  0.00     0.186 HD
ENDBRANCH   1   2
BRANCH   1   9
HETATM    9  N   UNL     1     -41.244 -48.648  10.058  1.00  0.00     0.089 N 
HETATM   10  H   UNL     1     -40.283 -48.319  10.018  1.00  0.00     0.313 HD
HETATM   11  H   UNL     1     -41.502 -48.879   9.099  1.00  0.00     0.313 HD
ENDBRANCH   1   9
BRANCH   1  12
HETATM   12  C   UNL     1     -41.374 -46.185  10.401  1.00  0.00     0.306 C 
BRANCH  12  13
HETATM   13  N   UNL     1     -39.908 -46.296  10.388  1.00  0.00     0.080 N 
HETATM   14  H   UNL     1     -39.524 -45.747  11.159  1.00  0.00     0.312 HD
HETATM   15  H   UNL     1     -39.551 -45.872   9.533  1.00  0.00     0.312 HD
ENDBRANCH  12  13
ENDBRANCH   1  12
TORSDOF 4
ENDMDL
MODEL 2
REMARK VINA RESULT:      -4.3      1.554      4.435
REMARK  4 active torsions:
REMARK  status: ('A' for Active; 'I' for Inactive)
REMARK    1  A    between atoms: C_4  and  C_8 
REMARK    2  A    between atoms: C_8  and  N_9 
REMARK    3  A    between atoms: C_8  and  C_10 
REMARK    4  A    between atoms: C_10  and  N_11 
ROOT
HETATM    1  C   UNL     1     -45.944 -47.244   9.323  1.00  0.00     0.281 C 
ENDROOT
BRANCH   1   2
HETATM    2  C   UNL     1     -44.461 -47.127   9.510  1.00  0.00     0.010 A 
HETATM    3  C   UNL     1     -43.635 -47.750  10.429  1.00  0.00     0.120 A 
HETATM    4  N   UNL     1     -42.376 -47.279  10.198  1.00  0.00    -0.308 N 
HETATM    5  C   UNL     1     -41.174 -47.620  10.918  1.00  0.00     0.177 C 
HETATM    6  N   UNL     1     -42.315 -46.393   9.191  1.00  0.00    -0.310 N 
HETATM    7  C   UNL     1     -43.580 -46.301   8.774  1.00  0.00     0.118 A 
ATOM      8  HN  UNL     1     -41.495 -45.906   8.829  1.00  0.00     0.186 HD
ENDBRANCH   1   2
BRANCH   1   9
HETATM    9  N   UNL     1     -46.411 -46.022   8.655  1.00  0.00     0.089 N 
HETATM   10  H   UNL     1     -45.674 -45.675   8.046  1.00  0.00     0.313 HD
HETATM   11  H   UNL     1     -46.549 -45.303   9.365  1.00  0.00     0.313 HD
ENDBRANCH   1   9
BRANCH   1  12
HETATM   12  C   UNL     1     -46.350 -48.508   8.513  1.00  0.00     0.306 C 
BRANCH  12  13
HETATM   13  N   UNL     1     -45.690 -48.612   7.204  1.00  0.00     0.080 N 
HETATM   14  H   UNL     1     -45.062 -49.418   7.209  1.00  0.00     0.312 HD
HETATM   15  H   UNL     1     -45.099 -47.794   7.064  1.00  0.00     0.312 HD
ENDBRANCH  12  13
ENDBRANCH   1  12
TORSDOF 4
ENDMDL
MODEL 3
REMARK VINA RESULT:      -4.0      1.280      2.000
REMARK  4 active torsions:
REMARK  status: ('A' for Active; 'I' for Inactive)
REMARK    1  A    between atoms: C_4  and  C_8 
REMARK    2  A    between atoms: C_8  and  N_9 
REMARK    3  A    between atoms: C_8  and  C_10 
REMARK    4  A    between atoms: C_10  and  N_11 
ROOT
HETATM    1  C   UNL     1     -42.070 -47.883  10.203  1.00  0.00     0.281 C 
ENDROOT
BRANCH   1   2
HETATM    2  C   UNL     1     -43.378 -47.305   9.755  1.00  0.00     0.010 A 
HETATM    3  C   UNL     1     -44.653 -47.838   9.835  1.00  0.00     0.120 A 
HETATM    4  N   UNL     1     -45.489 -46.927   9.259  1.00  0.00    -0.308 N 
HETATM    5  C   UNL     1     -46.916 -47.043   9.086  1.00  0.00     0.177 C 
HETATM    6  N   UNL     1     -44.856 -45.832   8.808  1.00  0.00    -0.310 N 
HETATM    7  C   UNL     1     -43.576 -46.061   9.108  1.00  0.00     0.118 A 
ATOM      8  HN  UNL     1     -45.259 -45.018   8.345  1.00  0.00     0.186 HD
ENDBRANCH   1   2
BRANCH   1   9
HETATM    9  N   UNL     1     -41.083 -46.795  10.228  1.00  0.00     0.089 N 
HETATM   10  H   UNL     1     -40.647 -46.721   9.312  1.00  0.00     0.313 HD
HETATM   11  H   UNL     1     -40.337 -47.057  10.872  1.00  0.00     0.313 HD
ENDBRANCH   1   9
BRANCH   1  12
HETATM   12  C   UNL     1     -42.163 -48.578  11.590  1.00  0.00     0.306 C 
BRANCH  12  13
HETATM   13  N   UNL     1     -41.886 -50.021  11.554  1.00  0.00     0.080 N 
HETATM   14  H   UNL     1     -41.111 -50.196  10.912  1.00  0.00     0.312 HD
HETATM   15  H   UNL     1     -42.693 -50.504  11.161  1.00  0.00     0.312 HD
ENDBRANCH  12  13
ENDBRANCH   1  12
TORSDOF 4
ENDMDL
MODEL 4
REMARK VINA RESULT:      -4.0      2.170      3.157
REMARK  4 active torsions:
REMARK  status: ('A' for Active; 'I' for Inactive)
REMARK    1  A    between atoms: C_4  and  C_8 
REMARK    2  A    between atoms: C_8  and  N_9 
REMARK    3  A    between atoms: C_8  and  C_10 
REMARK    4  A    between atoms: C_10  and  N_11 
ROOT
HETATM    1  C   UNL     1     -40.599 -49.056  11.425  1.00  0.00     0.281 C 
ENDROOT
BRANCH   1   2
HETATM    2  C   UNL     1     -41.292 -47.902  10.765  1.00  0.00     0.010 A 
HETATM    3  C   UNL     1     -42.484 -47.874  10.062  1.00  0.00     0.120 A 
HETATM    4  N   UNL     1     -42.654 -46.588   9.641  1.00  0.00    -0.308 N 
HETATM    5  C   UNL     1     -43.742 -46.067   8.851  1.00  0.00     0.177 C 
HETATM    6  N   UNL     1     -41.661 -45.767  10.020  1.00  0.00    -0.310 N 
HETATM    7  C   UNL     1     -40.835 -46.565  10.702  1.00  0.00     0.118 A 
ATOM      8  HN  UNL     1     -41.561 -44.770   9.832  1.00  0.00     0.186 HD
ENDBRANCH   1   2
BRANCH   1   9
HETATM    9  N   UNL     1     -40.506 -50.145  10.445  1.00  0.00     0.089 N 
HETATM   10  H   UNL     1     -40.434 -51.032  10.939  1.00  0.00     0.313 HD
HETATM   11  H   UNL     1     -39.630 -50.040   9.933  1.00  0.00     0.313 HD
ENDBRANCH   1   9
BRANCH   1  12
HETATM   12  C   UNL     1     -39.192 -48.679  11.970  1.00  0.00     0.306 C 
BRANCH  12  13
HETATM   13  N   UNL     1     -38.083 -49.324  11.251  1.00  0.00     0.080 N 
HETATM   14  H   UNL     1     -37.986 -48.892  10.330  1.00  0.00     0.312 HD
HETATM   15  H   UNL     1     -38.320 -50.300  11.082  1.00  0.00     0.312 HD
ENDBRANCH  12  13
ENDBRANCH   1  12
TORSDOF 4
ENDMDL
MODEL 5
REMARK VINA RESULT:      -4.0      1.473      4.400
REMARK  4 active torsions:
REMARK  status: ('A' for Active; 'I' for Inactive)
REMARK    1  A    between atoms: C_4  and  C_8 
REMARK    2  A    between atoms: C_8  and  N_9 
REMARK    3  A    between atoms: C_8  and  C_10 
REMARK    4  A    between atoms: C_10  and  N_11 
ROOT
HETATM    1  C   UNL     1     -44.214 -47.103   9.323  1.00  0.00     0.281 C 
ENDROOT
BRANCH   1   2
HETATM    2  C   UNL     1     -42.828 -46.920   9.863  1.00  0.00     0.010 A 
HETATM    3  C   UNL     1     -42.113 -45.756  10.087  1.00  0.00     0.120 A 
HETATM    4  N   UNL     1     -40.891 -46.137  10.558  1.00  0.00    -0.308 N 
HETATM    5  C   UNL     1     -39.789 -45.278  10.915  1.00  0.00     0.177 C 
HETATM    6  N   UNL     1     -40.752 -47.469  10.663  1.00  0.00    -0.310 N 
HETATM    7  C   UNL     1     -41.927 -47.943  10.242  1.00  0.00     0.118 A 
ATOM      8  HN  UNL     1     -39.941 -47.993  10.989  1.00  0.00     0.186 HD
ENDBRANCH   1   2
BRANCH   1   9
HETATM    9  N   UNL     1     -44.784 -45.769   9.089  1.00  0.00     0.089 N 
HETATM   10  H   UNL     1     -44.100 -45.064   9.353  1.00  0.00     0.313 HD
HETATM   11  H   UNL     1     -45.573 -45.644   9.724  1.00  0.00     0.313 HD
ENDBRANCH   1   9
BRANCH   1  12
HETATM   12  C   UNL     1     -44.244 -47.953   8.021  1.00  0.00     0.306 C 
BRANCH  12  13
HETATM   13  N   UNL     1     -43.062 -47.777   7.167  1.00  0.00     0.080 N 
HETATM   14  H   UNL     1     -42.438 -48.576   7.290  1.00  0.00     0.312 HD
HETATM   15  H   UNL     1     -42.541 -46.960   7.485  1.00  0.00     0.312 HD
ENDBRANCH  12  13
ENDBRANCH   1  12
TORSDOF 4
ENDMDL
MODEL 6
REMARK VINA RESULT:      -3.9      1.329      4.388
REMARK  4 active torsions:
REMARK  status: ('A' for Active; 'I' for Inactive)
REMARK    1  A    between atoms: C_4  and  C_8 
REMARK    2  A    between atoms: C_8  and  N_9 
REMARK    3  A    between atoms: C_8  and  C_10 
REMARK    4  A    between atoms: C_10  and  N_11 
ROOT
HETATM    1  C   UNL     1     -43.582 -47.141   8.423  1.00  0.00     0.281 C 
ENDROOT
BRANCH   1   2
HETATM    2  C   UNL     1     -42.611 -47.034   9.560  1.00  0.00     0.010 A 
HETATM    3  C   UNL     1     -42.118 -45.909  10.197  1.00  0.00     0.120 A 
HETATM    4  N   UNL     1     -41.242 -46.354  11.144  1.00  0.00    -0.308 N 
HETATM    5  C   UNL     1     -40.459 -45.551  12.050  1.00  0.00     0.177 C 
HETATM    6  N   UNL     1     -41.126 -47.691  11.176  1.00  0.00    -0.310 N 
HETATM    7  C   UNL     1     -41.956 -48.104  10.215  1.00  0.00     0.118 A 
ATOM      8  HN  UNL     1     -40.542 -48.258  11.791  1.00  0.00     0.186 HD
ENDBRANCH   1   2
BRANCH   1   9
HETATM    9  N   UNL     1     -43.096 -48.187   7.513  1.00  0.00     0.089 N 
HETATM   10  H   UNL     1     -42.347 -47.807   6.939  1.00  0.00     0.313 HD
HETATM   11  H   UNL     1     -43.849 -48.424   6.869  1.00  0.00     0.313 HD
ENDBRANCH   1   9
BRANCH   1  12
HETATM   12  C   UNL     1     -45.031 -47.448   8.896  1.00  0.00     0.306 C 
BRANCH  12  13
HETATM   13  N   UNL     1     -45.929 -46.285   8.856  1.00  0.00     0.080 N 
HETATM   14  H   UNL     1     -45.597 -45.630   8.146  1.00  0.00     0.312 HD
HETATM   15  H   UNL     1     -45.872 -45.791   9.745  1.00  0.00     0.312 HD
ENDBRANCH  12  13
ENDBRANCH   1  12
TORSDOF 4
ENDMDL
MODEL 7
REMARK VINA RESULT:      -3.9      4.941      5.490
REMARK  4 active torsions:
REMARK  status: ('A' for Active; 'I' for Inactive)
REMARK    1  A    between atoms: C_4  and  C_8 
REMARK    2  A    between atoms: C_8  and  N_9 
REMARK    3  A    between atoms: C_8  and  C_10 
REMARK    4  A    between atoms: C_10  and  N_11 
ROOT
HETATM    1  C   UNL     1     -41.447 -51.709  12.240  1.00  0.00     0.281 C 
ENDROOT
BRANCH   1   2
HETATM    2  C   UNL     1     -42.870 -51.955  12.643  1.00  0.00     0.010 A 
HETATM    3  C   UNL     1     -43.751 -51.129  13.318  1.00  0.00     0.120 A 
HETATM    4  N   UNL     1     -44.909 -51.835  13.462  1.00  0.00    -0.308 N 
HETATM    5  C   UNL     1     -46.117 -51.402  14.121  1.00  0.00     0.177 C 
HETATM    6  N   UNL     1     -44.853 -53.065  12.927  1.00  0.00    -0.310 N 
HETATM    7  C   UNL     1     -43.616 -53.138  12.431  1.00  0.00     0.118 A 
ATOM      8  HN  UNL     1     -45.584 -53.776  12.905  1.00  0.00     0.186 HD
ENDBRANCH   1   2
BRANCH   1   9
HETATM    9  N   UNL     1     -41.126 -52.629  11.140  1.00  0.00     0.089 N 
HETATM   10  H   UNL     1     -40.151 -52.910  11.215  1.00  0.00     0.313 HD
HETATM   11  H   UNL     1     -41.203 -52.115  10.262  1.00  0.00     0.313 HD
ENDBRANCH   1   9
BRANCH   1  12
HETATM   12  C   UNL     1     -41.186 -50.235  11.822  1.00  0.00     0.306 C 
BRANCH  12  13
HETATM   13  N   UNL     1     -40.531 -50.093  10.514  1.00  0.00     0.080 N 
HETATM   14  H   UNL     1     -39.616 -49.657  10.643  1.00  0.00     0.312 HD
HETATM   15  H   UNL     1     -41.072 -49.449   9.939  1.00  0.00     0.312 HD
ENDBRANCH  12  13
ENDBRANCH   1  12
TORSDOF 4
ENDMDL
MODEL 8
REMARK VINA RESULT:      -3.9      3.002      4.424
REMARK  4 active torsions:
REMARK  status: ('A' for Active; 'I' for Inactive)
REMARK    1  A    between atoms: C_4  and  C_8 
REMARK    2  A    between atoms: C_8  and  N_9 
REMARK    3  A    between atoms: C_8  and  C_10 
REMARK    4  A    between atoms: C_10  and  N_11 
ROOT
HETATM    1  C   UNL     1     -40.147 -49.182  11.524  1.00  0.00     0.281 C 
ENDROOT
BRANCH   1   2
HETATM    2  C   UNL     1     -40.526 -47.792  11.111  1.00  0.00     0.010 A 
HETATM    3  C   UNL     1     -39.902 -46.588  11.386  1.00  0.00     0.120 A 
HETATM    4  N   UNL     1     -40.664 -45.616  10.806  1.00  0.00    -0.308 N 
HETATM    5  C   UNL     1     -40.430 -44.193  10.836  1.00  0.00     0.177 C 
HETATM    6  N   UNL     1     -41.743 -46.095  10.168  1.00  0.00    -0.310 N 
HETATM    7  C   UNL     1     -41.660 -47.415  10.353  1.00  0.00     0.118 A 
ATOM      8  HN  UNL     1     -42.458 -45.574   9.661  1.00  0.00     0.186 HD
ENDBRANCH   1   2
BRANCH   1   9
HETATM    9  N   UNL     1     -40.531 -50.093  10.437  1.00  0.00     0.089 N 
HETATM   10  H   UNL     1     -40.565 -51.044  10.798  1.00  0.00     0.313 HD
HETATM   11  H   UNL     1     -39.788 -50.086   9.738  1.00  0.00     0.313 HD
ENDBRANCH   1   9
BRANCH   1  12
HETATM   12  C   UNL     1     -38.633 -49.319  11.853  1.00  0.00     0.306 C 
BRANCH  12  13
HETATM   13  N   UNL     1     -37.853 -49.983  10.799  1.00  0.00     0.080 N 
HETATM   14  H   UNL     1     -37.810 -49.374   9.980  1.00  0.00     0.312 HD
HETATM   15  H   UNL     1     -38.345 -50.824  10.501  1.00  0.00     0.312 HD
ENDBRANCH  12  13
ENDBRANCH   1  12
TORSDOF 4
ENDMDL
MODEL 9
REMARK VINA RESULT:      -3.9      4.893      6.679
REMARK  4 active torsions:
REMARK  status: ('A' for Active; 'I' for Inactive)
REMARK    1  A    between atoms: C_4  and  C_8 
REMARK    2  A    between atoms: C_8  and  N_9 
REMARK    3  A    between atoms: C_8  and  C_10 
REMARK    4  A    between atoms: C_10  and  N_11 
ROOT
HETATM    1  C   UNL     1     -40.682 -50.095  11.872  1.00  0.00     0.281 C 
ENDROOT
BRANCH   1   2
HETATM    2  C   UNL     1     -40.577 -51.522  12.317  1.00  0.00     0.010 A 
HETATM    3  C   UNL     1     -39.820 -52.077  13.333  1.00  0.00     0.120 A 
HETATM    4  N   UNL     1     -40.060 -53.420  13.305  1.00  0.00    -0.308 N 
HETATM    5  C   UNL     1     -39.481 -54.425  14.162  1.00  0.00     0.177 C 
HETATM    6  N   UNL     1     -40.923 -53.787  12.344  1.00  0.00    -0.310 N 
HETATM    7  C   UNL     1     -41.237 -52.636  11.744  1.00  0.00     0.118 A 
ATOM      8  HN  UNL     1     -41.260 -54.724  12.125  1.00  0.00     0.186 HD
ENDBRANCH   1   2
BRANCH   1   9
HETATM    9  N   UNL     1     -40.317 -50.039  10.450  1.00  0.00     0.089 N 
HETATM   10  H   UNL     1     -39.354 -50.348  10.341  1.00  0.00     0.313 HD
HETATM   11  H   UNL     1     -40.333 -49.063  10.154  1.00  0.00     0.313 HD
ENDBRANCH   1   9
BRANCH   1  12
HETATM   12  C   UNL     1     -42.097 -49.494  12.104  1.00  0.00     0.306 C 
BRANCH  12  13
HETATM   13  N   UNL     1     -42.621 -48.742  10.955  1.00  0.00     0.080 N 
HETATM   14  H   UNL     1     -43.525 -49.133  10.685  1.00  0.00     0.312 HD
HETATM   15  H   UNL     1     -42.003 -48.882  10.158  1.00  0.00     0.312 HD
ENDBRANCH  12  13
ENDBRANCH   1  12
TORSDOF 4
ENDMDL
