MODEL 1
REMARK VINA RESULT:      -4.9      0.000      0.000
REMARK  4 active torsions:
REMARK  status: ('A' for Active; 'I' for Inactive)
REMARK       I    between atoms: N_1  and  C_2 
REMARK    1  A    between atoms: C_2  and  C_4 
REMARK    2  A    between atoms: N_6  and  C_7 
REMARK    3  A    between atoms: C_7  and  C_8 
REMARK    4  A    between atoms: C_8  and  O_9 
ROOT
HETATM    1  C   UNL     1     -42.566 -47.851   9.879  1.00  0.00     0.130 A 
HETATM    2  C   UNL     1     -43.804 -47.496  10.375  1.00  0.00     0.144 A 
HETATM    3  N   UNL     1     -44.595 -47.420   9.272  1.00  0.00    -0.282 N 
HETATM    4  N   UNL     1     -43.904 -47.695   8.150  1.00  0.00    -0.020 NA
HETATM    5  N   UNL     1     -42.656 -47.969   8.510  1.00  0.00    -0.278 N 
ATOM      6  HN  UNL     1     -41.894 -48.223   7.881  1.00  0.00     0.184 HD
ENDROOT
BRANCH   1   7
HETATM    7  C   UNL     1     -41.347 -48.080  10.635  1.00  0.00     0.268 C 
HETATM    8  N   UNL     1     -40.813 -49.329  10.493  1.00  0.00    -0.365 N 
HETATM    9  H   UNL     1     -39.968 -49.556  10.997  1.00  0.00     0.159 HD
HETATM   10  H   UNL     1     -41.254 -50.019   9.900  1.00  0.00     0.159 HD
HETATM   11  O   UNL     1     -40.820 -47.239  11.356  1.00  0.00    -0.266 OA
ENDBRANCH   1   7
BRANCH   3  12
HETATM   12  C   UNL     1     -46.008 -47.114   9.213  1.00  0.00     0.172 C 
BRANCH  12  13
HETATM   13  C   UNL     1     -46.852 -48.312   8.796  1.00  0.00     0.185 C 
BRANCH  13  14
HETATM   14  O   UNL     1     -46.540 -48.730   7.469  1.00  0.00    -0.399 OA
HETATM   15  H   UNL     1     -46.354 -49.687   7.505  1.00  0.00     0.209 HD
ENDBRANCH  13  14
ENDBRANCH  12  13
ENDBRANCH   3  12
TORSDOF 4
ENDMDL
MODEL 2
REMARK VINA RESULT:      -4.9      2.084      4.906
REMARK  4 active torsions:
REMARK  status: ('A' for Active; 'I' for Inactive)
REMARK       I    between atoms: N_1  and  C_2 
REMARK    1  A    between atoms: C_2  and  C_4 
REMARK    2  A    between atoms: N_6  and  C_7 
REMARK    3  A    between atoms: C_7  and  C_8 
REMARK    4  A    between atoms: C_8  and  O_9 
ROOT
HETATM    1  C   UNL     1     -44.717 -46.819   9.156  1.00  0.00     0.130 A 
HETATM    2  C   UNL     1     -43.642 -47.463   9.732  1.00  0.00     0.144 A 
HETATM    3  N   UNL     1     -42.750 -46.467   9.979  1.00  0.00    -0.282 N 
HETATM    4  N   UNL     1     -43.221 -45.273   9.574  1.00  0.00    -0.020 NA
HETATM    5  N   UNL     1     -44.433 -45.474   9.072  1.00  0.00    -0.278 N 
ATOM      6  HN  UNL     1     -45.049 -44.756   8.691  1.00  0.00     0.184 HD
ENDROOT
BRANCH   1   7
HETATM    7  C   UNL     1     -45.962 -47.414   8.704  1.00  0.00     0.268 C 
HETATM    8  N   UNL     1     -45.814 -48.534   7.936  1.00  0.00    -0.365 N 
HETATM    9  H   UNL     1     -46.641 -48.994   7.583  1.00  0.00     0.159 HD
HETATM   10  H   UNL     1     -44.896 -48.897   7.716  1.00  0.00     0.159 HD
HETATM   11  O   UNL     1     -47.073 -46.966   8.971  1.00  0.00    -0.266 OA
ENDBRANCH   1   7
BRANCH   3  12
HETATM   12  C   UNL     1     -41.452 -46.575  10.608  1.00  0.00     0.172 C 
BRANCH  12  13
HETATM   13  C   UNL     1     -40.694 -45.252  10.624  1.00  0.00     0.185 C 
BRANCH  13  14
HETATM   14  O   UNL     1     -40.097 -44.982   9.358  1.00  0.00    -0.399 OA
HETATM   15  H   UNL     1     -40.464 -45.626   8.723  1.00  0.00     0.209 HD
ENDBRANCH  13  14
ENDBRANCH  12  13
ENDBRANCH   3  12
TORSDOF 4
ENDMDL
MODEL 3
REMARK VINA RESULT:      -4.7     19.975     21.160
REMARK  4 active torsions:
REMARK  status: ('A' for Active; 'I' for Inactive)
REMARK       I    between atoms: N_1  and  C_2 
REMARK    1  A    between atoms: C_2  and  C_4 
REMARK    2  A    between atoms: N_6  and  C_7 
REMARK    3  A    between atoms: C_7  and  C_8 
REMARK    4  A    between atoms: C_8  and  O_9 
ROOT
HETATM    1  C   UNL     1     -31.159 -53.891  -4.926  1.00  0.00     0.130 A 
HETATM    2  C   UNL     1     -30.148 -54.403  -5.713  1.00  0.00     0.144 A 
HETATM    3  N   UNL     1     -29.015 -53.854  -5.199  1.00  0.00    -0.282 N 
HETATM    4  N   UNL     1     -29.289 -53.039  -4.164  1.00  0.00    -0.020 NA
HETATM    5  N   UNL     1     -30.604 -53.058  -3.981  1.00  0.00    -0.278 N 
ATOM      6  HN  UNL     1     -31.115 -52.543  -3.264  1.00  0.00     0.184 HD
ENDROOT
BRANCH   1   7
HETATM    7  C   UNL     1     -32.582 -54.162  -5.034  1.00  0.00     0.268 C 
HETATM    8  N   UNL     1     -33.163 -53.718  -6.187  1.00  0.00    -0.365 N 
HETATM    9  H   UNL     1     -34.152 -53.868  -6.323  1.00  0.00     0.159 HD
HETATM   10  H   UNL     1     -32.618 -53.241  -6.894  1.00  0.00     0.159 HD
HETATM   11  O   UNL     1     -33.237 -54.737  -4.170  1.00  0.00    -0.266 OA
ENDBRANCH   1   7
BRANCH   3  12
HETATM   12  C   UNL     1     -27.650 -54.074  -5.625  1.00  0.00     0.172 C 
BRANCH  12  13
HETATM   13  C   UNL     1     -26.643 -53.880  -4.497  1.00  0.00     0.185 C 
BRANCH  13  14
HETATM   14  O   UNL     1     -26.907 -54.763  -3.410  1.00  0.00    -0.399 OA
HETATM   15  H   UNL     1     -26.203 -54.624  -2.748  1.00  0.00     0.209 HD
ENDBRANCH  13  14
ENDBRANCH  12  13
ENDBRANCH   3  12
TORSDOF 4
ENDMDL
MODEL 4
REMARK VINA RESULT:      -4.6      2.483      4.810
REMARK  4 active torsions:
REMARK  status: ('A' for Active; 'I' for Inactive)
REMARK       I    between atoms: N_1  and  C_2 
REMARK    1  A    between atoms: C_2  and  C_4 
REMARK    2  A    between atoms: N_6  and  C_7 
REMARK    3  A    between atoms: C_7  and  C_8 
REMARK    4  A    between atoms: C_8  and  O_9 
ROOT
HETATM    1  C   UNL     1     -43.139 -47.362   8.973  1.00  0.00     0.130 A 
HETATM    2  C   UNL     1     -43.067 -46.059   9.419  1.00  0.00     0.144 A 
HETATM    3  N   UNL     1     -42.043 -46.069  10.314  1.00  0.00    -0.282 N 
HETATM    4  N   UNL     1     -41.511 -47.299  10.439  1.00  0.00    -0.020 NA
HETATM    5  N   UNL     1     -42.171 -48.102   9.614  1.00  0.00    -0.278 N 
ATOM      6  HN  UNL     1     -41.992 -49.098   9.478  1.00  0.00     0.184 HD
ENDROOT
BRANCH   1   7
HETATM    7  C   UNL     1     -44.059 -47.907   7.991  1.00  0.00     0.268 C 
HETATM    8  N   UNL     1     -45.381 -47.720   8.280  1.00  0.00    -0.365 N 
HETATM    9  H   UNL     1     -46.075 -48.081   7.641  1.00  0.00     0.159 HD
HETATM   10  H   UNL     1     -45.666 -47.236   9.122  1.00  0.00     0.159 HD
HETATM   11  O   UNL     1     -43.706 -48.497   6.975  1.00  0.00    -0.266 OA
ENDBRANCH   1   7
BRANCH   3  12
HETATM   12  C   UNL     1     -41.510 -44.954  11.066  1.00  0.00     0.172 C 
BRANCH  12  13
HETATM   13  C   UNL     1     -40.048 -44.672  10.743  1.00  0.00     0.185 C 
BRANCH  13  14
HETATM   14  O   UNL     1     -39.764 -44.921   9.368  1.00  0.00    -0.399 OA
HETATM   15  H   UNL     1     -39.035 -45.569   9.337  1.00  0.00     0.209 HD
ENDBRANCH  13  14
ENDBRANCH  12  13
ENDBRANCH   3  12
TORSDOF 4
ENDMDL
MODEL 5
REMARK VINA RESULT:      -4.5      6.633      7.095
REMARK  4 active torsions:
REMARK  status: ('A' for Active; 'I' for Inactive)
REMARK       I    between atoms: N_1  and  C_2 
REMARK    1  A    between atoms: C_2  and  C_4 
REMARK    2  A    between atoms: N_6  and  C_7 
REMARK    3  A    between atoms: C_7  and  C_8 
REMARK    4  A    between atoms: C_8  and  O_9 
ROOT
HETATM    1  C   UNL     1     -42.719 -53.374  12.665  1.00  0.00     0.130 A 
HETATM    2  C   UNL     1     -43.188 -54.288  13.587  1.00  0.00     0.144 A 
HETATM    3  N   UNL     1     -44.517 -54.384  13.315  1.00  0.00    -0.282 N 
HETATM    4  N   UNL     1     -44.871 -53.577  12.298  1.00  0.00    -0.020 NA
HETATM    5  N   UNL     1     -43.774 -52.955  11.884  1.00  0.00    -0.278 N 
ATOM      6  HN  UNL     1     -43.720 -52.282  11.119  1.00  0.00     0.184 HD
ENDROOT
BRANCH   1   7
HETATM    7  C   UNL     1     -41.354 -52.908  12.502  1.00  0.00     0.268 C 
HETATM    8  N   UNL     1     -41.053 -52.447  11.252  1.00  0.00    -0.365 N 
HETATM    9  H   UNL     1     -40.117 -52.114  11.070  1.00  0.00     0.159 HD
HETATM   10  H   UNL     1     -41.748 -52.443  10.518  1.00  0.00     0.159 HD
HETATM   11  O   UNL     1     -40.515 -52.921  13.397  1.00  0.00    -0.266 OA
ENDBRANCH   1   7
BRANCH   3  12
HETATM   12  C   UNL     1     -45.496 -55.231  13.962  1.00  0.00     0.172 C 
BRANCH  12  13
HETATM   13  C   UNL     1     -46.450 -54.448  14.856  1.00  0.00     0.185 C 
BRANCH  13  14
HETATM   14  O   UNL     1     -47.108 -53.412  14.130  1.00  0.00    -0.399 OA
HETATM   15  H   UNL     1     -47.763 -53.841  13.547  1.00  0.00     0.209 HD
ENDBRANCH  13  14
ENDBRANCH  12  13
ENDBRANCH   3  12
TORSDOF 4
ENDMDL
MODEL 6
REMARK VINA RESULT:      -4.5      5.015      7.363
REMARK  4 active torsions:
REMARK  status: ('A' for Active; 'I' for Inactive)
REMARK       I    between atoms: N_1  and  C_2 
REMARK    1  A    between atoms: C_2  and  C_4 
REMARK    2  A    between atoms: N_6  and  C_7 
REMARK    3  A    between atoms: C_7  and  C_8 
REMARK    4  A    between atoms: C_8  and  O_9 
ROOT
HETATM    1  C   UNL     1     -40.412 -51.232  12.086  1.00  0.00     0.130 A 
HETATM    2  C   UNL     1     -40.216 -51.607  13.400  1.00  0.00     0.144 A 
HETATM    3  N   UNL     1     -40.506 -52.936  13.414  1.00  0.00    -0.282 N 
HETATM    4  N   UNL     1     -40.875 -53.372  12.196  1.00  0.00    -0.020 NA
HETATM    5  N   UNL     1     -40.814 -52.336  11.368  1.00  0.00    -0.278 N 
ATOM      6  HN  UNL     1     -41.028 -52.354  10.370  1.00  0.00     0.184 HD
ENDROOT
BRANCH   1   7
HETATM    7  C   UNL     1     -40.230 -49.912  11.511  1.00  0.00     0.268 C 
HETATM    8  N   UNL     1     -40.495 -49.830  10.173  1.00  0.00    -0.365 N 
HETATM    9  H   UNL     1     -40.382 -48.940   9.709  1.00  0.00     0.159 HD
HETATM   10  H   UNL     1     -40.793 -50.643   9.651  1.00  0.00     0.159 HD
HETATM   11  O   UNL     1     -39.863 -48.931  12.149  1.00  0.00    -0.266 OA
ENDBRANCH   1   7
BRANCH   3  12
HETATM   12  C   UNL     1     -40.437 -53.847  14.536  1.00  0.00     0.172 C 
BRANCH  12  13
HETATM   13  C   UNL     1     -39.105 -54.585  14.612  1.00  0.00     0.185 C 
BRANCH  13  14
HETATM   14  O   UNL     1     -38.679 -55.020  13.323  1.00  0.00    -0.399 OA
HETATM   15  H   UNL     1     -39.061 -54.402  12.670  1.00  0.00     0.209 HD
ENDBRANCH  13  14
ENDBRANCH  12  13
ENDBRANCH   3  12
TORSDOF 4
ENDMDL
MODEL 7
REMARK VINA RESULT:      -4.5      6.310      6.703
REMARK  4 active torsions:
REMARK  status: ('A' for Active; 'I' for Inactive)
REMARK       I    between atoms: N_1  and  C_2 
REMARK    1  A    between atoms: C_2  and  C_4 
REMARK    2  A    between atoms: N_6  and  C_7 
REMARK    3  A    between atoms: C_7  and  C_8 
REMARK    4  A    between atoms: C_8  and  O_9 
ROOT
HETATM    1  C   UNL     1     -43.165 -52.635  12.560  1.00  0.00     0.130 A 
HETATM    2  C   UNL     1     -44.160 -52.096  13.348  1.00  0.00     0.144 A 
HETATM    3  N   UNL     1     -45.121 -53.058  13.376  1.00  0.00    -0.282 N 
HETATM    4  N   UNL     1     -44.766 -54.130  12.644  1.00  0.00    -0.020 NA
HETATM    5  N   UNL     1     -43.561 -53.886  12.142  1.00  0.00    -0.278 N 
ATOM      6  HN  UNL     1     -43.022 -54.517  11.549  1.00  0.00     0.184 HD
ENDROOT
BRANCH   1   7
HETATM    7  C   UNL     1     -41.894 -52.028  12.208  1.00  0.00     0.268 C 
HETATM    8  N   UNL     1     -41.249 -52.619  11.159  1.00  0.00    -0.365 N 
HETATM    9  H   UNL     1     -40.356 -52.249  10.867  1.00  0.00     0.159 HD
HETATM   10  H   UNL     1     -41.651 -53.416  10.683  1.00  0.00     0.159 HD
HETATM   11  O   UNL     1     -41.410 -51.064  12.792  1.00  0.00    -0.266 OA
ENDBRANCH   1   7
BRANCH   3  12
HETATM   12  C   UNL     1     -46.381 -53.033  14.087  1.00  0.00     0.172 C 
BRANCH  12  13
HETATM   13  C   UNL     1     -46.506 -54.163  15.102  1.00  0.00     0.185 C 
BRANCH  13  14
HETATM   14  O   UNL     1     -46.856 -55.392  14.469  1.00  0.00    -0.399 OA
HETATM   15  H   UNL     1     -47.091 -56.023  15.175  1.00  0.00     0.209 HD
ENDBRANCH  13  14
ENDBRANCH  12  13
ENDBRANCH   3  12
TORSDOF 4
ENDMDL
MODEL 8
REMARK VINA RESULT:      -4.3      7.151      8.900
REMARK  4 active torsions:
REMARK  status: ('A' for Active; 'I' for Inactive)
REMARK       I    between atoms: N_1  and  C_2 
REMARK    1  A    between atoms: C_2  and  C_4 
REMARK    2  A    between atoms: N_6  and  C_7 
REMARK    3  A    between atoms: C_7  and  C_8 
REMARK    4  A    between atoms: C_8  and  O_9 
ROOT
HETATM    1  C   UNL     1     -43.655 -54.106  13.319  1.00  0.00     0.130 A 
HETATM    2  C   UNL     1     -42.980 -54.492  14.459  1.00  0.00     0.144 A 
HETATM    3  N   UNL     1     -41.670 -54.297  14.153  1.00  0.00    -0.282 N 
HETATM    4  N   UNL     1     -41.522 -53.832  12.899  1.00  0.00    -0.020 NA
HETATM    5  N   UNL     1     -42.735 -53.703  12.377  1.00  0.00    -0.278 N 
ATOM      6  HN  UNL     1     -42.950 -53.364  11.439  1.00  0.00     0.184 HD
ENDROOT
BRANCH   1   7
HETATM    7  C   UNL     1     -45.091 -54.101  13.105  1.00  0.00     0.268 C 
HETATM    8  N   UNL     1     -45.769 -55.095  13.752  1.00  0.00    -0.365 N 
HETATM    9  H   UNL     1     -46.771 -55.153  13.640  1.00  0.00     0.159 HD
HETATM   10  H   UNL     1     -45.281 -55.767  14.329  1.00  0.00     0.159 HD
HETATM   11  O   UNL     1     -45.676 -53.285  12.400  1.00  0.00    -0.266 OA
ENDBRANCH   1   7
BRANCH   3  12
HETATM   12  C   UNL     1     -40.518 -54.511  15.002  1.00  0.00     0.172 C 
BRANCH  12  13
HETATM   13  C   UNL     1     -39.224 -54.006  14.377  1.00  0.00     0.185 C 
BRANCH  13  14
HETATM   14  O   UNL     1     -38.757 -54.893  13.364  1.00  0.00    -0.399 OA
HETATM   15  H   UNL     1     -37.789 -54.967  13.469  1.00  0.00     0.209 HD
ENDBRANCH  13  14
ENDBRANCH  12  13
ENDBRANCH   3  12
TORSDOF 4
ENDMDL
MODEL 9
REMARK VINA RESULT:      -4.0      1.703      1.844
REMARK  4 active torsions:
REMARK  status: ('A' for Active; 'I' for Inactive)
REMARK       I    between atoms: N_1  and  C_2 
REMARK    1  A    between atoms: C_2  and  C_4 
REMARK    2  A    between atoms: N_6  and  C_7 
REMARK    3  A    between atoms: C_7  and  C_8 
REMARK    4  A    between atoms: C_8  and  O_9 
ROOT
HETATM    1  C   UNL     1     -41.585 -46.992  10.531  1.00  0.00     0.130 A 
HETATM    2  C   UNL     1     -42.527 -47.900  10.092  1.00  0.00     0.144 A 
HETATM    3  N   UNL     1     -43.275 -47.198   9.200  1.00  0.00    -0.282 N 
HETATM    4  N   UNL     1     -42.847 -45.927   9.089  1.00  0.00    -0.020 NA
HETATM    5  N   UNL     1     -41.803 -45.789   9.897  1.00  0.00    -0.278 N 
ATOM      6  HN  UNL     1     -41.256 -44.937  10.026  1.00  0.00     0.184 HD
ENDROOT
BRANCH   1   7
HETATM    7  C   UNL     1     -40.521 -47.222  11.492  1.00  0.00     0.268 C 
HETATM    8  N   UNL     1     -39.653 -48.221  11.155  1.00  0.00    -0.365 N 
HETATM    9  H   UNL     1     -38.893 -48.437  11.783  1.00  0.00     0.159 HD
HETATM   10  H   UNL     1     -39.768 -48.742  10.296  1.00  0.00     0.159 HD
HETATM   11  O   UNL     1     -40.390 -46.588  12.534  1.00  0.00    -0.266 OA
ENDBRANCH   1   7
BRANCH   3  12
HETATM   12  C   UNL     1     -44.390 -47.674   8.409  1.00  0.00     0.172 C 
BRANCH  12  13
HETATM   13  C   UNL     1     -45.733 -47.456   9.095  1.00  0.00     0.185 C 
BRANCH  13  14
HETATM   14  O   UNL     1     -46.484 -46.429   8.451  1.00  0.00    -0.399 OA
HETATM   15  H   UNL     1     -46.730 -45.780   9.136  1.00  0.00     0.209 HD
ENDBRANCH  13  14
ENDBRANCH  12  13
ENDBRANCH   3  12
TORSDOF 4
ENDMDL
