MODEL 1
REMARK VINA RESULT:      -5.3      0.000      0.000
REMARK  1 active torsions:
REMARK  status: ('A' for Active; 'I' for Inactive)
REMARK    1  A    between atoms: C_2  and  C_9 
ROOT
HETATM    1  C   UNL     1     -45.463 -54.936  13.743  1.00  0.00     0.056 C 
HETATM    2  C   UNL     1     -44.984 -53.489  13.749  1.00  0.00     0.154 C 
HETATM    3  N   UNL     1     -45.159 -52.880  15.062  1.00  0.00    -0.320 N 
HETATM    4  C   UNL     1     -45.792 -51.667  14.986  1.00  0.00     0.324 C 
HETATM    5  O   UNL     1     -45.879 -50.853  15.888  1.00  0.00    -0.247 OA
HETATM    6  N   UNL     1     -46.295 -51.523  13.736  1.00  0.00    -0.277 N 
HETATM    7  C   UNL     1     -45.927 -52.570  12.949  1.00  0.00     0.260 C 
HETATM    8  O   UNL     1     -46.272 -52.710  11.783  1.00  0.00    -0.270 OA
HETATM    9  H   UNL     1     -44.493 -53.045  15.807  1.00  0.00     0.166 HD
HETATM   10  H   UNL     1     -46.843 -50.736  13.435  1.00  0.00     0.173 HD
ENDROOT
BRANCH   2  11
HETATM   11  C   UNL     1     -43.529 -53.393  13.300  1.00  0.00     0.046 A 
HETATM   12  C   UNL     1     -42.539 -54.244  13.796  1.00  0.00     0.028 A 
HETATM   13  C   UNL     1     -41.226 -54.090  13.359  1.00  0.00     0.003 A 
HETATM   14  C   UNL     1     -40.922 -53.083  12.453  1.00  0.00     0.017 A 
HETATM   15  C   UNL     1     -41.948 -52.265  12.019  1.00  0.00     0.088 A 
HETATM   16  N   UNL     1     -43.233 -52.393  12.420  1.00  0.00    -0.367 N 
ATOM     17  HN  UNL     1     -43.958 -51.764  12.076  1.00  0.00     0.165 HD
ENDBRANCH   2  11
TORSDOF 1
ENDMDL
MODEL 2
REMARK VINA RESULT:      -5.2      2.199      4.440
REMARK  1 active torsions:
REMARK  status: ('A' for Active; 'I' for Inactive)
REMARK    1  A    between atoms: C_2  and  C_9 
ROOT
HETATM    1  C   UNL     1     -46.549 -51.981  12.043  1.00  0.00     0.056 C 
HETATM    2  C   UNL     1     -45.412 -52.172  13.039  1.00  0.00     0.154 C 
HETATM    3  N   UNL     1     -44.410 -51.122  12.906  1.00  0.00    -0.320 N 
HETATM    4  C   UNL     1     -43.141 -51.631  12.816  1.00  0.00     0.324 C 
HETATM    5  O   UNL     1     -42.110 -50.988  12.908  1.00  0.00    -0.247 OA
HETATM    6  N   UNL     1     -43.227 -52.969  12.618  1.00  0.00    -0.277 N 
HETATM    7  C   UNL     1     -44.525 -53.377  12.673  1.00  0.00     0.260 C 
HETATM    8  O   UNL     1     -44.891 -54.531  12.494  1.00  0.00    -0.270 OA
HETATM    9  H   UNL     1     -44.550 -50.210  13.324  1.00  0.00     0.166 HD
HETATM   10  H   UNL     1     -42.436 -53.571  12.477  1.00  0.00     0.173 HD
ENDROOT
BRANCH   2  11
HETATM   11  C   UNL     1     -45.943 -52.231  14.469  1.00  0.00     0.046 A 
HETATM   12  C   UNL     1     -46.876 -51.314  14.956  1.00  0.00     0.028 A 
HETATM   13  C   UNL     1     -47.304 -51.413  16.277  1.00  0.00     0.003 A 
HETATM   14  C   UNL     1     -46.782 -52.408  17.091  1.00  0.00     0.017 A 
HETATM   15  C   UNL     1     -45.847 -53.270  16.549  1.00  0.00     0.088 A 
HETATM   16  N   UNL     1     -45.416 -53.203  15.269  1.00  0.00    -0.367 N 
ATOM     17  HN  UNL     1     -44.721 -53.859  14.912  1.00  0.00     0.165 HD
ENDBRANCH   2  11
TORSDOF 1
ENDMDL
MODEL 3
REMARK VINA RESULT:      -5.1      6.804      8.203
REMARK  1 active torsions:
REMARK  status: ('A' for Active; 'I' for Inactive)
REMARK    1  A    between atoms: C_2  and  C_9 
ROOT
HETATM    1  C   UNL     1     -42.951 -47.389  12.607  1.00  0.00     0.056 C 
HETATM    2  C   UNL     1     -42.578 -46.973  11.189  1.00  0.00     0.154 C 
HETATM    3  N   UNL     1     -43.764 -46.827  10.353  1.00  0.00    -0.320 N 
HETATM    4  C   UNL     1     -43.640 -47.498   9.164  1.00  0.00     0.324 C 
HETATM    5  O   UNL     1     -44.378 -47.379   8.202  1.00  0.00    -0.247 OA
HETATM    6  N   UNL     1     -42.557 -48.308   9.239  1.00  0.00    -0.277 N 
HETATM    7  C   UNL     1     -41.898 -48.118  10.415  1.00  0.00     0.260 C 
HETATM    8  O   UNL     1     -40.904 -48.745  10.755  1.00  0.00    -0.270 OA
HETATM    9  H   UNL     1     -44.330 -45.988  10.391  1.00  0.00     0.166 HD
HETATM   10  H   UNL     1     -42.274 -48.940   8.511  1.00  0.00     0.173 HD
ENDROOT
BRANCH   2  11
HETATM   11  C   UNL     1     -41.761 -45.684  11.194  1.00  0.00     0.046 A 
HETATM   12  C   UNL     1     -42.190 -44.533  11.859  1.00  0.00     0.028 A 
HETATM   13  C   UNL     1     -41.405 -43.385  11.807  1.00  0.00     0.003 A 
HETATM   14  C   UNL     1     -40.221 -43.398  11.082  1.00  0.00     0.017 A 
HETATM   15  C   UNL     1     -39.868 -44.566  10.433  1.00  0.00     0.088 A 
HETATM   16  N   UNL     1     -40.606 -45.699  10.469  1.00  0.00    -0.367 N 
ATOM     17  HN  UNL     1     -40.308 -46.538   9.971  1.00  0.00     0.165 HD
ENDBRANCH   2  11
TORSDOF 1
ENDMDL
MODEL 4
REMARK VINA RESULT:      -5.0      1.512      2.734
REMARK  1 active torsions:
REMARK  status: ('A' for Active; 'I' for Inactive)
REMARK    1  A    between atoms: C_2  and  C_9 
ROOT
HETATM    1  C   UNL     1     -44.499 -50.833  14.842  1.00  0.00     0.056 C 
HETATM    2  C   UNL     1     -44.662 -51.933  13.800  1.00  0.00     0.154 C 
HETATM    3  N   UNL     1     -45.378 -51.447  12.626  1.00  0.00    -0.320 N 
HETATM    4  C   UNL     1     -46.408 -52.278  12.272  1.00  0.00     0.324 C 
HETATM    5  O   UNL     1     -47.031 -52.231  11.226  1.00  0.00    -0.247 OA
HETATM    6  N   UNL     1     -46.610 -53.165  13.277  1.00  0.00    -0.277 N 
HETATM    7  C   UNL     1     -45.672 -53.005  14.250  1.00  0.00     0.260 C 
HETATM    8  O   UNL     1     -45.640 -53.654  15.288  1.00  0.00    -0.270 OA
HETATM    9  H   UNL     1     -44.904 -50.912  11.909  1.00  0.00     0.166 HD
HETATM   10  H   UNL     1     -47.338 -53.857  13.281  1.00  0.00     0.173 HD
ENDROOT
BRANCH   2  11
HETATM   11  C   UNL     1     -43.308 -52.513  13.401  1.00  0.00     0.046 A 
HETATM   12  C   UNL     1     -42.495 -51.913  12.438  1.00  0.00     0.028 A 
HETATM   13  C   UNL     1     -41.279 -52.506  12.108  1.00  0.00     0.003 A 
HETATM   14  C   UNL     1     -40.906 -53.690  12.727  1.00  0.00     0.017 A 
HETATM   15  C   UNL     1     -41.769 -54.239  13.656  1.00  0.00     0.088 A 
HETATM   16  N   UNL     1     -42.953 -53.685  14.003  1.00  0.00    -0.367 N 
ATOM     17  HN  UNL     1     -43.560 -54.128  14.693  1.00  0.00     0.165 HD
ENDBRANCH   2  11
TORSDOF 1
ENDMDL
MODEL 5
REMARK VINA RESULT:      -5.0      2.331      4.689
REMARK  1 active torsions:
REMARK  status: ('A' for Active; 'I' for Inactive)
REMARK    1  A    between atoms: C_2  and  C_9 
ROOT
HETATM    1  C   UNL     1     -45.558 -55.533  13.737  1.00  0.00     0.056 C 
HETATM    2  C   UNL     1     -44.683 -54.340  14.104  1.00  0.00     0.154 C 
HETATM    3  N   UNL     1     -44.018 -53.791  12.928  1.00  0.00    -0.320 N 
HETATM    4  C   UNL     1     -42.673 -53.622  13.130  1.00  0.00     0.324 C 
HETATM    5  O   UNL     1     -41.920 -52.997  12.406  1.00  0.00    -0.247 OA
HETATM    6  N   UNL     1     -42.327 -54.261  14.274  1.00  0.00    -0.277 N 
HETATM    7  C   UNL     1     -43.430 -54.768  14.890  1.00  0.00     0.260 C 
HETATM    8  O   UNL     1     -43.400 -55.422  15.925  1.00  0.00    -0.270 OA
HETATM    9  H   UNL     1     -44.505 -53.168  12.295  1.00  0.00     0.166 HD
HETATM   10  H   UNL     1     -41.387 -54.325  14.623  1.00  0.00     0.173 HD
ENDROOT
BRANCH   2  11
HETATM   11  C   UNL     1     -45.498 -53.262  14.814  1.00  0.00     0.046 A 
HETATM   12  C   UNL     1     -46.196 -52.275  14.115  1.00  0.00     0.028 A 
HETATM   13  C   UNL     1     -46.904 -51.310  14.826  1.00  0.00     0.003 A 
HETATM   14  C   UNL     1     -46.888 -51.334  16.213  1.00  0.00     0.017 A 
HETATM   15  C   UNL     1     -46.160 -52.329  16.839  1.00  0.00     0.088 A 
HETATM   16  N   UNL     1     -45.468 -53.284  16.178  1.00  0.00    -0.367 N 
ATOM     17  HN  UNL     1     -44.941 -53.997  16.682  1.00  0.00     0.165 HD
ENDBRANCH   2  11
TORSDOF 1
ENDMDL
MODEL 6
REMARK VINA RESULT:      -4.9      2.300      4.564
REMARK  1 active torsions:
REMARK  status: ('A' for Active; 'I' for Inactive)
REMARK    1  A    between atoms: C_2  and  C_9 
ROOT
HETATM    1  C   UNL     1     -43.424 -55.162  14.784  1.00  0.00     0.056 C 
HETATM    2  C   UNL     1     -43.095 -53.819  14.145  1.00  0.00     0.154 C 
HETATM    3  N   UNL     1     -42.337 -53.992  12.911  1.00  0.00    -0.320 N 
HETATM    4  C   UNL     1     -41.219 -53.201  12.880  1.00  0.00     0.324 C 
HETATM    5  O   UNL     1     -40.527 -52.988  11.900  1.00  0.00    -0.247 OA
HETATM    6  N   UNL     1     -41.019 -52.690  14.119  1.00  0.00    -0.277 N 
HETATM    7  C   UNL     1     -42.035 -53.044  14.952  1.00  0.00     0.260 C 
HETATM    8  O   UNL     1     -42.090 -52.745  16.137  1.00  0.00    -0.270 OA
HETATM    9  H   UNL     1     -42.800 -54.229  12.043  1.00  0.00     0.166 HD
HETATM   10  H   UNL     1     -40.238 -52.111  14.371  1.00  0.00     0.173 HD
ENDROOT
BRANCH   2  11
HETATM   11  C   UNL     1     -44.363 -53.010  13.888  1.00  0.00     0.046 A 
HETATM   12  C   UNL     1     -45.055 -53.074  12.677  1.00  0.00     0.028 A 
HETATM   13  C   UNL     1     -46.196 -52.295  12.503  1.00  0.00     0.003 A 
HETATM   14  C   UNL     1     -46.613 -51.455  13.526  1.00  0.00     0.017 A 
HETATM   15  C   UNL     1     -45.869 -51.427  14.690  1.00  0.00     0.088 A 
HETATM   16  N   UNL     1     -44.761 -52.176  14.893  1.00  0.00    -0.367 N 
ATOM     17  HN  UNL     1     -44.240 -52.121  15.768  1.00  0.00     0.165 HD
ENDBRANCH   2  11
TORSDOF 1
ENDMDL
MODEL 7
REMARK VINA RESULT:      -4.9      6.498      7.492
REMARK  1 active torsions:
REMARK  status: ('A' for Active; 'I' for Inactive)
REMARK    1  A    between atoms: C_2  and  C_9 
ROOT
HETATM    1  C   UNL     1     -42.032 -47.167  13.087  1.00  0.00     0.056 C 
HETATM    2  C   UNL     1     -40.982 -47.029  11.990  1.00  0.00     0.154 C 
HETATM    3  N   UNL     1     -40.523 -45.650  11.869  1.00  0.00    -0.320 N 
HETATM    4  C   UNL     1     -40.554 -45.211  10.572  1.00  0.00     0.324 C 
HETATM    5  O   UNL     1     -40.037 -44.189  10.156  1.00  0.00    -0.247 OA
HETATM    6  N   UNL     1     -41.248 -46.108   9.830  1.00  0.00    -0.277 N 
HETATM    7  C   UNL     1     -41.596 -47.185  10.586  1.00  0.00     0.260 C 
HETATM    8  O   UNL     1     -42.256 -48.129  10.175  1.00  0.00    -0.270 OA
HETATM    9  H   UNL     1     -39.831 -45.272  12.504  1.00  0.00     0.166 HD
HETATM   10  H   UNL     1     -41.450 -45.996   8.853  1.00  0.00     0.173 HD
ENDROOT
BRANCH   2  11
HETATM   11  C   UNL     1     -39.805 -47.968  12.239  1.00  0.00     0.046 A 
HETATM   12  C   UNL     1     -38.969 -47.836  13.350  1.00  0.00     0.028 A 
HETATM   13  C   UNL     1     -37.901 -48.715  13.506  1.00  0.00     0.003 A 
HETATM   14  C   UNL     1     -37.675 -49.693  12.547  1.00  0.00     0.017 A 
HETATM   15  C   UNL     1     -38.530 -49.752  11.463  1.00  0.00     0.088 A 
HETATM   16  N   UNL     1     -39.579 -48.918  11.286  1.00  0.00    -0.367 N 
ATOM     17  HN  UNL     1     -40.183 -48.997  10.468  1.00  0.00     0.165 HD
ENDBRANCH   2  11
TORSDOF 1
ENDMDL
MODEL 8
REMARK VINA RESULT:      -4.7      4.723      6.687
REMARK  1 active torsions:
REMARK  status: ('A' for Active; 'I' for Inactive)
REMARK    1  A    between atoms: C_2  and  C_9 
ROOT
HETATM    1  C   UNL     1     -38.388 -49.903  14.541  1.00  0.00     0.056 C 
HETATM    2  C   UNL     1     -38.672 -50.380  13.122  1.00  0.00     0.154 C 
HETATM    3  N   UNL     1     -37.439 -50.543  12.362  1.00  0.00    -0.320 N 
HETATM    4  C   UNL     1     -37.502 -49.921  11.143  1.00  0.00     0.324 C 
HETATM    5  O   UNL     1     -36.708 -50.067  10.230  1.00  0.00    -0.247 OA
HETATM    6  N   UNL     1     -38.597 -49.124  11.122  1.00  0.00    -0.277 N 
HETATM    7  C   UNL     1     -39.321 -49.277  12.265  1.00  0.00     0.260 C 
HETATM    8  O   UNL     1     -40.341 -48.652  12.523  1.00  0.00    -0.270 OA
HETATM    9  H   UNL     1     -36.865 -51.371  12.467  1.00  0.00     0.166 HD
HETATM   10  H   UNL     1     -38.846 -48.526  10.355  1.00  0.00     0.173 HD
ENDROOT
BRANCH   2  11
HETATM   11  C   UNL     1     -39.473 -51.680  13.133  1.00  0.00     0.046 A 
HETATM   12  C   UNL     1     -39.206 -52.712  14.035  1.00  0.00     0.028 A 
HETATM   13  C   UNL     1     -39.962 -53.879  13.977  1.00  0.00     0.003 A 
HETATM   14  C   UNL     1     -40.953 -54.004  13.014  1.00  0.00     0.017 A 
HETATM   15  C   UNL     1     -41.150 -52.951  12.141  1.00  0.00     0.088 A 
HETATM   16  N   UNL     1     -40.437 -51.803  12.176  1.00  0.00    -0.367 N 
ATOM     17  HN  UNL     1     -40.615 -51.052  11.508  1.00  0.00     0.165 HD
ENDBRANCH   2  11
TORSDOF 1
ENDMDL
MODEL 9
REMARK VINA RESULT:      -4.6      3.007      4.966
REMARK  1 active torsions:
REMARK  status: ('A' for Active; 'I' for Inactive)
REMARK    1  A    between atoms: C_2  and  C_9 
ROOT
HETATM    1  C   UNL     1     -42.523 -49.059  14.793  1.00  0.00     0.056 C 
HETATM    2  C   UNL     1     -42.849 -50.083  13.712  1.00  0.00     0.154 C 
HETATM    3  N   UNL     1     -41.868 -51.161  13.692  1.00  0.00    -0.320 N 
HETATM    4  C   UNL     1     -41.391 -51.398  12.430  1.00  0.00     0.324 C 
HETATM    5  O   UNL     1     -40.731 -52.364  12.090  1.00  0.00    -0.247 OA
HETATM    6  N   UNL     1     -41.786 -50.383  11.624  1.00  0.00    -0.277 N 
HETATM    7  C   UNL     1     -42.598 -49.525  12.299  1.00  0.00     0.260 C 
HETATM    8  O   UNL     1     -43.070 -48.503  11.819  1.00  0.00    -0.270 OA
HETATM    9  H   UNL     1     -41.918 -51.926  14.354  1.00  0.00     0.166 HD
HETATM   10  H   UNL     1     -41.529 -50.298  10.656  1.00  0.00     0.173 HD
ENDROOT
BRANCH   2  11
HETATM   11  C   UNL     1     -44.258 -50.641  13.896  1.00  0.00     0.046 A 
HETATM   12  C   UNL     1     -44.831 -50.817  15.157  1.00  0.00     0.028 A 
HETATM   13  C   UNL     1     -46.114 -51.349  15.254  1.00  0.00     0.003 A 
HETATM   14  C   UNL     1     -46.792 -51.712  14.099  1.00  0.00     0.017 A 
HETATM   15  C   UNL     1     -46.156 -51.528  12.885  1.00  0.00     0.088 A 
HETATM   16  N   UNL     1     -44.914 -51.008  12.758  1.00  0.00    -0.367 N 
ATOM     17  HN  UNL     1     -44.483 -50.894  11.840  1.00  0.00     0.165 HD
ENDBRANCH   2  11
TORSDOF 1
ENDMDL
