MODEL 1
REMARK VINA RESULT:      -6.1      0.000      0.000
REMARK  3 active torsions:
REMARK  status: ('A' for Active; 'I' for Inactive)
REMARK    1  A    between atoms: C_2  and  C_3 
REMARK       I    between atoms: C_2  and  N_11 
REMARK    2  A    between atoms: C_3  and  N_4 
REMARK    3  A    between atoms: N_11  and  C_12 
ROOT
HETATM    1  O   UNL     1     -43.169 -55.763  15.558  1.00  0.00    -0.272 OA
HETATM    2  C   UNL     1     -43.540 -55.007  14.661  1.00  0.00     0.236 C 
HETATM    3  N   UNL     1     -42.724 -54.044  14.113  1.00  0.00    -0.347 N 
HETATM    4  H   UNL     1     -43.116 -53.360  13.464  1.00  0.00     0.163 HD
ENDROOT
BRANCH   3   5
HETATM    5  C   UNL     1     -41.329 -53.884  14.503  1.00  0.00     0.170 C 
HETATM    6  C   UNL     1     -41.180 -52.844  15.629  1.00  0.00     0.034 C 
HETATM    7  C   UNL     1     -39.786 -52.842  16.269  1.00  0.00     0.004 C 
HETATM    8  C   UNL     1     -38.678 -52.077  15.528  1.00  0.00     0.015 C 
HETATM    9  C   UNL     1     -38.657 -52.144  13.999  1.00  0.00     0.095 C 
HETATM   10  N   UNL     1     -39.155 -53.404  13.497  1.00  0.00    -0.261 NA
HETATM   11  C   UNL     1     -40.525 -53.418  13.283  1.00  0.00     0.220 C 
HETATM   12  H   UNL     1     -38.800 -54.196  14.016  1.00  0.00     0.130 HD
HETATM   13  O   UNL     1     -41.040 -52.934  12.278  1.00  0.00    -0.278 OA
ENDBRANCH   3   5
BRANCH   2  14
HETATM   14  C   UNL     1     -44.961 -55.038  14.102  1.00  0.00     0.234 C 
BRANCH  14  15
HETATM   15  N   UNL     1     -45.625 -53.748  14.249  1.00  0.00    -0.316 N 
HETATM   16  C   UNL     1     -46.160 -53.385  15.473  1.00  0.00     0.095 A 
HETATM   17  C   UNL     1     -46.813 -52.225  15.624  1.00  0.00     0.017 A 
HETATM   18  C   UNL     1     -46.977 -51.340  14.500  1.00  0.00     0.007 A 
HETATM   19  C   UNL     1     -46.446 -51.647  13.310  1.00  0.00     0.074 A 
HETATM   20  C   UNL     1     -45.686 -52.914  13.135  1.00  0.00     0.247 A 
HETATM   21  O   UNL     1     -45.165 -53.170  12.052  1.00  0.00    -0.268 OA
ENDBRANCH  14  15
ENDBRANCH   2  14
TORSDOF 3
ENDMDL
MODEL 2
REMARK VINA RESULT:      -6.0      2.279      2.895
REMARK  3 active torsions:
REMARK  status: ('A' for Active; 'I' for Inactive)
REMARK    1  A    between atoms: C_2  and  C_3 
REMARK       I    between atoms: C_2  and  N_11 
REMARK    2  A    between atoms: C_3  and  N_4 
REMARK    3  A    between atoms: N_11  and  C_12 
ROOT
HETATM    1  O   UNL     1     -41.294 -54.398  12.839  1.00  0.00    -0.272 OA
HETATM    2  C   UNL     1     -41.854 -53.546  13.527  1.00  0.00     0.236 C 
HETATM    3  N   UNL     1     -41.461 -52.228  13.546  1.00  0.00    -0.347 N 
HETATM    4  H   UNL     1     -41.873 -51.588  14.226  1.00  0.00     0.163 HD
ENDROOT
BRANCH   3   5
HETATM    5  C   UNL     1     -40.391 -51.716  12.700  1.00  0.00     0.170 C 
HETATM    6  C   UNL     1     -39.216 -51.188  13.544  1.00  0.00     0.034 C 
HETATM    7  C   UNL     1     -37.957 -50.903  12.716  1.00  0.00     0.004 C 
HETATM    8  C   UNL     1     -37.905 -49.567  11.959  1.00  0.00     0.015 C 
HETATM    9  C   UNL     1     -39.197 -49.054  11.317  1.00  0.00     0.095 C 
HETATM   10  N   UNL     1     -40.055 -50.129  10.873  1.00  0.00    -0.261 NA
HETATM   11  C   UNL     1     -40.943 -50.572  11.842  1.00  0.00     0.220 C 
HETATM   12  H   UNL     1     -39.544 -50.862  10.401  1.00  0.00     0.130 HD
HETATM   13  O   UNL     1     -41.991 -49.981  12.094  1.00  0.00    -0.278 OA
ENDBRANCH   3   5
BRANCH   2  14
HETATM   14  C   UNL     1     -43.014 -53.885  14.462  1.00  0.00     0.234 C 
BRANCH  14  15
HETATM   15  N   UNL     1     -44.177 -53.045  14.201  1.00  0.00    -0.316 N 
HETATM   16  C   UNL     1     -44.441 -51.961  15.021  1.00  0.00     0.095 A 
HETATM   17  C   UNL     1     -45.527 -51.200  14.830  1.00  0.00     0.017 A 
HETATM   18  C   UNL     1     -46.446 -51.512  13.765  1.00  0.00     0.007 A 
HETATM   19  C   UNL     1     -46.205 -52.535  12.936  1.00  0.00     0.074 A 
HETATM   20  C   UNL     1     -44.984 -53.367  13.112  1.00  0.00     0.247 A 
HETATM   21  O   UNL     1     -44.746 -54.277  12.322  1.00  0.00    -0.268 OA
ENDBRANCH  14  15
ENDBRANCH   2  14
TORSDOF 3
ENDMDL
MODEL 3
REMARK VINA RESULT:      -5.8      2.227      2.934
REMARK  3 active torsions:
REMARK  status: ('A' for Active; 'I' for Inactive)
REMARK    1  A    between atoms: C_2  and  C_3 
REMARK       I    between atoms: C_2  and  N_11 
REMARK    2  A    between atoms: C_3  and  N_4 
REMARK    3  A    between atoms: N_11  and  C_12 
ROOT
HETATM    1  O   UNL     1     -41.687 -51.552  15.802  1.00  0.00    -0.272 OA
HETATM    2  C   UNL     1     -42.005 -52.193  14.801  1.00  0.00     0.236 C 
HETATM    3  N   UNL     1     -41.389 -52.026  13.582  1.00  0.00    -0.347 N 
HETATM    4  H   UNL     1     -41.772 -52.487  12.756  1.00  0.00     0.163 HD
ENDROOT
BRANCH   3   5
HETATM    5  C   UNL     1     -40.260 -51.125  13.392  1.00  0.00     0.170 C 
HETATM    6  C   UNL     1     -40.252 -50.534  11.969  1.00  0.00     0.034 C 
HETATM    7  C   UNL     1     -39.264 -49.373  11.802  1.00  0.00     0.004 C 
HETATM    8  C   UNL     1     -37.789 -49.738  11.570  1.00  0.00     0.015 C 
HETATM    9  C   UNL     1     -37.216 -50.934  12.334  1.00  0.00     0.095 C 
HETATM   10  N   UNL     1     -37.829 -51.103  13.631  1.00  0.00    -0.261 NA
HETATM   11  C   UNL     1     -38.960 -51.906  13.615  1.00  0.00     0.220 C 
HETATM   12  H   UNL     1     -37.939 -50.228  14.125  1.00  0.00     0.130 HD
HETATM   13  O   UNL     1     -38.897 -53.133  13.602  1.00  0.00    -0.278 OA
ENDBRANCH   3   5
BRANCH   2  14
HETATM   14  C   UNL     1     -43.150 -53.205  14.808  1.00  0.00     0.234 C 
BRANCH  14  15
HETATM   15  N   UNL     1     -44.399 -52.606  14.354  1.00  0.00    -0.316 N 
HETATM   16  C   UNL     1     -45.192 -51.908  15.249  1.00  0.00     0.095 A 
HETATM   17  C   UNL     1     -46.366 -51.385  14.869  1.00  0.00     0.017 A 
HETATM   18  C   UNL     1     -46.825 -51.557  13.514  1.00  0.00     0.007 A 
HETATM   19  C   UNL     1     -46.069 -52.201  12.616  1.00  0.00     0.074 A 
HETATM   20  C   UNL     1     -44.746 -52.755  13.013  1.00  0.00     0.247 A 
HETATM   21  O   UNL     1     -44.038 -53.307  12.175  1.00  0.00    -0.268 OA
ENDBRANCH  14  15
ENDBRANCH   2  14
TORSDOF 3
ENDMDL
MODEL 4
REMARK VINA RESULT:      -5.7      4.389      5.613
REMARK  3 active torsions:
REMARK  status: ('A' for Active; 'I' for Inactive)
REMARK    1  A    between atoms: C_2  and  C_3 
REMARK       I    between atoms: C_2  and  N_11 
REMARK    2  A    between atoms: C_3  and  N_4 
REMARK    3  A    between atoms: N_11  and  C_12 
ROOT
HETATM    1  O   UNL     1     -41.990 -50.692  13.612  1.00  0.00    -0.272 OA
HETATM    2  C   UNL     1     -41.742 -51.081  12.471  1.00  0.00     0.236 C 
HETATM    3  N   UNL     1     -41.581 -50.221  11.410  1.00  0.00    -0.347 N 
HETATM    4  H   UNL     1     -41.503 -50.596  10.464  1.00  0.00     0.163 HD
ENDROOT
BRANCH   3   5
HETATM    5  C   UNL     1     -41.622 -48.772  11.561  1.00  0.00     0.170 C 
HETATM    6  C   UNL     1     -42.178 -48.094  10.295  1.00  0.00     0.034 C 
HETATM    7  C   UNL     1     -42.509 -46.611  10.498  1.00  0.00     0.004 C 
HETATM    8  C   UNL     1     -41.339 -45.616  10.418  1.00  0.00     0.015 C 
HETATM    9  C   UNL     1     -39.994 -46.038  11.014  1.00  0.00     0.095 C 
HETATM   10  N   UNL     1     -40.148 -46.915  12.152  1.00  0.00    -0.261 NA
HETATM   11  C   UNL     1     -40.200 -48.261  11.818  1.00  0.00     0.220 C 
HETATM   12  H   UNL     1     -40.876 -46.608  12.782  1.00  0.00     0.130 HD
HETATM   13  O   UNL     1     -39.191 -48.919  11.580  1.00  0.00    -0.278 OA
ENDBRANCH   3   5
BRANCH   2  14
HETATM   14  C   UNL     1     -41.635 -52.564  12.119  1.00  0.00     0.234 C 
BRANCH  14  15
HETATM   15  N   UNL     1     -42.619 -53.360  12.842  1.00  0.00    -0.316 N 
HETATM   16  C   UNL     1     -43.947 -53.336  12.448  1.00  0.00     0.095 A 
HETATM   17  C   UNL     1     -44.879 -54.023  13.122  1.00  0.00     0.017 A 
HETATM   18  C   UNL     1     -44.507 -54.794  14.281  1.00  0.00     0.007 A 
HETATM   19  C   UNL     1     -43.228 -54.862  14.671  1.00  0.00     0.074 A 
HETATM   20  C   UNL     1     -42.175 -54.135  13.911  1.00  0.00     0.247 A 
HETATM   21  O   UNL     1     -40.998 -54.236  14.247  1.00  0.00    -0.268 OA
ENDBRANCH  14  15
ENDBRANCH   2  14
TORSDOF 3
ENDMDL
MODEL 5
REMARK VINA RESULT:      -5.6      2.306      6.427
REMARK  3 active torsions:
REMARK  status: ('A' for Active; 'I' for Inactive)
REMARK    1  A    between atoms: C_2  and  C_3 
REMARK       I    between atoms: C_2  and  N_11 
REMARK    2  A    between atoms: C_3  and  N_4 
REMARK    3  A    between atoms: N_11  and  C_12 
ROOT
HETATM    1  O   UNL     1     -42.478 -51.831  13.778  1.00  0.00    -0.272 OA
HETATM    2  C   UNL     1     -42.405 -52.313  12.648  1.00  0.00     0.236 C 
HETATM    3  N   UNL     1     -43.481 -52.889  12.013  1.00  0.00    -0.347 N 
HETATM    4  H   UNL     1     -43.341 -53.387  11.133  1.00  0.00     0.163 HD
ENDROOT
BRANCH   3   5
HETATM    5  C   UNL     1     -44.815 -52.917  12.599  1.00  0.00     0.170 C 
HETATM    6  C   UNL     1     -45.081 -51.654  13.439  1.00  0.00     0.034 C 
HETATM    7  C   UNL     1     -46.553 -51.494  13.842  1.00  0.00     0.004 C 
HETATM    8  C   UNL     1     -47.037 -52.304  15.055  1.00  0.00     0.015 C 
HETATM    9  C   UNL     1     -46.497 -53.724  15.235  1.00  0.00     0.095 C 
HETATM   10  N   UNL     1     -46.219 -54.370  13.972  1.00  0.00    -0.261 NA
HETATM   11  C   UNL     1     -44.933 -54.150  13.502  1.00  0.00     0.220 C 
HETATM   12  H   UNL     1     -46.950 -54.218  13.290  1.00  0.00     0.130 HD
HETATM   13  O   UNL     1     -43.963 -54.781  13.918  1.00  0.00    -0.278 OA
ENDBRANCH   3   5
BRANCH   2  14
HETATM   14  C   UNL     1     -41.097 -52.355  11.861  1.00  0.00     0.234 C 
BRANCH  14  15
HETATM   15  N   UNL     1     -40.308 -51.146  12.066  1.00  0.00    -0.316 N 
HETATM   16  C   UNL     1     -40.728 -49.948  11.514  1.00  0.00     0.095 A 
HETATM   17  C   UNL     1     -39.999 -48.832  11.650  1.00  0.00     0.017 A 
HETATM   18  C   UNL     1     -38.752 -48.870  12.370  1.00  0.00     0.007 A 
HETATM   19  C   UNL     1     -38.332 -50.005  12.942  1.00  0.00     0.074 A 
HETATM   20  C   UNL     1     -39.148 -51.245  12.832  1.00  0.00     0.247 A 
HETATM   21  O   UNL     1     -38.779 -52.272  13.394  1.00  0.00    -0.268 OA
ENDBRANCH  14  15
ENDBRANCH   2  14
TORSDOF 3
ENDMDL
MODEL 6
REMARK VINA RESULT:      -5.6      1.725      6.345
REMARK  3 active torsions:
REMARK  status: ('A' for Active; 'I' for Inactive)
REMARK    1  A    between atoms: C_2  and  C_3 
REMARK       I    between atoms: C_2  and  N_11 
REMARK    2  A    between atoms: C_3  and  N_4 
REMARK    3  A    between atoms: N_11  and  C_12 
ROOT
HETATM    1  O   UNL     1     -40.907 -52.890  12.217  1.00  0.00    -0.272 OA
HETATM    2  C   UNL     1     -41.015 -53.728  13.112  1.00  0.00     0.236 C 
HETATM    3  N   UNL     1     -42.212 -54.007  13.730  1.00  0.00    -0.347 N 
HETATM    4  H   UNL     1     -42.227 -54.615  14.550  1.00  0.00     0.163 HD
ENDROOT
BRANCH   3   5
HETATM    5  C   UNL     1     -43.466 -53.383  13.328  1.00  0.00     0.170 C 
HETATM    6  C   UNL     1     -43.698 -52.061  14.083  1.00  0.00     0.034 C 
HETATM    7  C   UNL     1     -44.847 -51.226  13.502  1.00  0.00     0.004 C 
HETATM    8  C   UNL     1     -46.274 -51.618  13.916  1.00  0.00     0.015 C 
HETATM    9  C   UNL     1     -46.600 -53.107  14.056  1.00  0.00     0.095 C 
HETATM   10  N   UNL     1     -45.841 -53.924  13.137  1.00  0.00    -0.261 NA
HETATM   11  C   UNL     1     -44.619 -54.344  13.640  1.00  0.00     0.220 C 
HETATM   12  H   UNL     1     -45.802 -53.527  12.208  1.00  0.00     0.130 HD
HETATM   13  O   UNL     1     -44.516 -55.299  14.408  1.00  0.00    -0.278 OA
ENDBRANCH   3   5
BRANCH   2  14
HETATM   14  C   UNL     1     -39.816 -54.505  13.653  1.00  0.00     0.234 C 
BRANCH  14  15
HETATM   15  N   UNL     1     -39.329 -53.938  14.905  1.00  0.00    -0.316 N 
HETATM   16  C   UNL     1     -39.288 -52.564  15.068  1.00  0.00     0.095 A 
HETATM   17  C   UNL     1     -38.804 -52.017  16.191  1.00  0.00     0.017 A 
HETATM   18  C   UNL     1     -38.306 -52.862  17.247  1.00  0.00     0.007 A 
HETATM   19  C   UNL     1     -38.359 -54.194  17.133  1.00  0.00     0.074 A 
HETATM   20  C   UNL     1     -38.928 -54.818  15.908  1.00  0.00     0.247 A 
HETATM   21  O   UNL     1     -39.014 -56.041  15.827  1.00  0.00    -0.268 OA
ENDBRANCH  14  15
ENDBRANCH   2  14
TORSDOF 3
ENDMDL
MODEL 7
REMARK VINA RESULT:      -5.6      2.247      3.101
REMARK  3 active torsions:
REMARK  status: ('A' for Active; 'I' for Inactive)
REMARK    1  A    between atoms: C_2  and  C_3 
REMARK       I    between atoms: C_2  and  N_11 
REMARK    2  A    between atoms: C_3  and  N_4 
REMARK    3  A    between atoms: N_11  and  C_12 
ROOT
HETATM    1  O   UNL     1     -42.424 -52.113  14.520  1.00  0.00    -0.272 OA
HETATM    2  C   UNL     1     -42.606 -52.302  13.318  1.00  0.00     0.236 C 
HETATM    3  N   UNL     1     -41.803 -51.750  12.347  1.00  0.00    -0.347 N 
HETATM    4  H   UNL     1     -42.069 -51.832  11.365  1.00  0.00     0.163 HD
ENDROOT
BRANCH   3   5
HETATM    5  C   UNL     1     -40.627 -50.950  12.664  1.00  0.00     0.170 C 
HETATM    6  C   UNL     1     -40.126 -50.181  11.428  1.00  0.00     0.034 C 
HETATM    7  C   UNL     1     -39.076 -49.114  11.763  1.00  0.00     0.004 C 
HETATM    8  C   UNL     1     -37.628 -49.593  11.950  1.00  0.00     0.015 C 
HETATM    9  C   UNL     1     -37.398 -50.931  12.657  1.00  0.00     0.095 C 
HETATM   10  N   UNL     1     -38.407 -51.207  13.653  1.00  0.00    -0.261 NA
HETATM   11  C   UNL     1     -39.513 -51.882  13.157  1.00  0.00     0.220 C 
HETATM   12  H   UNL     1     -38.625 -50.398  14.219  1.00  0.00     0.130 HD
HETATM   13  O   UNL     1     -39.515 -53.096  12.972  1.00  0.00    -0.278 OA
ENDBRANCH   3   5
BRANCH   2  14
HETATM   14  C   UNL     1     -43.773 -53.134  12.790  1.00  0.00     0.234 C 
BRANCH  14  15
HETATM   15  N   UNL     1     -44.985 -52.915  13.570  1.00  0.00    -0.316 N 
HETATM   16  C   UNL     1     -45.627 -51.689  13.514  1.00  0.00     0.095 A 
HETATM   17  C   UNL     1     -46.717 -51.447  14.255  1.00  0.00     0.017 A 
HETATM   18  C   UNL     1     -47.232 -52.466  15.133  1.00  0.00     0.007 A 
HETATM   19  C   UNL     1     -46.653 -53.672  15.188  1.00  0.00     0.074 A 
HETATM   20  C   UNL     1     -45.463 -53.970  14.345  1.00  0.00     0.247 A 
HETATM   21  O   UNL     1     -44.963 -55.091  14.367  1.00  0.00    -0.268 OA
ENDBRANCH  14  15
ENDBRANCH   2  14
TORSDOF 3
ENDMDL
MODEL 8
REMARK VINA RESULT:      -5.3      3.939      6.868
REMARK  3 active torsions:
REMARK  status: ('A' for Active; 'I' for Inactive)
REMARK    1  A    between atoms: C_2  and  C_3 
REMARK       I    between atoms: C_2  and  N_11 
REMARK    2  A    between atoms: C_3  and  N_4 
REMARK    3  A    between atoms: N_11  and  C_12 
ROOT
HETATM    1  O   UNL     1     -43.242 -49.034  13.201  1.00  0.00    -0.272 OA
HETATM    2  C   UNL     1     -42.767 -50.045  12.686  1.00  0.00     0.236 C 
HETATM    3  N   UNL     1     -43.419 -51.256  12.681  1.00  0.00    -0.347 N 
HETATM    4  H   UNL     1     -42.931 -52.091  12.356  1.00  0.00     0.163 HD
ENDROOT
BRANCH   3   5
HETATM    5  C   UNL     1     -44.760 -51.427  13.227  1.00  0.00     0.170 C 
HETATM    6  C   UNL     1     -44.748 -51.359  14.766  1.00  0.00     0.034 C 
HETATM    7  C   UNL     1     -46.151 -51.248  15.376  1.00  0.00     0.004 C 
HETATM    8  C   UNL     1     -46.956 -52.549  15.521  1.00  0.00     0.015 C 
HETATM    9  C   UNL     1     -46.847 -53.590  14.404  1.00  0.00     0.095 C 
HETATM   10  N   UNL     1     -46.637 -52.986  13.108  1.00  0.00    -0.261 NA
HETATM   11  C   UNL     1     -45.300 -52.793  12.792  1.00  0.00     0.220 C 
HETATM   12  H   UNL     1     -47.228 -52.179  12.956  1.00  0.00     0.130 HD
HETATM   13  O   UNL     1     -44.587 -53.700  12.367  1.00  0.00    -0.278 OA
ENDBRANCH   3   5
BRANCH   2  14
HETATM   14  C   UNL     1     -41.382 -50.058  12.041  1.00  0.00     0.234 C 
BRANCH  14  15
HETATM   15  N   UNL     1     -40.795 -48.724  12.000  1.00  0.00    -0.316 N 
HETATM   16  C   UNL     1     -39.923 -48.326  12.999  1.00  0.00     0.095 A 
HETATM   17  C   UNL     1     -39.404 -47.090  13.010  1.00  0.00     0.017 A 
HETATM   18  C   UNL     1     -39.762 -46.151  11.978  1.00  0.00     0.007 A 
HETATM   19  C   UNL     1     -40.579 -46.513  10.982  1.00  0.00     0.074 A 
HETATM   20  C   UNL     1     -41.134 -47.893  10.935  1.00  0.00     0.247 A 
HETATM   21  O   UNL     1     -41.849 -48.233   9.995  1.00  0.00    -0.268 OA
ENDBRANCH  14  15
ENDBRANCH   2  14
TORSDOF 3
ENDMDL
MODEL 9
REMARK VINA RESULT:      -5.1      2.181      6.387
REMARK  3 active torsions:
REMARK  status: ('A' for Active; 'I' for Inactive)
REMARK    1  A    between atoms: C_2  and  C_3 
REMARK       I    between atoms: C_2  and  N_11 
REMARK    2  A    between atoms: C_3  and  N_4 
REMARK    3  A    between atoms: N_11  and  C_12 
ROOT
HETATM    1  O   UNL     1     -43.003 -49.272  12.498  1.00  0.00    -0.272 OA
HETATM    2  C   UNL     1     -42.538 -50.410  12.440  1.00  0.00     0.236 C 
HETATM    3  N   UNL     1     -43.235 -51.522  12.852  1.00  0.00    -0.347 N 
HETATM    4  H   UNL     1     -42.761 -52.424  12.903  1.00  0.00     0.163 HD
ENDROOT
BRANCH   3   5
HETATM    5  C   UNL     1     -44.611 -51.453  13.328  1.00  0.00     0.170 C 
HETATM    6  C   UNL     1     -44.667 -51.416  14.867  1.00  0.00     0.034 C 
HETATM    7  C   UNL     1     -46.056 -51.060  15.412  1.00  0.00     0.004 C 
HETATM    8  C   UNL     1     -47.091 -52.194  15.483  1.00  0.00     0.015 C 
HETATM    9  C   UNL     1     -47.117 -53.216  14.344  1.00  0.00     0.095 C 
HETATM   10  N   UNL     1     -46.733 -52.638  13.077  1.00  0.00    -0.261 NA
HETATM   11  C   UNL     1     -45.369 -52.689  12.830  1.00  0.00     0.220 C 
HETATM   12  H   UNL     1     -47.157 -51.734  12.919  1.00  0.00     0.130 HD
HETATM   13  O   UNL     1     -44.812 -53.703  12.416  1.00  0.00    -0.278 OA
ENDBRANCH   3   5
BRANCH   2  14
HETATM   14  C   UNL     1     -41.119 -50.687  11.945  1.00  0.00     0.234 C 
BRANCH  14  15
HETATM   15  N   UNL     1     -40.483 -51.753  12.710  1.00  0.00    -0.316 N 
HETATM   16  C   UNL     1     -40.856 -53.069  12.498  1.00  0.00     0.095 A 
HETATM   17  C   UNL     1     -40.319 -54.064  13.218  1.00  0.00     0.017 A 
HETATM   18  C   UNL     1     -39.346 -53.768  14.239  1.00  0.00     0.007 A 
HETATM   19  C   UNL     1     -38.942 -52.510  14.450  1.00  0.00     0.074 A 
HETATM   20  C   UNL     1     -39.501 -51.398  13.633  1.00  0.00     0.247 A 
HETATM   21  O   UNL     1     -39.095 -50.252  13.801  1.00  0.00    -0.268 OA
ENDBRANCH  14  15
ENDBRANCH   2  14
TORSDOF 3
ENDMDL
