MODEL 1
REMARK VINA RESULT:      -4.9      0.000      0.000
REMARK  1 active torsions:
REMARK  status: ('A' for Active; 'I' for Inactive)
REMARK    1  A    between atoms: C_8  and  C_11 
ROOT
HETATM    1  C   UNL     2     -46.869 -48.022   8.938  1.00  0.00     0.091 C 
HETATM    2  C   UNL     2     -45.573 -47.334   9.218  1.00  0.00     0.100 A 
HETATM    3  N   UNL     2     -45.292 -46.097   8.769  1.00  0.00    -0.248 N 
ATOM      4  HN  UNL     2     -45.886 -45.498   8.195  1.00  0.00     0.196 HD
HETATM    5  O   UNL     2     -44.105 -45.828   9.221  1.00  0.00    -0.222 OA
HETATM    6  C   UNL     2     -43.653 -46.843   9.919  1.00  0.00     0.154 A 
HETATM    7  N   UNL     2     -44.557 -47.845   9.943  1.00  0.00    -0.327 N 
ATOM      8  HN  UNL     2     -44.489 -48.757  10.395  1.00  0.00     0.169 HD
ENDROOT
BRANCH   6   9
HETATM    9  C   UNL     2     -42.301 -46.798  10.597  1.00  0.00     0.091 C 
HETATM   10  C   UNL     2     -42.190 -47.468  11.987  1.00  0.00     0.016 C 
HETATM   11  C   UNL     2     -42.973 -46.697  13.058  1.00  0.00     0.031 C 
HETATM   12  C   UNL     2     -42.565 -45.219  13.050  1.00  0.00     0.269 C 
HETATM   13  N   UNL     2     -42.758 -44.645  11.709  1.00  0.00     0.084 N 
HETATM   14  C   UNL     2     -41.885 -45.321  10.736  1.00  0.00     0.282 C 
HETATM   15  H   UNL     2     -42.508 -43.630  11.740  1.00  0.00     0.315 HD
ENDBRANCH   6   9
TORSDOF 1
ENDMDL
MODEL 2
REMARK VINA RESULT:      -4.8      1.834      2.541
REMARK  1 active torsions:
REMARK  status: ('A' for Active; 'I' for Inactive)
REMARK    1  A    between atoms: C_8  and  C_11 
ROOT
HETATM    1  C   UNL     2     -45.644 -47.447   9.103  1.00  0.00     0.091 C 
HETATM    2  C   UNL     2     -44.263 -47.438   9.672  1.00  0.00     0.100 A 
HETATM    3  N   UNL     2     -43.228 -48.068   9.088  1.00  0.00    -0.248 N 
ATOM      4  HN  UNL     2     -43.246 -48.621   8.231  1.00  0.00     0.196 HD
HETATM    5  O   UNL     2     -42.203 -47.823   9.845  1.00  0.00    -0.222 OA
HETATM    6  C   UNL     2     -42.567 -47.078  10.862  1.00  0.00     0.154 A 
HETATM    7  N   UNL     2     -43.888 -46.806  10.804  1.00  0.00    -0.327 N 
ATOM      8  HN  UNL     2     -44.458 -46.260  11.451  1.00  0.00     0.169 HD
ENDROOT
BRANCH   6   9
HETATM    9  C   UNL     2     -41.569 -46.608  11.897  1.00  0.00     0.091 C 
HETATM   10  C   UNL     2     -41.642 -45.120  12.316  1.00  0.00     0.016 C 
HETATM   11  C   UNL     2     -41.207 -44.183  11.183  1.00  0.00     0.031 C 
HETATM   12  C   UNL     2     -39.835 -44.606  10.644  1.00  0.00     0.269 C 
HETATM   13  N   UNL     2     -39.870 -46.012  10.212  1.00  0.00     0.084 N 
HETATM   14  C   UNL     2     -40.153 -46.890  11.358  1.00  0.00     0.282 C 
HETATM   15  H   UNL     2     -38.936 -46.264   9.815  1.00  0.00     0.315 HD
ENDBRANCH   6   9
TORSDOF 1
ENDMDL
MODEL 3
REMARK VINA RESULT:      -4.6      6.605      7.891
REMARK  1 active torsions:
REMARK  status: ('A' for Active; 'I' for Inactive)
REMARK    1  A    between atoms: C_8  and  C_11 
ROOT
HETATM    1  C   UNL     2     -41.003 -51.824  12.001  1.00  0.00     0.091 C 
HETATM    2  C   UNL     2     -42.289 -52.507  12.334  1.00  0.00     0.100 A 
HETATM    3  N   UNL     2     -42.370 -53.825  12.591  1.00  0.00    -0.248 N 
ATOM      4  HN  UNL     2     -41.609 -54.505  12.580  1.00  0.00     0.196 HD
HETATM    5  O   UNL     2     -43.620 -54.049  12.856  1.00  0.00    -0.222 OA
HETATM    6  C   UNL     2     -44.302 -52.931  12.769  1.00  0.00     0.154 A 
HETATM    7  N   UNL     2     -43.493 -51.905  12.428  1.00  0.00    -0.327 N 
ATOM      8  HN  UNL     2     -43.731 -50.925  12.279  1.00  0.00     0.169 HD
ENDROOT
BRANCH   6   9
HETATM    9  C   UNL     2     -45.786 -52.884  13.059  1.00  0.00     0.091 C 
HETATM   10  C   UNL     2     -46.346 -51.562  13.637  1.00  0.00     0.016 C 
HETATM   11  C   UNL     2     -45.857 -51.309  15.068  1.00  0.00     0.031 C 
HETATM   12  C   UNL     2     -46.137 -52.534  15.947  1.00  0.00     0.269 C 
HETATM   13  N   UNL     2     -45.520 -53.734  15.359  1.00  0.00     0.084 N 
HETATM   14  C   UNL     2     -46.117 -54.021  14.045  1.00  0.00     0.282 C 
HETATM   15  H   UNL     2     -45.694 -54.546  15.995  1.00  0.00     0.315 HD
ENDBRANCH   6   9
TORSDOF 1
ENDMDL
MODEL 4
REMARK VINA RESULT:      -4.6      4.108      5.109
REMARK  1 active torsions:
REMARK  status: ('A' for Active; 'I' for Inactive)
REMARK    1  A    between atoms: C_8  and  C_11 
ROOT
HETATM    1  C   UNL     2     -44.207 -53.555  12.517  1.00  0.00     0.091 C 
HETATM    2  C   UNL     2     -43.181 -52.483  12.348  1.00  0.00     0.100 A 
HETATM    3  N   UNL     2     -42.055 -52.657  11.633  1.00  0.00    -0.248 N 
ATOM      4  HN  UNL     2     -41.755 -53.503  11.147  1.00  0.00     0.196 HD
HETATM    5  O   UNL     2     -41.430 -51.520  11.691  1.00  0.00    -0.222 OA
HETATM    6  C   UNL     2     -42.122 -50.668  12.410  1.00  0.00     0.154 A 
HETATM    7  N   UNL     2     -43.258 -51.239  12.865  1.00  0.00    -0.327 N 
ATOM      8  HN  UNL     2     -43.988 -50.833  13.450  1.00  0.00     0.169 HD
ENDROOT
BRANCH   6   9
HETATM    9  C   UNL     2     -41.650 -49.246  12.624  1.00  0.00     0.091 C 
HETATM   10  C   UNL     2     -42.732 -48.140  12.621  1.00  0.00     0.016 C 
HETATM   11  C   UNL     2     -43.342 -47.938  11.229  1.00  0.00     0.031 C 
HETATM   12  C   UNL     2     -42.233 -47.719  10.192  1.00  0.00     0.269 C 
HETATM   13  N   UNL     2     -41.283 -48.843  10.219  1.00  0.00     0.084 N 
HETATM   14  C   UNL     2     -40.617 -48.916  11.529  1.00  0.00     0.282 C 
HETATM   15  H   UNL     2     -40.560 -48.688   9.479  1.00  0.00     0.315 HD
ENDBRANCH   6   9
TORSDOF 1
ENDMDL
MODEL 5
REMARK VINA RESULT:      -4.5      7.466      8.758
REMARK  1 active torsions:
REMARK  status: ('A' for Active; 'I' for Inactive)
REMARK    1  A    between atoms: C_8  and  C_11 
ROOT
HETATM    1  C   UNL     2     -40.754 -53.907  12.871  1.00  0.00     0.091 C 
HETATM    2  C   UNL     2     -42.154 -54.093  13.357  1.00  0.00     0.100 A 
HETATM    3  N   UNL     2     -42.446 -54.663  14.540  1.00  0.00    -0.248 N 
ATOM      4  HN  UNL     2     -41.789 -55.041  15.222  1.00  0.00     0.196 HD
HETATM    5  O   UNL     2     -43.741 -54.631  14.628  1.00  0.00    -0.222 OA
HETATM    6  C   UNL     2     -44.247 -54.072  13.554  1.00  0.00     0.154 A 
HETATM    7  N   UNL     2     -43.268 -53.712  12.697  1.00  0.00    -0.327 N 
ATOM      8  HN  UNL     2     -43.349 -53.265  11.784  1.00  0.00     0.169 HD
ENDROOT
BRANCH   6   9
HETATM    9  C   UNL     2     -45.738 -53.870  13.395  1.00  0.00     0.091 C 
HETATM   10  C   UNL     2     -46.213 -52.461  12.968  1.00  0.00     0.016 C 
HETATM   11  C   UNL     2     -45.991 -51.421  14.074  1.00  0.00     0.031 C 
HETATM   12  C   UNL     2     -46.608 -51.909  15.390  1.00  0.00     0.269 C 
HETATM   13  N   UNL     2     -46.058 -53.225  15.753  1.00  0.00     0.084 N 
HETATM   14  C   UNL     2     -46.414 -54.224  14.733  1.00  0.00     0.282 C 
HETATM   15  H   UNL     2     -46.467 -53.517  16.670  1.00  0.00     0.315 HD
ENDBRANCH   6   9
TORSDOF 1
ENDMDL
MODEL 6
REMARK VINA RESULT:      -4.3      7.478      8.141
REMARK  1 active torsions:
REMARK  status: ('A' for Active; 'I' for Inactive)
REMARK    1  A    between atoms: C_8  and  C_11 
ROOT
HETATM    1  C   UNL     2     -47.674 -51.328  16.610  1.00  0.00     0.091 C 
HETATM    2  C   UNL     2     -46.949 -51.932  15.452  1.00  0.00     0.100 A 
HETATM    3  N   UNL     2     -46.801 -51.300  14.274  1.00  0.00    -0.248 N 
ATOM      4  HN  UNL     2     -47.156 -50.378  14.018  1.00  0.00     0.196 HD
HETATM    5  O   UNL     2     -46.110 -52.111  13.532  1.00  0.00    -0.222 OA
HETATM    6  C   UNL     2     -45.836 -53.205  14.202  1.00  0.00     0.154 A 
HETATM    7  N   UNL     2     -46.360 -53.146  15.445  1.00  0.00    -0.327 N 
ATOM      8  HN  UNL     2     -46.321 -53.842  16.190  1.00  0.00     0.169 HD
ENDROOT
BRANCH   6   9
HETATM    9  C   UNL     2     -45.011 -54.319  13.597  1.00  0.00     0.091 C 
HETATM   10  C   UNL     2     -44.018 -55.046  14.534  1.00  0.00     0.016 C 
HETATM   11  C   UNL     2     -42.851 -54.139  14.946  1.00  0.00     0.031 C 
HETATM   12  C   UNL     2     -42.193 -53.527  13.704  1.00  0.00     0.269 C 
HETATM   13  N   UNL     2     -43.194 -52.805  12.902  1.00  0.00     0.084 N 
HETATM   14  C   UNL     2     -44.220 -53.737  12.410  1.00  0.00     0.282 C 
HETATM   15  H   UNL     2     -42.713 -52.366  12.083  1.00  0.00     0.315 HD
ENDBRANCH   6   9
TORSDOF 1
ENDMDL
MODEL 7
REMARK VINA RESULT:      -4.3      5.963      6.627
REMARK  1 active torsions:
REMARK  status: ('A' for Active; 'I' for Inactive)
REMARK    1  A    between atoms: C_8  and  C_11 
ROOT
HETATM    1  C   UNL     2     -46.677 -51.539  13.727  1.00  0.00     0.091 C 
HETATM    2  C   UNL     2     -45.329 -52.079  13.379  1.00  0.00     0.100 A 
HETATM    3  N   UNL     2     -45.079 -52.736  12.232  1.00  0.00    -0.248 N 
ATOM      4  HN  UNL     2     -45.743 -52.958  11.490  1.00  0.00     0.196 HD
HETATM    5  O   UNL     2     -43.815 -53.029  12.270  1.00  0.00    -0.222 OA
HETATM    6  C   UNL     2     -43.288 -52.583  13.386  1.00  0.00     0.154 A 
HETATM    7  N   UNL     2     -44.222 -51.968  14.143  1.00  0.00    -0.327 N 
ATOM      8  HN  UNL     2     -44.117 -51.531  15.058  1.00  0.00     0.169 HD
ENDROOT
BRANCH   6   9
HETATM    9  C   UNL     2     -41.815 -52.753  13.689  1.00  0.00     0.091 C 
HETATM   10  C   UNL     2     -41.049 -51.498  14.171  1.00  0.00     0.016 C 
HETATM   11  C   UNL     2     -40.902 -50.453  13.057  1.00  0.00     0.031 C 
HETATM   12  C   UNL     2     -40.303 -51.099  11.802  1.00  0.00     0.269 C 
HETATM   13  N   UNL     2     -41.124 -52.244  11.377  1.00  0.00     0.084 N 
HETATM   14  C   UNL     2     -41.124 -53.284  12.418  1.00  0.00     0.282 C 
HETATM   15  H   UNL     2     -40.715 -52.642  10.501  1.00  0.00     0.315 HD
ENDBRANCH   6   9
TORSDOF 1
ENDMDL
MODEL 8
REMARK VINA RESULT:      -4.2      5.610      7.090
REMARK  1 active torsions:
REMARK  status: ('A' for Active; 'I' for Inactive)
REMARK    1  A    between atoms: C_8  and  C_11 
ROOT
HETATM    1  C   UNL     2     -37.641 -49.823  11.326  1.00  0.00     0.091 C 
HETATM    2  C   UNL     2     -39.055 -50.138  11.692  1.00  0.00     0.100 A 
HETATM    3  N   UNL     2     -40.067 -50.082  10.808  1.00  0.00    -0.248 N 
ATOM      4  HN  UNL     2     -40.015 -49.816   9.824  1.00  0.00     0.196 HD
HETATM    5  O   UNL     2     -41.124 -50.438  11.471  1.00  0.00    -0.222 OA
HETATM    6  C   UNL     2     -40.802 -50.703  12.715  1.00  0.00     0.154 A 
HETATM    7  N   UNL     2     -39.480 -50.520  12.914  1.00  0.00    -0.327 N 
ATOM      8  HN  UNL     2     -38.939 -50.639  13.771  1.00  0.00     0.169 HD
ENDROOT
BRANCH   6   9
HETATM    9  C   UNL     2     -41.834 -51.176  13.716  1.00  0.00     0.091 C 
HETATM   10  C   UNL     2     -41.456 -52.397  14.589  1.00  0.00     0.016 C 
HETATM   11  C   UNL     2     -41.377 -53.688  13.764  1.00  0.00     0.031 C 
HETATM   12  C   UNL     2     -42.666 -53.880  12.957  1.00  0.00     0.269 C 
HETATM   13  N   UNL     2     -42.918 -52.702  12.112  1.00  0.00     0.084 N 
HETATM   14  C   UNL     2     -43.127 -51.510  12.949  1.00  0.00     0.282 C 
HETATM   15  H   UNL     2     -43.781 -52.874  11.546  1.00  0.00     0.315 HD
ENDBRANCH   6   9
TORSDOF 1
ENDMDL
MODEL 9
REMARK VINA RESULT:      -3.9      6.341      7.344
REMARK  1 active torsions:
REMARK  status: ('A' for Active; 'I' for Inactive)
REMARK    1  A    between atoms: C_8  and  C_11 
ROOT
HETATM    1  C   UNL     2     -47.266 -51.624  11.419  1.00  0.00     0.091 C 
HETATM    2  C   UNL     2     -46.363 -51.610  12.609  1.00  0.00     0.100 A 
HETATM    3  N   UNL     2     -46.807 -51.387  13.859  1.00  0.00    -0.248 N 
ATOM      4  HN  UNL     2     -47.765 -51.191  14.149  1.00  0.00     0.196 HD
HETATM    5  O   UNL     2     -45.757 -51.473  14.618  1.00  0.00    -0.222 OA
HETATM    6  C   UNL     2     -44.699 -51.734  13.888  1.00  0.00     0.154 A 
HETATM    7  N   UNL     2     -45.031 -51.826  12.582  1.00  0.00    -0.327 N 
ATOM      8  HN  UNL     2     -44.429 -52.011  11.780  1.00  0.00     0.169 HD
ENDROOT
BRANCH   6   9
HETATM    9  C   UNL     2     -43.333 -51.921  14.511  1.00  0.00     0.091 C 
HETATM   10  C   UNL     2     -42.354 -52.872  13.783  1.00  0.00     0.016 C 
HETATM   11  C   UNL     2     -42.809 -54.335  13.863  1.00  0.00     0.031 C 
HETATM   12  C   UNL     2     -43.080 -54.725  15.321  1.00  0.00     0.269 C 
HETATM   13  N   UNL     2     -44.065 -53.809  15.918  1.00  0.00     0.084 N 
HETATM   14  C   UNL     2     -43.531 -52.438  15.949  1.00  0.00     0.282 C 
HETATM   15  H   UNL     2     -44.259 -54.119  16.898  1.00  0.00     0.315 HD
ENDBRANCH   6   9
TORSDOF 1
ENDMDL
