MODEL 1
REMARK VINA RESULT:      -6.6      0.000      0.000
REMARK  6 active torsions:
REMARK  status: ('A' for Active; 'I' for Inactive)
REMARK    1  A    between atoms: O_2  and  C_3 
REMARK    2  A    between atoms: C_3  and  C_4 
REMARK    3  A    between atoms: C_4  and  N_5 
REMARK    4  A    between atoms: C_6  and  S_7 
REMARK    5  A    between atoms: S_7  and  C_8 
REMARK    6  A    between atoms: C_8  and  C_9 
ROOT
HETATM    1  N   UNL     1     -41.468 -46.694  10.468  1.00  0.00    -0.324 N 
HETATM    2  C   UNL     1     -41.363 -47.925  11.066  1.00  0.00     0.148 C 
HETATM    3  N   UNL     1     -42.498 -48.591  11.030  1.00  0.00    -0.335 N 
ATOM      4  HN  UNL     1     -42.685 -49.516  11.417  1.00  0.00     0.168 HD
HETATM    5  C   UNL     1     -43.375 -47.774  10.362  1.00  0.00     0.062 A 
HETATM    6  C   UNL     1     -44.736 -47.963  10.082  1.00  0.00     0.055 A 
HETATM    7  C   UNL     1     -45.406 -46.978   9.349  1.00  0.00     0.036 A 
HETATM    8 CL   UNL     1     -47.089 -47.158   9.029  1.00  0.00    -0.084 Cl
HETATM    9  C   UNL     1     -44.741 -45.852   8.868  1.00  0.00     0.026 A 
HETATM   10  C   UNL     1     -43.381 -45.659   9.126  1.00  0.00     0.034 A 
HETATM   11  C   UNL     1     -42.737 -46.620   9.917  1.00  0.00     0.063 A 
ENDROOT
BRANCH   2  12
HETATM   12  S   UNL     1     -39.890 -48.534  11.748  1.00  0.00    -0.087 SA
BRANCH  12  13
HETATM   13  C   UNL     1     -40.500 -49.645  13.047  1.00  0.00     0.153 C 
BRANCH  13  14
HETATM   14  C   UNL     1     -40.639 -51.056  12.537  1.00  0.00     0.084 C 
HETATM   15  N   UNL     1     -40.663 -52.095  13.334  1.00  0.00    -0.305 N 
HETATM   16  C   UNL     1     -40.917 -53.165  12.504  1.00  0.00     0.313 C 
ATOM     17  HN  UNL     1     -40.523 -52.109  14.344  1.00  0.00     0.171 HD
HETATM   18  O   UNL     1     -40.848 -54.347  12.796  1.00  0.00    -0.252 OA
HETATM   19  N   UNL     1     -41.214 -52.693  11.235  1.00  0.00    -0.171 NA
HETATM   20  N   UNL     1     -40.823 -51.356  11.202  1.00  0.00    -0.206 NA
HETATM   21  H   UNL     1     -40.969 -53.305  10.466  1.00  0.00     0.152 HD
HETATM   22  H   UNL     1     -41.389 -50.690  10.670  1.00  0.00     0.148 HD
ENDBRANCH  13  14
ENDBRANCH  12  13
ENDBRANCH   2  12
BRANCH   1  23
HETATM   23  C   UNL     1     -40.495 -45.617  10.424  1.00  0.00     0.157 C 
BRANCH  23  24
HETATM   24  C   UNL     1     -40.759 -44.528  11.469  1.00  0.00     0.187 C 
BRANCH  24  25
HETATM   25  O   UNL     1     -41.365 -43.395  10.845  1.00  0.00    -0.394 OA
HETATM   26  C   UNL     1     -42.558 -43.015  11.527  1.00  0.00     0.201 C 
ENDBRANCH  24  25
ENDBRANCH  23  24
ENDBRANCH   1  23
TORSDOF 6
ENDMDL
MODEL 2
REMARK VINA RESULT:      -6.5      3.591      6.909
REMARK  6 active torsions:
REMARK  status: ('A' for Active; 'I' for Inactive)
REMARK    1  A    between atoms: O_2  and  C_3 
REMARK    2  A    between atoms: C_3  and  C_4 
REMARK    3  A    between atoms: C_4  and  N_5 
REMARK    4  A    between atoms: C_6  and  S_7 
REMARK    5  A    between atoms: S_7  and  C_8 
REMARK    6  A    between atoms: C_8  and  C_9 
ROOT
HETATM    1  N   UNL     1     -41.913 -50.508  12.169  1.00  0.00    -0.324 N 
HETATM    2  C   UNL     1     -42.921 -49.588  12.323  1.00  0.00     0.148 C 
HETATM    3  N   UNL     1     -44.028 -50.139  12.773  1.00  0.00    -0.335 N 
ATOM      4  HN  UNL     1     -44.919 -49.677  12.956  1.00  0.00     0.168 HD
HETATM    5  C   UNL     1     -43.727 -51.467  12.944  1.00  0.00     0.062 A 
HETATM    6  C   UNL     1     -44.552 -52.524  13.355  1.00  0.00     0.055 A 
HETATM    7  C   UNL     1     -43.987 -53.797  13.479  1.00  0.00     0.036 A 
HETATM    8 CL   UNL     1     -44.983 -55.125  13.937  1.00  0.00    -0.084 Cl
HETATM    9  C   UNL     1     -42.631 -54.017  13.241  1.00  0.00     0.026 A 
HETATM   10  C   UNL     1     -41.795 -52.969  12.845  1.00  0.00     0.034 A 
HETATM   11  C   UNL     1     -42.387 -51.713  12.662  1.00  0.00     0.063 A 
ENDROOT
BRANCH   2  12
HETATM   12  S   UNL     1     -42.729 -47.896  11.995  1.00  0.00    -0.087 SA
BRANCH  12  13
HETATM   13  C   UNL     1     -42.666 -47.862  10.181  1.00  0.00     0.153 C 
BRANCH  13  14
HETATM   14  C   UNL     1     -43.962 -47.358   9.600  1.00  0.00     0.084 C 
HETATM   15  N   UNL     1     -45.096 -47.996   9.747  1.00  0.00    -0.305 N 
HETATM   16  C   UNL     1     -46.039 -47.164   9.182  1.00  0.00     0.313 C 
ATOM     17  HN  UNL     1     -45.248 -48.905  10.183  1.00  0.00     0.171 HD
HETATM   18  O   UNL     1     -47.202 -47.439   8.940  1.00  0.00    -0.252 OA
HETATM   19  N   UNL     1     -45.443 -45.954   8.864  1.00  0.00    -0.171 NA
HETATM   20  N   UNL     1     -44.066 -46.155   8.931  1.00  0.00    -0.206 NA
HETATM   21  H   UNL     1     -45.838 -45.459   8.075  1.00  0.00     0.152 HD
HETATM   22  H   UNL     1     -43.473 -45.398   9.282  1.00  0.00     0.148 HD
ENDBRANCH  13  14
ENDBRANCH  12  13
ENDBRANCH   2  12
BRANCH   1  23
HETATM   23  C   UNL     1     -40.600 -50.329  11.573  1.00  0.00     0.157 C 
BRANCH  23  24
HETATM   24  C   UNL     1     -39.483 -50.198  12.612  1.00  0.00     0.187 C 
BRANCH  24  25
HETATM   25  O   UNL     1     -38.554 -51.273  12.462  1.00  0.00    -0.394 OA
HETATM   26  C   UNL     1     -37.304 -50.802  11.965  1.00  0.00     0.201 C 
ENDBRANCH  24  25
ENDBRANCH  23  24
ENDBRANCH   1  23
TORSDOF 6
ENDMDL
MODEL 3
REMARK VINA RESULT:      -6.5      3.257      6.915
REMARK  6 active torsions:
REMARK  status: ('A' for Active; 'I' for Inactive)
REMARK    1  A    between atoms: O_2  and  C_3 
REMARK    2  A    between atoms: C_3  and  C_4 
REMARK    3  A    between atoms: C_4  and  N_5 
REMARK    4  A    between atoms: C_6  and  S_7 
REMARK    5  A    between atoms: S_7  and  C_8 
REMARK    6  A    between atoms: C_8  and  C_9 
ROOT
HETATM    1  N   UNL     1     -41.711 -51.288  12.686  1.00  0.00    -0.324 N 
HETATM    2  C   UNL     1     -42.034 -49.996  12.357  1.00  0.00     0.148 C 
HETATM    3  N   UNL     1     -43.292 -49.717  12.627  1.00  0.00    -0.335 N 
ATOM      4  HN  UNL     1     -43.780 -48.836  12.463  1.00  0.00     0.168 HD
HETATM    5  C   UNL     1     -43.806 -50.864  13.177  1.00  0.00     0.062 A 
HETATM    6  C   UNL     1     -45.113 -51.143  13.603  1.00  0.00     0.055 A 
HETATM    7  C   UNL     1     -45.375 -52.397  14.163  1.00  0.00     0.036 A 
HETATM    8 CL   UNL     1     -46.979 -52.789  14.653  1.00  0.00    -0.084 Cl
HETATM    9  C   UNL     1     -44.364 -53.341  14.337  1.00  0.00     0.026 A 
HETATM   10  C   UNL     1     -43.054 -53.070  13.931  1.00  0.00     0.034 A 
HETATM   11  C   UNL     1     -42.819 -51.836  13.312  1.00  0.00     0.063 A 
ENDROOT
BRANCH   2  12
HETATM   12  S   UNL     1     -40.897 -48.863  11.699  1.00  0.00    -0.087 SA
BRANCH  12  13
HETATM   13  C   UNL     1     -41.915 -47.374  11.495  1.00  0.00     0.153 C 
BRANCH  13  14
HETATM   14  C   UNL     1     -42.371 -47.216  10.067  1.00  0.00     0.084 C 
HETATM   15  N   UNL     1     -43.051 -48.141   9.438  1.00  0.00    -0.305 N 
HETATM   16  C   UNL     1     -43.368 -47.573   8.223  1.00  0.00     0.313 C 
ATOM     17  HN  UNL     1     -43.292 -49.074   9.772  1.00  0.00     0.171 HD
HETATM   18  O   UNL     1     -43.843 -48.142   7.255  1.00  0.00    -0.252 OA
HETATM   19  N   UNL     1     -43.005 -46.235   8.239  1.00  0.00    -0.171 NA
HETATM   20  N   UNL     1     -42.168 -46.061   9.340  1.00  0.00    -0.206 NA
HETATM   21  H   UNL     1     -42.746 -45.836   7.346  1.00  0.00     0.152 HD
HETATM   22  H   UNL     1     -42.225 -45.186   9.868  1.00  0.00     0.148 HD
ENDBRANCH  13  14
ENDBRANCH  12  13
ENDBRANCH   2  12
BRANCH   1  23
HETATM   23  C   UNL     1     -40.482 -52.016  12.419  1.00  0.00     0.157 C 
BRANCH  23  24
HETATM   24  C   UNL     1     -39.535 -52.054  13.621  1.00  0.00     0.187 C 
BRANCH  24  25
HETATM   25  O   UNL     1     -38.728 -53.232  13.565  1.00  0.00    -0.394 OA
HETATM   26  C   UNL     1     -39.431 -54.359  14.082  1.00  0.00     0.201 C 
ENDBRANCH  24  25
ENDBRANCH  23  24
ENDBRANCH   1  23
TORSDOF 6
ENDMDL
MODEL 4
REMARK VINA RESULT:      -6.3      3.182      6.896
REMARK  6 active torsions:
REMARK  status: ('A' for Active; 'I' for Inactive)
REMARK    1  A    between atoms: O_2  and  C_3 
REMARK    2  A    between atoms: C_3  and  C_4 
REMARK    3  A    between atoms: C_4  and  N_5 
REMARK    4  A    between atoms: C_6  and  S_7 
REMARK    5  A    between atoms: S_7  and  C_8 
REMARK    6  A    between atoms: C_8  and  C_9 
ROOT
HETATM    1  N   UNL     1     -40.485 -51.987  13.115  1.00  0.00    -0.324 N 
HETATM    2  C   UNL     1     -40.971 -51.143  12.147  1.00  0.00     0.148 C 
HETATM    3  N   UNL     1     -42.216 -51.422  11.827  1.00  0.00    -0.335 N 
ATOM      4  HN  UNL     1     -42.796 -50.956  11.128  1.00  0.00     0.168 HD
HETATM    5  C   UNL     1     -42.569 -52.475  12.633  1.00  0.00     0.062 A 
HETATM    6  C   UNL     1     -43.766 -53.205  12.679  1.00  0.00     0.055 A 
HETATM    7  C   UNL     1     -43.885 -54.227  13.626  1.00  0.00     0.036 A 
HETATM    8 CL   UNL     1     -45.324 -55.171  13.677  1.00  0.00    -0.084 Cl
HETATM    9  C   UNL     1     -42.863 -54.498  14.534  1.00  0.00     0.026 A 
HETATM   10  C   UNL     1     -41.671 -53.769  14.509  1.00  0.00     0.034 A 
HETATM   11  C   UNL     1     -41.539 -52.792  13.514  1.00  0.00     0.063 A 
ENDROOT
BRANCH   2  12
HETATM   12  S   UNL     1     -40.051 -49.841  11.464  1.00  0.00    -0.087 SA
BRANCH  12  13
HETATM   13  C   UNL     1     -41.051 -48.393  11.908  1.00  0.00     0.153 C 
BRANCH  13  14
HETATM   14  C   UNL     1     -41.668 -47.761  10.687  1.00  0.00     0.084 C 
HETATM   15  N   UNL     1     -42.687 -48.291  10.057  1.00  0.00    -0.305 N 
HETATM   16  C   UNL     1     -43.017 -47.367   9.089  1.00  0.00     0.313 C 
ATOM     17  HN  UNL     1     -43.136 -49.188  10.242  1.00  0.00     0.171 HD
HETATM   18  O   UNL     1     -43.793 -47.528   8.163  1.00  0.00    -0.252 OA
HETATM   19  N   UNL     1     -42.275 -46.214   9.292  1.00  0.00    -0.171 NA
HETATM   20  N   UNL     1     -41.255 -46.545  10.181  1.00  0.00    -0.206 NA
HETATM   21  H   UNL     1     -42.061 -45.674   8.463  1.00  0.00     0.152 HD
HETATM   22  H   UNL     1     -40.960 -45.852  10.874  1.00  0.00     0.148 HD
ENDBRANCH  13  14
ENDBRANCH  12  13
ENDBRANCH   2  12
BRANCH   1  23
HETATM   23  C   UNL     1     -39.132 -52.096  13.632  1.00  0.00     0.157 C 
BRANCH  23  24
HETATM   24  C   UNL     1     -38.955 -51.421  14.995  1.00  0.00     0.187 C 
BRANCH  24  25
HETATM   25  O   UNL     1     -39.078 -50.004  14.853  1.00  0.00    -0.394 OA
HETATM   26  C   UNL     1     -37.801 -49.373  14.911  1.00  0.00     0.201 C 
ENDBRANCH  24  25
ENDBRANCH  23  24
ENDBRANCH   1  23
TORSDOF 6
ENDMDL
MODEL 5
REMARK VINA RESULT:      -6.1      3.596      6.112
REMARK  6 active torsions:
REMARK  status: ('A' for Active; 'I' for Inactive)
REMARK    1  A    between atoms: O_2  and  C_3 
REMARK    2  A    between atoms: C_3  and  C_4 
REMARK    3  A    between atoms: C_4  and  N_5 
REMARK    4  A    between atoms: C_6  and  S_7 
REMARK    5  A    between atoms: S_7  and  C_8 
REMARK    6  A    between atoms: C_8  and  C_9 
ROOT
HETATM    1  N   UNL     1     -40.048 -48.757  12.370  1.00  0.00    -0.324 N 
HETATM    2  C   UNL     1     -41.003 -48.566  11.402  1.00  0.00     0.148 C 
HETATM    3  N   UNL     1     -41.627 -49.683  11.095  1.00  0.00    -0.335 N 
ATOM      4  HN  UNL     1     -42.362 -49.811  10.400  1.00  0.00     0.168 HD
HETATM    5  C   UNL     1     -41.075 -50.640  11.911  1.00  0.00     0.062 A 
HETATM    6  C   UNL     1     -41.331 -52.018  11.971  1.00  0.00     0.055 A 
HETATM    7  C   UNL     1     -40.647 -52.778  12.924  1.00  0.00     0.036 A 
HETATM    8 CL   UNL     1     -40.903 -54.480  12.994  1.00  0.00    -0.084 Cl
HETATM    9  C   UNL     1     -39.760 -52.189  13.825  1.00  0.00     0.026 A 
HETATM   10  C   UNL     1     -39.508 -50.815  13.785  1.00  0.00     0.034 A 
HETATM   11  C   UNL     1     -40.150 -50.075  12.783  1.00  0.00     0.063 A 
ENDROOT
BRANCH   2  12
HETATM   12  S   UNL     1     -41.361 -47.019  10.705  1.00  0.00    -0.087 SA
BRANCH  12  13
HETATM   13  C   UNL     1     -43.126 -46.827  11.084  1.00  0.00     0.153 C 
BRANCH  13  14
HETATM   14  C   UNL     1     -43.985 -47.375   9.973  1.00  0.00     0.084 C 
HETATM   15  N   UNL     1     -45.284 -47.212   9.942  1.00  0.00    -0.305 N 
HETATM   16  C   UNL     1     -45.672 -47.747   8.732  1.00  0.00     0.313 C 
ATOM     17  HN  UNL     1     -45.877 -46.785  10.653  1.00  0.00     0.171 HD
HETATM   18  O   UNL     1     -46.814 -47.967   8.366  1.00  0.00    -0.252 OA
HETATM   19  N   UNL     1     -44.543 -48.061   7.992  1.00  0.00    -0.171 NA
HETATM   20  N   UNL     1     -43.464 -48.026   8.874  1.00  0.00    -0.206 NA
HETATM   21  H   UNL     1     -44.637 -48.836   7.348  1.00  0.00     0.152 HD
HETATM   22  H   UNL     1     -42.562 -47.678   8.536  1.00  0.00     0.148 HD
ENDBRANCH  13  14
ENDBRANCH  12  13
ENDBRANCH   2  12
BRANCH   1  23
HETATM   23  C   UNL     1     -39.062 -47.816  12.875  1.00  0.00     0.157 C 
BRANCH  23  24
HETATM   24  C   UNL     1     -39.522 -47.090  14.142  1.00  0.00     0.187 C 
BRANCH  24  25
HETATM   25  O   UNL     1     -40.059 -45.812  13.800  1.00  0.00    -0.394 OA
HETATM   26  C   UNL     1     -39.018 -44.868  13.559  1.00  0.00     0.201 C 
ENDBRANCH  24  25
ENDBRANCH  23  24
ENDBRANCH   1  23
TORSDOF 6
ENDMDL
MODEL 6
REMARK VINA RESULT:      -6.0      2.916      4.217
REMARK  6 active torsions:
REMARK  status: ('A' for Active; 'I' for Inactive)
REMARK    1  A    between atoms: O_2  and  C_3 
REMARK    2  A    between atoms: C_3  and  C_4 
REMARK    3  A    between atoms: C_4  and  N_5 
REMARK    4  A    between atoms: C_6  and  S_7 
REMARK    5  A    between atoms: S_7  and  C_8 
REMARK    6  A    between atoms: C_8  and  C_9 
ROOT
HETATM    1  N   UNL     1     -39.978 -49.114  12.295  1.00  0.00    -0.324 N 
HETATM    2  C   UNL     1     -40.761 -50.233  12.154  1.00  0.00     0.148 C 
HETATM    3  N   UNL     1     -41.860 -49.985  11.474  1.00  0.00    -0.335 N 
ATOM      4  HN  UNL     1     -42.609 -50.640  11.247  1.00  0.00     0.168 HD
HETATM    5  C   UNL     1     -41.783 -48.657  11.136  1.00  0.00     0.062 A 
HETATM    6  C   UNL     1     -42.708 -47.854  10.453  1.00  0.00     0.055 A 
HETATM    7  C   UNL     1     -42.374 -46.519  10.206  1.00  0.00     0.036 A 
HETATM    8 CL   UNL     1     -43.506 -45.495   9.410  1.00  0.00    -0.084 Cl
HETATM    9  C   UNL     1     -41.139 -45.997  10.589  1.00  0.00     0.026 A 
HETATM   10  C   UNL     1     -40.203 -46.790  11.258  1.00  0.00     0.034 A 
HETATM   11  C   UNL     1     -40.576 -48.107  11.556  1.00  0.00     0.063 A 
ENDROOT
BRANCH   2  12
HETATM   12  S   UNL     1     -40.319 -51.793  12.770  1.00  0.00    -0.087 SA
BRANCH  12  13
HETATM   13  C   UNL     1     -41.661 -52.135  13.943  1.00  0.00     0.153 C 
BRANCH  13  14
HETATM   14  C   UNL     1     -42.768 -52.924  13.292  1.00  0.00     0.084 C 
HETATM   15  N   UNL     1     -43.591 -53.679  13.975  1.00  0.00    -0.305 N 
HETATM   16  C   UNL     1     -44.507 -54.123  13.046  1.00  0.00     0.313 C 
ATOM     17  HN  UNL     1     -43.561 -53.891  14.972  1.00  0.00     0.171 HD
HETATM   18  O   UNL     1     -45.347 -54.992  13.209  1.00  0.00    -0.252 OA
HETATM   19  N   UNL     1     -44.292 -53.463  11.846  1.00  0.00    -0.171 NA
HETATM   20  N   UNL     1     -43.042 -52.856  11.941  1.00  0.00    -0.206 NA
HETATM   21  H   UNL     1     -44.537 -53.976  11.009  1.00  0.00     0.152 HD
HETATM   22  H   UNL     1     -42.903 -51.941  11.504  1.00  0.00     0.148 HD
ENDBRANCH  13  14
ENDBRANCH  12  13
ENDBRANCH   2  12
BRANCH   1  23
HETATM   23  C   UNL     1     -38.772 -48.941  13.086  1.00  0.00     0.157 C 
BRANCH  23  24
HETATM   24  C   UNL     1     -39.059 -48.562  14.542  1.00  0.00     0.187 C 
BRANCH  24  25
HETATM   25  O   UNL     1     -37.955 -48.935  15.367  1.00  0.00    -0.394 OA
HETATM   26  C   UNL     1     -37.331 -50.122  14.881  1.00  0.00     0.201 C 
ENDBRANCH  24  25
ENDBRANCH  23  24
ENDBRANCH   1  23
TORSDOF 6
ENDMDL
MODEL 7
REMARK VINA RESULT:      -6.0      3.447      5.087
REMARK  6 active torsions:
REMARK  status: ('A' for Active; 'I' for Inactive)
REMARK    1  A    between atoms: O_2  and  C_3 
REMARK    2  A    between atoms: C_3  and  C_4 
REMARK    3  A    between atoms: C_4  and  N_5 
REMARK    4  A    between atoms: C_6  and  S_7 
REMARK    5  A    between atoms: S_7  and  C_8 
REMARK    6  A    between atoms: C_8  and  C_9 
ROOT
HETATM    1  N   UNL     1     -39.964 -50.266  12.804  1.00  0.00    -0.324 N 
HETATM    2  C   UNL     1     -40.844 -51.166  12.256  1.00  0.00     0.148 C 
HETATM    3  N   UNL     1     -41.726 -50.581  11.473  1.00  0.00    -0.335 N 
ATOM      4  HN  UNL     1     -42.491 -51.023  10.964  1.00  0.00     0.168 HD
HETATM    5  C   UNL     1     -41.396 -49.249  11.491  1.00  0.00     0.062 A 
HETATM    6  C   UNL     1     -42.032 -48.163  10.871  1.00  0.00     0.055 A 
HETATM    7  C   UNL     1     -41.471 -46.891  11.023  1.00  0.00     0.036 A 
HETATM    8 CL   UNL     1     -42.253 -45.530  10.314  1.00  0.00    -0.084 Cl
HETATM    9  C   UNL     1     -40.288 -46.698  11.735  1.00  0.00     0.026 A 
HETATM   10  C   UNL     1     -39.637 -47.774  12.345  1.00  0.00     0.034 A 
HETATM   11  C   UNL     1     -40.244 -49.032  12.240  1.00  0.00     0.063 A 
ENDROOT
BRANCH   2  12
HETATM   12  S   UNL     1     -40.765 -52.875  12.539  1.00  0.00    -0.087 SA
BRANCH  12  13
HETATM   13  C   UNL     1     -41.853 -53.075  13.978  1.00  0.00     0.153 C 
BRANCH  13  14
HETATM   14  C   UNL     1     -43.138 -53.766  13.600  1.00  0.00     0.084 C 
HETATM   15  N   UNL     1     -43.896 -54.374  14.477  1.00  0.00    -0.305 N 
HETATM   16  C   UNL     1     -45.010 -54.764  13.764  1.00  0.00     0.313 C 
ATOM     17  HN  UNL     1     -43.706 -54.525  15.467  1.00  0.00     0.171 HD
HETATM   18  O   UNL     1     -45.891 -55.515  14.144  1.00  0.00    -0.252 OA
HETATM   19  N   UNL     1     -44.951 -54.210  12.495  1.00  0.00    -0.171 NA
HETATM   20  N   UNL     1     -43.647 -53.750  12.317  1.00  0.00    -0.206 NA
HETATM   21  H   UNL     1     -45.398 -54.741  11.758  1.00  0.00     0.152 HD
HETATM   22  H   UNL     1     -43.496 -52.887  11.788  1.00  0.00     0.148 HD
ENDBRANCH  13  14
ENDBRANCH  12  13
ENDBRANCH   2  12
BRANCH   1  23
HETATM   23  C   UNL     1     -38.945 -50.490  13.815  1.00  0.00     0.157 C 
BRANCH  23  24
HETATM   24  C   UNL     1     -37.521 -50.423  13.255  1.00  0.00     0.187 C 
BRANCH  24  25
HETATM   25  O   UNL     1     -37.441 -51.173  12.043  1.00  0.00    -0.394 OA
HETATM   26  C   UNL     1     -37.126 -50.328  10.938  1.00  0.00     0.201 C 
ENDBRANCH  24  25
ENDBRANCH  23  24
ENDBRANCH   1  23
TORSDOF 6
ENDMDL
MODEL 8
REMARK VINA RESULT:      -5.8      3.569      4.777
REMARK  6 active torsions:
REMARK  status: ('A' for Active; 'I' for Inactive)
REMARK    1  A    between atoms: O_2  and  C_3 
REMARK    2  A    between atoms: C_3  and  C_4 
REMARK    3  A    between atoms: C_4  and  N_5 
REMARK    4  A    between atoms: C_6  and  S_7 
REMARK    5  A    between atoms: S_7  and  C_8 
REMARK    6  A    between atoms: C_8  and  C_9 
ROOT
HETATM    1  N   UNL     1     -39.332 -47.557  13.004  1.00  0.00    -0.324 N 
HETATM    2  C   UNL     1     -39.560 -48.132  11.779  1.00  0.00     0.148 C 
HETATM    3  N   UNL     1     -39.998 -47.260  10.896  1.00  0.00    -0.335 N 
ATOM      4  HN  UNL     1     -40.255 -47.437   9.925  1.00  0.00     0.168 HD
HETATM    5  C   UNL     1     -40.037 -46.061  11.563  1.00  0.00     0.062 A 
HETATM    6  C   UNL     1     -40.473 -44.804  11.118  1.00  0.00     0.055 A 
HETATM    7  C   UNL     1     -40.381 -43.720  11.996  1.00  0.00     0.036 A 
HETATM    8 CL   UNL     1     -40.951 -42.174  11.497  1.00  0.00    -0.084 Cl
HETATM    9  C   UNL     1     -39.834 -43.862  13.271  1.00  0.00     0.026 A 
HETATM   10  C   UNL     1     -39.382 -45.105  13.721  1.00  0.00     0.034 A 
HETATM   11  C   UNL     1     -39.540 -46.195  12.856  1.00  0.00     0.063 A 
ENDROOT
BRANCH   2  12
HETATM   12  S   UNL     1     -39.261 -49.806  11.438  1.00  0.00    -0.087 SA
BRANCH  12  13
HETATM   13  C   UNL     1     -40.789 -50.594  12.021  1.00  0.00     0.153 C 
BRANCH  13  14
HETATM   14  C   UNL     1     -40.558 -52.043  12.367  1.00  0.00     0.084 C 
HETATM   15  N   UNL     1     -40.303 -52.445  13.587  1.00  0.00    -0.305 N 
HETATM   16  C   UNL     1     -40.275 -53.820  13.501  1.00  0.00     0.313 C 
ATOM     17  HN  UNL     1     -40.158 -51.868  14.416  1.00  0.00     0.171 HD
HETATM   18  O   UNL     1     -39.898 -54.596  14.363  1.00  0.00    -0.252 OA
HETATM   19  N   UNL     1     -40.695 -54.204  12.237  1.00  0.00    -0.171 NA
HETATM   20  N   UNL     1     -40.667 -53.061  11.441  1.00  0.00    -0.206 NA
HETATM   21  H   UNL     1     -40.304 -55.068  11.884  1.00  0.00     0.152 HD
HETATM   22  H   UNL     1     -41.390 -52.938  10.728  1.00  0.00     0.148 HD
ENDBRANCH  13  14
ENDBRANCH  12  13
ENDBRANCH   2  12
BRANCH   1  23
HETATM   23  C   UNL     1     -38.984 -48.198  14.261  1.00  0.00     0.157 C 
BRANCH  23  24
HETATM   24  C   UNL     1     -37.515 -48.625  14.328  1.00  0.00     0.187 C 
BRANCH  24  25
HETATM   25  O   UNL     1     -36.736 -47.589  14.927  1.00  0.00    -0.394 OA
HETATM   26  C   UNL     1     -36.269 -47.981  16.216  1.00  0.00     0.201 C 
ENDBRANCH  24  25
ENDBRANCH  23  24
ENDBRANCH   1  23
TORSDOF 6
ENDMDL
MODEL 9
REMARK VINA RESULT:      -5.8      7.210      8.354
REMARK  6 active torsions:
REMARK  status: ('A' for Active; 'I' for Inactive)
REMARK    1  A    between atoms: O_2  and  C_3 
REMARK    2  A    between atoms: C_3  and  C_4 
REMARK    3  A    between atoms: C_4  and  N_5 
REMARK    4  A    between atoms: C_6  and  S_7 
REMARK    5  A    between atoms: S_7  and  C_8 
REMARK    6  A    between atoms: C_8  and  C_9 
ROOT
HETATM    1  N   UNL     1     -44.467 -53.489  15.764  1.00  0.00    -0.324 N 
HETATM    2  C   UNL     1     -43.607 -54.295  15.060  1.00  0.00     0.148 C 
HETATM    3  N   UNL     1     -43.829 -54.241  13.764  1.00  0.00    -0.335 N 
ATOM      4  HN  UNL     1     -43.340 -54.754  13.031  1.00  0.00     0.168 HD
HETATM    5  C   UNL     1     -44.859 -53.347  13.611  1.00  0.00     0.062 A 
HETATM    6  C   UNL     1     -45.530 -52.947  12.446  1.00  0.00     0.055 A 
HETATM    7  C   UNL     1     -46.539 -51.986  12.557  1.00  0.00     0.036 A 
HETATM    8 CL   UNL     1     -47.413 -51.508  11.153  1.00  0.00    -0.084 Cl
HETATM    9  C   UNL     1     -46.853 -51.401  13.783  1.00  0.00     0.026 A 
HETATM   10  C   UNL     1     -46.182 -51.779  14.949  1.00  0.00     0.034 A 
HETATM   11  C   UNL     1     -45.219 -52.790  14.834  1.00  0.00     0.063 A 
ENDROOT
BRANCH   2  12
HETATM   12  S   UNL     1     -42.355 -55.236  15.803  1.00  0.00    -0.087 SA
BRANCH  12  13
HETATM   13  C   UNL     1     -40.861 -54.580  15.009  1.00  0.00     0.153 C 
BRANCH  13  14
HETATM   14  C   UNL     1     -39.614 -55.146  15.640  1.00  0.00     0.084 C 
HETATM   15  N   UNL     1     -39.585 -55.585  16.873  1.00  0.00    -0.305 N 
HETATM   16  C   UNL     1     -38.322 -56.116  17.024  1.00  0.00     0.313 C 
ATOM     17  HN  UNL     1     -40.332 -55.544  17.567  1.00  0.00     0.171 HD
HETATM   18  O   UNL     1     -37.803 -56.475  18.067  1.00  0.00    -0.252 OA
HETATM   19  N   UNL     1     -37.686 -56.129  15.793  1.00  0.00    -0.171 NA
HETATM   20  N   UNL     1     -38.431 -55.307  14.948  1.00  0.00    -0.206 NA
HETATM   21  H   UNL     1     -36.678 -56.041  15.814  1.00  0.00     0.152 HD
HETATM   22  H   UNL     1     -38.523 -55.567  13.963  1.00  0.00     0.148 HD
ENDBRANCH  13  14
ENDBRANCH  12  13
ENDBRANCH   2  12
BRANCH   1  23
HETATM   23  C   UNL     1     -44.638 -53.377  17.203  1.00  0.00     0.157 C 
BRANCH  23  24
HETATM   24  C   UNL     1     -45.864 -54.132  17.721  1.00  0.00     0.187 C 
BRANCH  24  25
HETATM   25  O   UNL     1     -45.448 -55.247  18.512  1.00  0.00    -0.394 OA
HETATM   26  C   UNL     1     -44.189 -54.993  19.131  1.00  0.00     0.201 C 
ENDBRANCH  24  25
ENDBRANCH  23  24
ENDBRANCH   1  23
TORSDOF 6
ENDMDL
