MODEL 1
REMARK VINA RESULT:      -6.5      0.000      0.000
REMARK  4 active torsions:
REMARK  status: ('A' for Active; 'I' for Inactive)
REMARK       I    between atoms: C_2  and  N_4 
REMARK    1  A    between atoms: C_8  and  C_10 
REMARK       I    between atoms: C_10  and  N_12 
REMARK    2  A    between atoms: N_12  and  C_13 
REMARK    3  A    between atoms: C_13  and  C_14 
REMARK    4  A    between atoms: C_14  and  C_15 
ROOT
HETATM    1  C   UNL     1     -42.080 -49.943  12.445  1.00  0.00     0.223 C 
HETATM    2  O   UNL     1     -42.405 -49.672  13.596  1.00  0.00    -0.273 OA
HETATM    3  N   UNL     1     -42.095 -51.231  11.954  1.00  0.00    -0.360 N 
HETATM    4  H   UNL     1     -41.910 -51.393  10.973  1.00  0.00     0.162 HD
ENDROOT
BRANCH   1   5
HETATM    5  C   UNL     1     -41.655 -48.887  11.431  1.00  0.00     0.096 C 
HETATM    6  C   UNL     1     -40.591 -47.943  12.007  1.00  0.00     0.017 C 
HETATM    7  C   UNL     1     -40.291 -46.789  11.049  1.00  0.00     0.021 C 
HETATM    8  C   UNL     1     -41.563 -46.055  10.634  1.00  0.00     0.126 C 
HETATM    9  N   UNL     1     -42.537 -46.992  10.088  1.00  0.00    -0.352 N 
HETATM   10  C   UNL     1     -43.366 -46.553   9.059  1.00  0.00     0.215 C 
HETATM   11  C   UNL     1     -42.890 -48.103  10.975  1.00  0.00     0.139 C 
HETATM   12  C   UNL     1     -44.221 -47.593   8.381  1.00  0.00     0.117 C 
HETATM   13  O   UNL     1     -43.349 -45.396   8.640  1.00  0.00    -0.274 OA
ENDBRANCH   1   5
BRANCH   3  14
HETATM   14  C   UNL     1     -42.526 -52.334  12.795  1.00  0.00     0.127 C 
BRANCH  14  15
HETATM   15  C   UNL     1     -43.762 -53.035  12.238  1.00  0.00     0.059 C 
BRANCH  15  16
HETATM   16  C   UNL     1     -44.960 -52.872  13.132  1.00  0.00    -0.041 A 
HETATM   17  C   UNL     1     -45.433 -51.610  13.499  1.00  0.00     0.010 A 
HETATM   18  C   UNL     1     -46.537 -51.505  14.339  1.00  0.00     0.018 A 
HETATM   19  C   UNL     1     -47.135 -52.671  14.789  1.00  0.00     0.087 A 
HETATM   20  N   UNL     1     -46.702 -53.908  14.462  1.00  0.00    -0.375 N 
HETATM   21  C   UNL     1     -45.626 -53.980  13.649  1.00  0.00     0.094 A 
ATOM     22  HN  UNL     1     -47.164 -54.746  14.813  1.00  0.00     0.164 HD
ENDBRANCH  15  16
ENDBRANCH  14  15
ENDBRANCH   3  14
TORSDOF 4
ENDMDL
MODEL 2
REMARK VINA RESULT:      -6.3      1.339      1.743
REMARK  4 active torsions:
REMARK  status: ('A' for Active; 'I' for Inactive)
REMARK       I    between atoms: C_2  and  N_4 
REMARK    1  A    between atoms: C_8  and  C_10 
REMARK       I    between atoms: C_10  and  N_12 
REMARK    2  A    between atoms: N_12  and  C_13 
REMARK    3  A    between atoms: C_13  and  C_14 
REMARK    4  A    between atoms: C_14  and  C_15 
ROOT
HETATM    1  C   UNL     1     -41.048 -49.523  11.792  1.00  0.00     0.223 C 
HETATM    2  O   UNL     1     -40.034 -50.094  12.179  1.00  0.00    -0.273 OA
HETATM    3  N   UNL     1     -42.314 -49.933  12.152  1.00  0.00    -0.360 N 
HETATM    4  H   UNL     1     -43.114 -49.375  11.885  1.00  0.00     0.162 HD
ENDROOT
BRANCH   1   5
HETATM    5  C   UNL     1     -41.016 -48.287  10.900  1.00  0.00     0.096 C 
HETATM    6  C   UNL     1     -40.054 -47.221  11.442  1.00  0.00     0.017 C 
HETATM    7  C   UNL     1     -40.151 -45.923  10.639  1.00  0.00     0.021 C 
HETATM    8  C   UNL     1     -41.589 -45.422  10.546  1.00  0.00     0.126 C 
HETATM    9  N   UNL     1     -42.460 -46.467  10.020  1.00  0.00    -0.352 N 
HETATM   10  C   UNL     1     -43.529 -46.086   9.214  1.00  0.00     0.215 C 
HETATM   11  C   UNL     1     -42.436 -47.725  10.769  1.00  0.00     0.139 C 
HETATM   12  C   UNL     1     -44.290 -47.190   8.525  1.00  0.00     0.117 C 
HETATM   13  O   UNL     1     -43.801 -44.908   8.981  1.00  0.00    -0.274 OA
ENDBRANCH   1   5
BRANCH   3  14
HETATM   14  C   UNL     1     -42.494 -51.069  13.040  1.00  0.00     0.127 C 
BRANCH  14  15
HETATM   15  C   UNL     1     -42.740 -52.367  12.274  1.00  0.00     0.059 C 
BRANCH  15  16
HETATM   16  C   UNL     1     -43.768 -53.235  12.945  1.00  0.00    -0.041 A 
HETATM   17  C   UNL     1     -43.400 -54.298  13.773  1.00  0.00     0.010 A 
HETATM   18  C   UNL     1     -44.384 -55.084  14.365  1.00  0.00     0.018 A 
HETATM   19  C   UNL     1     -45.711 -54.782  14.106  1.00  0.00     0.087 A 
HETATM   20  N   UNL     1     -46.105 -53.769  13.305  1.00  0.00    -0.375 N 
HETATM   21  C   UNL     1     -45.129 -53.024  12.742  1.00  0.00     0.094 A 
ATOM     22  HN  UNL     1     -47.092 -53.576  13.134  1.00  0.00     0.164 HD
ENDBRANCH  15  16
ENDBRANCH  14  15
ENDBRANCH   3  14
TORSDOF 4
ENDMDL
MODEL 3
REMARK VINA RESULT:      -6.1      1.917      2.581
REMARK  4 active torsions:
REMARK  status: ('A' for Active; 'I' for Inactive)
REMARK       I    between atoms: C_2  and  N_4 
REMARK    1  A    between atoms: C_8  and  C_10 
REMARK       I    between atoms: C_10  and  N_12 
REMARK    2  A    between atoms: N_12  and  C_13 
REMARK    3  A    between atoms: C_13  and  C_14 
REMARK    4  A    between atoms: C_14  and  C_15 
ROOT
HETATM    1  C   UNL     1     -42.066 -52.280  12.663  1.00  0.00     0.223 C 
HETATM    2  O   UNL     1     -41.876 -52.700  13.799  1.00  0.00    -0.273 OA
HETATM    3  N   UNL     1     -43.174 -52.627  11.919  1.00  0.00    -0.360 N 
HETATM    4  H   UNL     1     -43.335 -52.182  11.026  1.00  0.00     0.162 HD
ENDROOT
BRANCH   1   5
HETATM    5  C   UNL     1     -41.119 -51.309  11.966  1.00  0.00     0.096 C 
HETATM    6  C   UNL     1     -39.723 -51.324  12.602  1.00  0.00     0.017 C 
HETATM    7  C   UNL     1     -38.829 -50.234  12.011  1.00  0.00     0.021 C 
HETATM    8  C   UNL     1     -39.490 -48.860  12.082  1.00  0.00     0.126 C 
HETATM    9  N   UNL     1     -40.808 -48.897  11.460  1.00  0.00    -0.352 N 
HETATM   10  C   UNL     1     -41.248 -47.761  10.786  1.00  0.00     0.215 C 
HETATM   11  C   UNL     1     -41.722 -49.901  12.008  1.00  0.00     0.139 C 
HETATM   12  C   UNL     1     -42.520 -47.891   9.987  1.00  0.00     0.117 C 
HETATM   13  O   UNL     1     -40.599 -46.715  10.750  1.00  0.00    -0.274 OA
ENDBRANCH   1   5
BRANCH   3  14
HETATM   14  C   UNL     1     -44.186 -53.507  12.476  1.00  0.00     0.127 C 
BRANCH  14  15
HETATM   15  C   UNL     1     -45.548 -52.824  12.585  1.00  0.00     0.059 C 
BRANCH  15  16
HETATM   16  C   UNL     1     -45.962 -52.607  14.013  1.00  0.00    -0.041 A 
HETATM   17  C   UNL     1     -46.729 -51.502  14.393  1.00  0.00     0.010 A 
HETATM   18  C   UNL     1     -47.079 -51.333  15.729  1.00  0.00     0.018 A 
HETATM   19  C   UNL     1     -46.649 -52.278  16.647  1.00  0.00     0.087 A 
HETATM   20  N   UNL     1     -45.901 -53.353  16.319  1.00  0.00    -0.375 N 
HETATM   21  C   UNL     1     -45.572 -53.490  15.016  1.00  0.00     0.094 A 
ATOM     22  HN  UNL     1     -45.599 -54.028  17.021  1.00  0.00     0.164 HD
ENDBRANCH  15  16
ENDBRANCH  14  15
ENDBRANCH   3  14
TORSDOF 4
ENDMDL
MODEL 4
REMARK VINA RESULT:      -6.0      3.129      4.794
REMARK  4 active torsions:
REMARK  status: ('A' for Active; 'I' for Inactive)
REMARK       I    between atoms: C_2  and  N_4 
REMARK    1  A    between atoms: C_8  and  C_10 
REMARK       I    between atoms: C_10  and  N_12 
REMARK    2  A    between atoms: N_12  and  C_13 
REMARK    3  A    between atoms: C_13  and  C_14 
REMARK    4  A    between atoms: C_14  and  C_15 
ROOT
HETATM    1  C   UNL     1     -44.138 -53.356  12.472  1.00  0.00     0.223 C 
HETATM    2  O   UNL     1     -44.686 -54.451  12.538  1.00  0.00    -0.273 OA
HETATM    3  N   UNL     1     -44.844 -52.172  12.470  1.00  0.00    -0.360 N 
HETATM    4  H   UNL     1     -44.345 -51.293  12.510  1.00  0.00     0.162 HD
ENDROOT
BRANCH   1   5
HETATM    5  C   UNL     1     -42.623 -53.186  12.418  1.00  0.00     0.096 C 
HETATM    6  C   UNL     1     -41.911 -54.143  13.383  1.00  0.00     0.017 C 
HETATM    7  C   UNL     1     -40.410 -53.855  13.447  1.00  0.00     0.021 C 
HETATM    8  C   UNL     1     -40.129 -52.388  13.761  1.00  0.00     0.126 C 
HETATM    9  N   UNL     1     -40.822 -51.523  12.814  1.00  0.00    -0.352 N 
HETATM   10  C   UNL     1     -40.205 -50.331  12.441  1.00  0.00     0.215 C 
HETATM   11  C   UNL     1     -42.269 -51.729  12.733  1.00  0.00     0.139 C 
HETATM   12  C   UNL     1     -40.844 -49.555  11.317  1.00  0.00     0.117 C 
HETATM   13  O   UNL     1     -39.137 -49.955  12.924  1.00  0.00    -0.274 OA
ENDBRANCH   1   5
BRANCH   3  14
HETATM   14  C   UNL     1     -46.293 -52.181  12.567  1.00  0.00     0.127 C 
BRANCH  14  15
HETATM   15  C   UNL     1     -46.796 -51.366  13.757  1.00  0.00     0.059 C 
BRANCH  15  16
HETATM   16  C   UNL     1     -46.217 -51.844  15.059  1.00  0.00    -0.041 A 
HETATM   17  C   UNL     1     -45.434 -51.011  15.861  1.00  0.00     0.010 A 
HETATM   18  C   UNL     1     -44.907 -51.499  17.054  1.00  0.00     0.018 A 
HETATM   19  C   UNL     1     -45.180 -52.811  17.406  1.00  0.00     0.087 A 
HETATM   20  N   UNL     1     -45.926 -53.647  16.653  1.00  0.00    -0.375 N 
HETATM   21  C   UNL     1     -46.422 -53.149  15.499  1.00  0.00     0.094 A 
ATOM     22  HN  UNL     1     -46.105 -54.609  16.941  1.00  0.00     0.164 HD
ENDBRANCH  15  16
ENDBRANCH  14  15
ENDBRANCH   3  14
TORSDOF 4
ENDMDL
MODEL 5
REMARK VINA RESULT:      -5.9      2.696      3.485
REMARK  4 active torsions:
REMARK  status: ('A' for Active; 'I' for Inactive)
REMARK       I    between atoms: C_2  and  N_4 
REMARK    1  A    between atoms: C_8  and  C_10 
REMARK       I    between atoms: C_10  and  N_12 
REMARK    2  A    between atoms: N_12  and  C_13 
REMARK    3  A    between atoms: C_13  and  C_14 
REMARK    4  A    between atoms: C_14  and  C_15 
ROOT
HETATM    1  C   UNL     1     -41.699 -49.607  12.180  1.00  0.00     0.223 C 
HETATM    2  O   UNL     1     -41.849 -49.438  13.385  1.00  0.00    -0.273 OA
HETATM    3  N   UNL     1     -41.745 -50.854  11.595  1.00  0.00    -0.360 N 
HETATM    4  H   UNL     1     -41.710 -50.934  10.587  1.00  0.00     0.162 HD
ENDROOT
BRANCH   1   5
HETATM    5  C   UNL     1     -41.476 -48.459  11.201  1.00  0.00     0.096 C 
HETATM    6  C   UNL     1     -40.375 -47.506  11.685  1.00  0.00     0.017 C 
HETATM    7  C   UNL     1     -40.272 -46.272  10.788  1.00  0.00     0.021 C 
HETATM    8  C   UNL     1     -41.621 -45.576  10.626  1.00  0.00     0.126 C 
HETATM    9  N   UNL     1     -42.628 -46.521  10.159  1.00  0.00    -0.352 N 
HETATM   10  C   UNL     1     -43.621 -46.051   9.303  1.00  0.00     0.215 C 
HETATM   11  C   UNL     1     -42.797 -47.709  10.997  1.00  0.00     0.139 C 
HETATM   12  C   UNL     1     -44.528 -47.083   8.679  1.00  0.00     0.117 C 
HETATM   13  O   UNL     1     -43.715 -44.868   8.978  1.00  0.00    -0.274 OA
ENDBRANCH   1   5
BRANCH   3  14
HETATM   14  C   UNL     1     -41.999 -52.035  12.401  1.00  0.00     0.127 C 
BRANCH  14  15
HETATM   15  C   UNL     1     -40.875 -53.062  12.291  1.00  0.00     0.059 C 
BRANCH  15  16
HETATM   16  C   UNL     1     -40.684 -53.834  13.567  1.00  0.00    -0.041 A 
HETATM   17  C   UNL     1     -41.761 -54.148  14.400  1.00  0.00     0.010 A 
HETATM   18  C   UNL     1     -41.538 -54.854  15.579  1.00  0.00     0.018 A 
HETATM   19  C   UNL     1     -40.239 -55.223  15.889  1.00  0.00     0.087 A 
HETATM   20  N   UNL     1     -39.173 -54.930  15.114  1.00  0.00    -0.375 N 
HETATM   21  C   UNL     1     -39.418 -54.241  13.978  1.00  0.00     0.094 A 
ATOM     22  HN  UNL     1     -38.229 -55.215  15.373  1.00  0.00     0.164 HD
ENDBRANCH  15  16
ENDBRANCH  14  15
ENDBRANCH   3  14
TORSDOF 4
ENDMDL
MODEL 6
REMARK VINA RESULT:      -5.7      2.620      7.112
REMARK  4 active torsions:
REMARK  status: ('A' for Active; 'I' for Inactive)
REMARK       I    between atoms: C_2  and  N_4 
REMARK    1  A    between atoms: C_8  and  C_10 
REMARK       I    between atoms: C_10  and  N_12 
REMARK    2  A    between atoms: N_12  and  C_13 
REMARK    3  A    between atoms: C_13  and  C_14 
REMARK    4  A    between atoms: C_14  and  C_15 
ROOT
HETATM    1  C   UNL     1     -42.760 -49.777  12.585  1.00  0.00     0.223 C 
HETATM    2  O   UNL     1     -43.180 -48.684  12.952  1.00  0.00    -0.273 OA
HETATM    3  N   UNL     1     -41.822 -49.913  11.585  1.00  0.00    -0.360 N 
HETATM    4  H   UNL     1     -41.436 -50.826  11.383  1.00  0.00     0.162 HD
ENDROOT
BRANCH   1   5
HETATM    5  C   UNL     1     -43.205 -51.092  13.215  1.00  0.00     0.096 C 
HETATM    6  C   UNL     1     -42.675 -52.303  12.435  1.00  0.00     0.017 C 
HETATM    7  C   UNL     1     -43.259 -53.611  12.970  1.00  0.00     0.021 C 
HETATM    8  C   UNL     1     -44.784 -53.569  13.022  1.00  0.00     0.126 C 
HETATM    9  N   UNL     1     -45.236 -52.407  13.778  1.00  0.00    -0.352 N 
HETATM   10  C   UNL     1     -46.397 -52.530  14.537  1.00  0.00     0.215 C 
HETATM   11  C   UNL     1     -44.735 -51.120  13.291  1.00  0.00     0.139 C 
HETATM   12  C   UNL     1     -46.731 -51.385  15.461  1.00  0.00     0.117 C 
HETATM   13  O   UNL     1     -47.082 -53.552  14.545  1.00  0.00    -0.274 OA
ENDBRANCH   1   5
BRANCH   3  14
HETATM   14  C   UNL     1     -41.270 -48.740  10.930  1.00  0.00     0.127 C 
BRANCH  14  15
HETATM   15  C   UNL     1     -40.085 -48.155  11.694  1.00  0.00     0.059 C 
BRANCH  15  16
HETATM   16  C   UNL     1     -39.098 -49.212  12.105  1.00  0.00    -0.041 A 
HETATM   17  C   UNL     1     -38.984 -49.630  13.433  1.00  0.00     0.010 A 
HETATM   18  C   UNL     1     -38.048 -50.603  13.772  1.00  0.00     0.018 A 
HETATM   19  C   UNL     1     -37.251 -51.128  12.768  1.00  0.00     0.087 A 
HETATM   20  N   UNL     1     -37.326 -50.743  11.476  1.00  0.00    -0.375 N 
HETATM   21  C   UNL     1     -38.241 -49.795  11.175  1.00  0.00     0.094 A 
ATOM     22  HN  UNL     1     -36.722 -51.148  10.761  1.00  0.00     0.164 HD
ENDBRANCH  15  16
ENDBRANCH  14  15
ENDBRANCH   3  14
TORSDOF 4
ENDMDL
MODEL 7
REMARK VINA RESULT:      -5.6      4.580      6.422
REMARK  4 active torsions:
REMARK  status: ('A' for Active; 'I' for Inactive)
REMARK       I    between atoms: C_2  and  N_4 
REMARK    1  A    between atoms: C_8  and  C_10 
REMARK       I    between atoms: C_10  and  N_12 
REMARK    2  A    between atoms: N_12  and  C_13 
REMARK    3  A    between atoms: C_13  and  C_14 
REMARK    4  A    between atoms: C_14  and  C_15 
ROOT
HETATM    1  C   UNL     1     -38.574 -51.434  13.925  1.00  0.00     0.223 C 
HETATM    2  O   UNL     1     -37.975 -51.731  12.897  1.00  0.00    -0.273 OA
HETATM    3  N   UNL     1     -39.527 -52.253  14.491  1.00  0.00    -0.360 N 
HETATM    4  H   UNL     1     -39.925 -52.010  15.389  1.00  0.00     0.162 HD
ENDROOT
BRANCH   1   5
HETATM    5  C   UNL     1     -38.307 -50.148  14.701  1.00  0.00     0.096 C 
HETATM    6  C   UNL     1     -38.645 -48.904  13.869  1.00  0.00     0.017 C 
HETATM    7  C   UNL     1     -38.220 -47.621  14.586  1.00  0.00     0.021 C 
HETATM    8  C   UNL     1     -36.753 -47.667  15.003  1.00  0.00     0.126 C 
HETATM    9  N   UNL     1     -36.486 -48.862  15.795  1.00  0.00    -0.352 N 
HETATM   10  C   UNL     1     -35.545 -48.774  16.818  1.00  0.00     0.215 C 
HETATM   11  C   UNL     1     -36.841 -50.125  15.146  1.00  0.00     0.139 C 
HETATM   12  C   UNL     1     -35.433 -49.959  17.744  1.00  0.00     0.117 C 
HETATM   13  O   UNL     1     -34.891 -47.754  17.036  1.00  0.00    -0.274 OA
ENDBRANCH   1   5
BRANCH   3  14
HETATM   14  C   UNL     1     -39.848 -53.534  13.886  1.00  0.00     0.127 C 
BRANCH  14  15
HETATM   15  C   UNL     1     -40.995 -54.240  14.605  1.00  0.00     0.059 C 
BRANCH  15  16
HETATM   16  C   UNL     1     -42.310 -54.049  13.902  1.00  0.00    -0.041 A 
HETATM   17  C   UNL     1     -43.474 -54.683  14.342  1.00  0.00     0.010 A 
HETATM   18  C   UNL     1     -44.668 -54.487  13.654  1.00  0.00     0.018 A 
HETATM   19  C   UNL     1     -44.659 -53.660  12.543  1.00  0.00     0.087 A 
HETATM   20  N   UNL     1     -43.553 -53.037  12.083  1.00  0.00    -0.375 N 
HETATM   21  C   UNL     1     -42.407 -53.248  12.768  1.00  0.00     0.094 A 
ATOM     22  HN  UNL     1     -43.580 -52.437  11.259  1.00  0.00     0.164 HD
ENDBRANCH  15  16
ENDBRANCH  14  15
ENDBRANCH   3  14
TORSDOF 4
ENDMDL
MODEL 8
REMARK VINA RESULT:      -5.5      4.457      8.314
REMARK  4 active torsions:
REMARK  status: ('A' for Active; 'I' for Inactive)
REMARK       I    between atoms: C_2  and  N_4 
REMARK    1  A    between atoms: C_8  and  C_10 
REMARK       I    between atoms: C_10  and  N_12 
REMARK    2  A    between atoms: N_12  and  C_13 
REMARK    3  A    between atoms: C_13  and  C_14 
REMARK    4  A    between atoms: C_14  and  C_15 
ROOT
HETATM    1  C   UNL     1     -45.455 -54.249  14.357  1.00  0.00     0.223 C 
HETATM    2  O   UNL     1     -45.531 -55.435  14.051  1.00  0.00    -0.273 OA
HETATM    3  N   UNL     1     -44.545 -53.391  13.778  1.00  0.00    -0.360 N 
HETATM    4  H   UNL     1     -44.584 -52.403  13.992  1.00  0.00     0.162 HD
ENDROOT
BRANCH   1   5
HETATM    5  C   UNL     1     -46.374 -53.595  15.382  1.00  0.00     0.096 C 
HETATM    6  C   UNL     1     -46.645 -52.123  15.043  1.00  0.00     0.017 C 
HETATM    7  C   UNL     1     -47.428 -51.429  16.159  1.00  0.00     0.021 C 
HETATM    8  C   UNL     1     -46.753 -51.604  17.516  1.00  0.00     0.126 C 
HETATM    9  N   UNL     1     -46.524 -53.017  17.793  1.00  0.00    -0.352 N 
HETATM   10  C   UNL     1     -46.618 -53.450  19.113  1.00  0.00     0.215 C 
HETATM   11  C   UNL     1     -45.749 -53.728  16.775  1.00  0.00     0.139 C 
HETATM   12  C   UNL     1     -46.575 -54.939  19.346  1.00  0.00     0.117 C 
HETATM   13  O   UNL     1     -46.823 -52.682  20.053  1.00  0.00    -0.274 OA
ENDBRANCH   1   5
BRANCH   3  14
HETATM   14  C   UNL     1     -43.639 -53.867  12.747  1.00  0.00     0.127 C 
BRANCH  14  15
HETATM   15  C   UNL     1     -42.232 -54.114  13.286  1.00  0.00     0.059 C 
BRANCH  15  16
HETATM   16  C   UNL     1     -41.288 -52.996  12.943  1.00  0.00    -0.041 A 
HETATM   17  C   UNL     1     -40.192 -52.688  13.753  1.00  0.00     0.010 A 
HETATM   18  C   UNL     1     -39.350 -51.636  13.405  1.00  0.00     0.018 A 
HETATM   19  C   UNL     1     -39.633 -50.921  12.253  1.00  0.00     0.087 A 
HETATM   20  N   UNL     1     -40.686 -51.184  11.449  1.00  0.00    -0.375 N 
HETATM   21  C   UNL     1     -41.489 -52.208  11.813  1.00  0.00     0.094 A 
ATOM     22  HN  UNL     1     -40.867 -50.635  10.609  1.00  0.00     0.164 HD
ENDBRANCH  15  16
ENDBRANCH  14  15
ENDBRANCH   3  14
TORSDOF 4
ENDMDL
MODEL 9
REMARK VINA RESULT:      -5.5      2.200      7.606
REMARK  4 active torsions:
REMARK  status: ('A' for Active; 'I' for Inactive)
REMARK       I    between atoms: C_2  and  N_4 
REMARK    1  A    between atoms: C_8  and  C_10 
REMARK       I    between atoms: C_10  and  N_12 
REMARK    2  A    between atoms: N_12  and  C_13 
REMARK    3  A    between atoms: C_13  and  C_14 
REMARK    4  A    between atoms: C_14  and  C_15 
ROOT
HETATM    1  C   UNL     1     -42.839 -49.821  12.681  1.00  0.00     0.223 C 
HETATM    2  O   UNL     1     -43.217 -48.729  13.093  1.00  0.00    -0.273 OA
HETATM    3  N   UNL     1     -41.939 -49.952  11.647  1.00  0.00    -0.360 N 
HETATM    4  H   UNL     1     -41.585 -50.869  11.406  1.00  0.00     0.162 HD
ENDROOT
BRANCH   1   5
HETATM    5  C   UNL     1     -43.300 -51.142  13.287  1.00  0.00     0.096 C 
HETATM    6  C   UNL     1     -42.766 -52.345  12.498  1.00  0.00     0.017 C 
HETATM    7  C   UNL     1     -43.364 -53.657  13.008  1.00  0.00     0.021 C 
HETATM    8  C   UNL     1     -44.889 -53.607  13.041  1.00  0.00     0.126 C 
HETATM    9  N   UNL     1     -45.344 -52.453  13.807  1.00  0.00    -0.352 N 
HETATM   10  C   UNL     1     -46.515 -52.580  14.551  1.00  0.00     0.215 C 
HETATM   11  C   UNL     1     -44.831 -51.163  13.344  1.00  0.00     0.139 C 
HETATM   12  C   UNL     1     -46.855 -51.446  15.485  1.00  0.00     0.117 C 
HETATM   13  O   UNL     1     -47.206 -53.598  14.536  1.00  0.00    -0.274 OA
ENDBRANCH   1   5
BRANCH   3  14
HETATM   14  C   UNL     1     -41.377 -48.775  11.007  1.00  0.00     0.127 C 
BRANCH  14  15
HETATM   15  C   UNL     1     -40.056 -48.348  11.642  1.00  0.00     0.059 C 
BRANCH  15  16
HETATM   16  C   UNL     1     -39.958 -46.856  11.799  1.00  0.00    -0.041 A 
HETATM   17  C   UNL     1     -39.923 -46.004  10.692  1.00  0.00     0.010 A 
HETATM   18  C   UNL     1     -39.819 -44.629  10.883  1.00  0.00     0.018 A 
HETATM   19  C   UNL     1     -39.752 -44.148  12.181  1.00  0.00     0.087 A 
HETATM   20  N   UNL     1     -39.775 -44.940  13.274  1.00  0.00    -0.375 N 
HETATM   21  C   UNL     1     -39.873 -46.271  13.059  1.00  0.00     0.094 A 
ATOM     22  HN  UNL     1     -39.721 -44.554  14.216  1.00  0.00     0.164 HD
ENDBRANCH  15  16
ENDBRANCH  14  15
ENDBRANCH   3  14
TORSDOF 4
ENDMDL
