MODEL 1
REMARK VINA RESULT:      -6.2      0.000      0.000
REMARK  9 active torsions:
REMARK  status: ('A' for Active; 'I' for Inactive)
REMARK    1  A    between atoms: N_2  and  C_15 
REMARK    2  A    between atoms: C_6  and  N_9 
REMARK    3  A    between atoms: N_9  and  C_16 
REMARK    4  A    between atoms: C_10  and  C_16 
REMARK    5  A    between atoms: C_15  and  C_18 
REMARK    6  A    between atoms: C_18  and  C_23 
REMARK    7  A    between atoms: C_18  and  C_27 
REMARK    8  A    between atoms: C_21  and  O_25 
REMARK    9  A    between atoms: C_27  and  O_29 
ROOT
HETATM    1  C   UNL     1     -40.386 -47.477  11.267  1.00  0.00     0.122 A 
HETATM    2  N   UNL     1     -40.780 -49.563  11.806  1.00  0.00    -0.327 N 
HETATM    3  C   UNL     1     -41.293 -48.512  11.092  1.00  0.00     0.140 A 
HETATM    4  N   UNL     1     -39.324 -47.900  12.053  1.00  0.00    -0.346 N 
ATOM      5  HN  UNL     1     -38.512 -47.356  12.341  1.00  0.00     0.167 HD
HETATM    6  C   UNL     1     -40.681 -46.233  10.650  1.00  0.00     0.135 A 
HETATM    7  C   UNL     1     -39.590 -49.153  12.345  1.00  0.00     0.185 A 
HETATM    8  N   UNL     1     -42.422 -48.486  10.364  1.00  0.00    -0.336 N 
ATOM      9  HN  UNL     1     -43.054 -49.278  10.245  1.00  0.00     0.168 HD
HETATM   10  N   UNL     1     -41.832 -46.163   9.920  1.00  0.00    -0.337 N 
ATOM     11  HN  UNL     1     -42.105 -45.292   9.465  1.00  0.00     0.168 HD
HETATM   12  C   UNL     1     -42.604 -47.268   9.812  1.00  0.00     0.183 A 
ENDROOT
BRANCH   6  13
HETATM   13  N   UNL     1     -39.848 -45.117  10.797  1.00  0.00    -0.368 N 
HETATM   14  C   UNL     1     -39.124 -44.805   9.567  1.00  0.00     0.151 C 
BRANCH  13  15
HETATM   15  C   UNL     1     -40.392 -43.945  11.501  1.00  0.00     0.159 C 
BRANCH  15  16
HETATM   16  C   UNL     1     -40.240 -43.968  13.052  1.00  0.00     0.242 C 
HETATM   17  N   UNL     1     -41.278 -44.549  13.943  1.00  0.00     0.093 N 
HETATM   18  C   UNL     1     -40.736 -45.759  14.555  1.00  0.00     0.304 C 
HETATM   19  C   UNL     1     -42.604 -44.743  13.392  1.00  0.00     0.310 C 
HETATM   20  C   UNL     1     -39.267 -45.411  14.749  1.00  0.00     0.151 C 
HETATM   21  C   UNL     1     -38.955 -44.746  13.416  1.00  0.00     0.071 C 
BRANCH  20  22
HETATM   22  O   UNL     1     -38.426 -46.545  14.943  1.00  0.00    -0.389 OA
HETATM   23  C   UNL     1     -39.045 -47.544  15.747  1.00  0.00     0.202 C 
ENDBRANCH  20  22
ENDBRANCH  15  16
ENDBRANCH  13  15
ENDBRANCH   6  13
BRANCH   2  24
HETATM   24  C   UNL     1     -41.298 -50.916  11.851  1.00  0.00     0.138 C 
BRANCH  24  25
HETATM   25  C   UNL     1     -41.200 -51.645  13.219  1.00  0.00     0.034 C 
BRANCH  25  26
HETATM   26  C   UNL     1     -42.543 -51.597  14.005  1.00  0.00     0.019 C 
HETATM   27  C   UNL     1     -43.200 -52.953  14.270  1.00  0.00     0.172 C 
HETATM   28  O   UNL     1     -44.370 -53.017  13.456  1.00  0.00    -0.391 OA
HETATM   29  C   UNL     1     -44.863 -51.683  13.345  1.00  0.00     0.168 C 
HETATM   30  C   UNL     1     -43.641 -50.787  13.327  1.00  0.00     0.033 C 
ENDBRANCH  25  26
BRANCH  25  31
HETATM   31  C   UNL     1     -40.645 -53.059  12.935  1.00  0.00     0.170 C 
BRANCH  31  32
HETATM   32  O   UNL     1     -40.576 -53.375  11.559  1.00  0.00    -0.400 OA
HETATM   33  H   UNL     1     -39.838 -52.888  11.156  1.00  0.00     0.209 HD
ENDBRANCH  31  32
ENDBRANCH  25  31
ENDBRANCH  24  25
ENDBRANCH   2  24
TORSDOF 9
ENDMDL
MODEL 2
REMARK VINA RESULT:      -6.0      2.743      5.176
REMARK  9 active torsions:
REMARK  status: ('A' for Active; 'I' for Inactive)
REMARK    1  A    between atoms: N_2  and  C_15 
REMARK    2  A    between atoms: C_6  and  N_9 
REMARK    3  A    between atoms: N_9  and  C_16 
REMARK    4  A    between atoms: C_10  and  C_16 
REMARK    5  A    between atoms: C_15  and  C_18 
REMARK    6  A    between atoms: C_18  and  C_23 
REMARK    7  A    between atoms: C_18  and  C_27 
REMARK    8  A    between atoms: C_21  and  O_25 
REMARK    9  A    between atoms: C_27  and  O_29 
ROOT
HETATM    1  C   UNL     1     -41.625 -50.841  13.831  1.00  0.00     0.122 A 
HETATM    2  N   UNL     1     -43.003 -52.096  14.984  1.00  0.00    -0.327 N 
HETATM    3  C   UNL     1     -42.258 -52.076  13.834  1.00  0.00     0.140 A 
HETATM    4  N   UNL     1     -41.958 -50.132  14.976  1.00  0.00    -0.346 N 
ATOM      5  HN  UNL     1     -41.640 -49.201  15.242  1.00  0.00     0.167 HD
HETATM    6  C   UNL     1     -40.795 -50.530  12.722  1.00  0.00     0.135 A 
HETATM    7  C   UNL     1     -42.772 -50.918  15.644  1.00  0.00     0.185 A 
HETATM    8  N   UNL     1     -42.147 -53.045  12.910  1.00  0.00    -0.336 N 
ATOM      9  HN  UNL     1     -42.616 -53.950  12.959  1.00  0.00     0.168 HD
HETATM   10  N   UNL     1     -40.676 -51.483  11.753  1.00  0.00    -0.337 N 
ATOM     11  HN  UNL     1     -40.105 -51.313  10.925  1.00  0.00     0.168 HD
HETATM   12  C   UNL     1     -41.330 -52.657  11.909  1.00  0.00     0.183 A 
ENDROOT
BRANCH   6  13
HETATM   13  N   UNL     1     -40.143 -49.297  12.608  1.00  0.00    -0.368 N 
HETATM   14  C   UNL     1     -38.732 -49.384  12.978  1.00  0.00     0.151 C 
BRANCH  13  15
HETATM   15  C   UNL     1     -40.413 -48.487  11.409  1.00  0.00     0.159 C 
BRANCH  15  16
HETATM   16  C   UNL     1     -41.642 -47.535  11.509  1.00  0.00     0.242 C 
HETATM   17  N   UNL     1     -41.610 -46.143  10.989  1.00  0.00     0.093 N 
HETATM   18  C   UNL     1     -42.503 -46.060   9.836  1.00  0.00     0.304 C 
HETATM   19  C   UNL     1     -40.313 -45.547  10.740  1.00  0.00     0.310 C 
HETATM   20  C   UNL     1     -43.630 -47.012  10.213  1.00  0.00     0.151 C 
HETATM   21  C   UNL     1     -42.836 -48.183  10.774  1.00  0.00     0.071 C 
BRANCH  20  22
HETATM   22  O   UNL     1     -44.420 -47.437   9.105  1.00  0.00    -0.389 OA
HETATM   23  C   UNL     1     -43.629 -47.717   7.955  1.00  0.00     0.202 C 
ENDBRANCH  20  22
ENDBRANCH  15  16
ENDBRANCH  13  15
ENDBRANCH   6  13
BRANCH   2  24
HETATM   24  C   UNL     1     -43.760 -53.215  15.508  1.00  0.00     0.138 C 
BRANCH  24  25
HETATM   25  C   UNL     1     -45.260 -52.950  15.807  1.00  0.00     0.034 C 
BRANCH  25  26
HETATM   26  C   UNL     1     -46.156 -53.173  14.552  1.00  0.00     0.019 C 
HETATM   27  C   UNL     1     -45.591 -54.132  13.503  1.00  0.00     0.172 C 
HETATM   28  O   UNL     1     -45.233 -53.345  12.367  1.00  0.00    -0.391 OA
HETATM   29  C   UNL     1     -46.153 -52.256  12.320  1.00  0.00     0.168 C 
HETATM   30  C   UNL     1     -46.460 -51.907  13.763  1.00  0.00     0.033 C 
ENDBRANCH  25  26
BRANCH  25  31
HETATM   31  C   UNL     1     -45.628 -53.796  17.047  1.00  0.00     0.170 C 
BRANCH  31  32
HETATM   32  O   UNL     1     -44.640 -54.746  17.396  1.00  0.00    -0.400 OA
HETATM   33  H   UNL     1     -43.790 -54.292  17.517  1.00  0.00     0.209 HD
ENDBRANCH  31  32
ENDBRANCH  25  31
ENDBRANCH  24  25
ENDBRANCH   2  24
TORSDOF 9
ENDMDL
MODEL 3
REMARK VINA RESULT:      -6.0      2.389      7.473
REMARK  9 active torsions:
REMARK  status: ('A' for Active; 'I' for Inactive)
REMARK    1  A    between atoms: N_2  and  C_15 
REMARK    2  A    between atoms: C_6  and  N_9 
REMARK    3  A    between atoms: N_9  and  C_16 
REMARK    4  A    between atoms: C_10  and  C_16 
REMARK    5  A    between atoms: C_15  and  C_18 
REMARK    6  A    between atoms: C_18  and  C_23 
REMARK    7  A    between atoms: C_18  and  C_27 
REMARK    8  A    between atoms: C_21  and  O_25 
REMARK    9  A    between atoms: C_27  and  O_29 
ROOT
HETATM    1  C   UNL     1     -41.834 -49.157  11.619  1.00  0.00     0.122 A 
HETATM    2  N   UNL     1     -41.998 -47.018  11.175  1.00  0.00    -0.327 N 
HETATM    3  C   UNL     1     -41.082 -48.009  11.413  1.00  0.00     0.140 A 
HETATM    4  N   UNL     1     -43.184 -48.874  11.481  1.00  0.00    -0.346 N 
ATOM      5  HN  UNL     1     -43.965 -49.523  11.573  1.00  0.00     0.167 HD
HETATM    6  C   UNL     1     -41.134 -50.356  11.920  1.00  0.00     0.135 A 
HETATM    7  C   UNL     1     -43.242 -47.592  11.205  1.00  0.00     0.185 A 
HETATM    8  N   UNL     1     -39.743 -47.903  11.431  1.00  0.00    -0.336 N 
ATOM      9  HN  UNL     1     -39.226 -47.041  11.255  1.00  0.00     0.168 HD
HETATM   10  N   UNL     1     -39.772 -50.281  11.968  1.00  0.00    -0.337 N 
ATOM     11  HN  UNL     1     -39.215 -51.105  12.193  1.00  0.00     0.168 HD
HETATM   12  C   UNL     1     -39.175 -49.095  11.713  1.00  0.00     0.183 A 
ENDROOT
BRANCH   6  13
HETATM   13  N   UNL     1     -41.803 -51.558  12.181  1.00  0.00    -0.368 N 
HETATM   14  C   UNL     1     -40.925 -52.717  12.038  1.00  0.00     0.151 C 
BRANCH  13  15
HETATM   15  C   UNL     1     -42.695 -51.606  13.350  1.00  0.00     0.159 C 
BRANCH  15  16
HETATM   16  C   UNL     1     -44.120 -52.175  13.080  1.00  0.00     0.242 C 
HETATM   17  N   UNL     1     -44.585 -53.459  13.666  1.00  0.00     0.093 N 
HETATM   18  C   UNL     1     -45.630 -53.169  14.644  1.00  0.00     0.304 C 
HETATM   19  C   UNL     1     -43.579 -54.371  14.172  1.00  0.00     0.310 C 
HETATM   20  C   UNL     1     -46.351 -51.979  14.025  1.00  0.00     0.151 C 
HETATM   21  C   UNL     1     -45.167 -51.144  13.557  1.00  0.00     0.071 C 
BRANCH  20  22
HETATM   22  O   UNL     1     -47.141 -51.238  14.951  1.00  0.00    -0.389 OA
HETATM   23  C   UNL     1     -46.594 -51.259  16.265  1.00  0.00     0.202 C 
ENDBRANCH  20  22
ENDBRANCH  15  16
ENDBRANCH  13  15
ENDBRANCH   6  13
BRANCH   2  24
HETATM   24  C   UNL     1     -41.716 -45.650  10.789  1.00  0.00     0.138 C 
BRANCH  24  25
HETATM   25  C   UNL     1     -42.207 -44.545  11.762  1.00  0.00     0.034 C 
BRANCH  25  26
HETATM   26  C   UNL     1     -41.145 -44.209  12.851  1.00  0.00     0.019 C 
HETATM   27  C   UNL     1     -39.687 -44.367  12.418  1.00  0.00     0.172 C 
HETATM   28  O   UNL     1     -39.165 -45.499  13.112  1.00  0.00    -0.391 OA
HETATM   29  C   UNL     1     -39.835 -45.551  14.370  1.00  0.00     0.168 C 
HETATM   30  C   UNL     1     -41.245 -45.058  14.111  1.00  0.00     0.033 C 
ENDBRANCH  25  26
BRANCH  25  31
HETATM   31  C   UNL     1     -42.670 -43.354  10.893  1.00  0.00     0.170 C 
BRANCH  31  32
HETATM   32  O   UNL     1     -43.739 -43.671  10.022  1.00  0.00    -0.400 OA
HETATM   33  H   UNL     1     -43.817 -44.636   9.952  1.00  0.00     0.209 HD
ENDBRANCH  31  32
ENDBRANCH  25  31
ENDBRANCH  24  25
ENDBRANCH   2  24
TORSDOF 9
ENDMDL
MODEL 4
REMARK VINA RESULT:      -5.8      2.815      5.349
REMARK  9 active torsions:
REMARK  status: ('A' for Active; 'I' for Inactive)
REMARK    1  A    between atoms: N_2  and  C_15 
REMARK    2  A    between atoms: C_6  and  N_9 
REMARK    3  A    between atoms: N_9  and  C_16 
REMARK    4  A    between atoms: C_10  and  C_16 
REMARK    5  A    between atoms: C_15  and  C_18 
REMARK    6  A    between atoms: C_18  and  C_23 
REMARK    7  A    between atoms: C_18  and  C_27 
REMARK    8  A    between atoms: C_21  and  O_25 
REMARK    9  A    between atoms: C_27  and  O_29 
ROOT
HETATM    1  C   UNL     1     -42.588 -51.000  12.959  1.00  0.00     0.122 A 
HETATM    2  N   UNL     1     -44.209 -52.473  12.994  1.00  0.00    -0.327 N 
HETATM    3  C   UNL     1     -42.902 -52.308  12.619  1.00  0.00     0.140 A 
HETATM    4  N   UNL     1     -43.678 -50.388  13.558  1.00  0.00    -0.346 N 
ATOM      5  HN  UNL     1     -43.735 -49.433  13.912  1.00  0.00     0.167 HD
HETATM    6  C   UNL     1     -41.280 -50.538  12.654  1.00  0.00     0.135 A 
HETATM    7  C   UNL     1     -44.622 -51.301  13.571  1.00  0.00     0.185 A 
HETATM    8  N   UNL     1     -42.088 -53.217  12.055  1.00  0.00    -0.336 N 
ATOM      9  HN  UNL     1     -42.354 -54.178  11.837  1.00  0.00     0.168 HD
HETATM   10  N   UNL     1     -40.433 -51.428  12.060  1.00  0.00    -0.337 N 
ATOM     11  HN  UNL     1     -39.486 -51.150  11.804  1.00  0.00     0.168 HD
HETATM   12  C   UNL     1     -40.871 -52.684  11.817  1.00  0.00     0.183 A 
ENDROOT
BRANCH   6  13
HETATM   13  N   UNL     1     -40.878 -49.224  12.923  1.00  0.00    -0.368 N 
HETATM   14  C   UNL     1     -39.683 -49.176  13.763  1.00  0.00     0.151 C 
BRANCH  13  15
HETATM   15  C   UNL     1     -40.881 -48.264  11.808  1.00  0.00     0.159 C 
BRANCH  15  16
HETATM   16  C   UNL     1     -42.242 -47.553  11.543  1.00  0.00     0.242 C 
HETATM   17  N   UNL     1     -42.398 -46.078  11.642  1.00  0.00     0.093 N 
HETATM   18  C   UNL     1     -42.640 -45.549  10.302  1.00  0.00     0.304 C 
HETATM   19  C   UNL     1     -41.380 -45.341  12.363  1.00  0.00     0.310 C 
HETATM   20  C   UNL     1     -43.467 -46.648   9.649  1.00  0.00     0.151 C 
HETATM   21  C   UNL     1     -42.707 -47.884  10.107  1.00  0.00     0.071 C 
BRANCH  20  22
HETATM   22  O   UNL     1     -43.491 -46.583   8.226  1.00  0.00    -0.389 OA
HETATM   23  C   UNL     1     -43.475 -47.874   7.626  1.00  0.00     0.202 C 
ENDBRANCH  20  22
ENDBRANCH  15  16
ENDBRANCH  13  15
ENDBRANCH   6  13
BRANCH   2  24
HETATM   24  C   UNL     1     -44.975 -53.703  12.957  1.00  0.00     0.138 C 
BRANCH  24  25
HETATM   25  C   UNL     1     -44.978 -54.551  14.257  1.00  0.00     0.034 C 
BRANCH  25  26
HETATM   26  C   UNL     1     -43.769 -54.215  15.179  1.00  0.00     0.019 C 
HETATM   27  C   UNL     1     -42.709 -55.311  15.301  1.00  0.00     0.172 C 
HETATM   28  O   UNL     1     -42.803 -55.839  16.624  1.00  0.00    -0.391 OA
HETATM   29  C   UNL     1     -43.215 -54.762  17.463  1.00  0.00     0.168 C 
HETATM   30  C   UNL     1     -44.145 -53.909  16.623  1.00  0.00     0.033 C 
ENDBRANCH  25  26
BRANCH  25  31
HETATM   31  C   UNL     1     -46.373 -54.382  14.900  1.00  0.00     0.170 C 
BRANCH  31  32
HETATM   32  O   UNL     1     -47.279 -53.646  14.102  1.00  0.00    -0.400 OA
HETATM   33  H   UNL     1     -47.468 -54.146  13.291  1.00  0.00     0.209 HD
ENDBRANCH  31  32
ENDBRANCH  25  31
ENDBRANCH  24  25
ENDBRANCH   2  24
TORSDOF 9
ENDMDL
MODEL 5
REMARK VINA RESULT:      -5.8      2.137      2.783
REMARK  9 active torsions:
REMARK  status: ('A' for Active; 'I' for Inactive)
REMARK    1  A    between atoms: N_2  and  C_15 
REMARK    2  A    between atoms: C_6  and  N_9 
REMARK    3  A    between atoms: N_9  and  C_16 
REMARK    4  A    between atoms: C_10  and  C_16 
REMARK    5  A    between atoms: C_15  and  C_18 
REMARK    6  A    between atoms: C_18  and  C_23 
REMARK    7  A    between atoms: C_18  and  C_27 
REMARK    8  A    between atoms: C_21  and  O_25 
REMARK    9  A    between atoms: C_27  and  O_29 
ROOT
HETATM    1  C   UNL     1     -40.771 -47.671  11.580  1.00  0.00     0.122 A 
HETATM    2  N   UNL     1     -41.343 -49.735  12.043  1.00  0.00    -0.327 N 
HETATM    3  C   UNL     1     -41.663 -48.676  11.233  1.00  0.00     0.140 A 
HETATM    4  N   UNL     1     -39.905 -48.121  12.565  1.00  0.00    -0.346 N 
ATOM      5  HN  UNL     1     -39.147 -47.601  13.006  1.00  0.00     0.167 HD
HETATM    6  C   UNL     1     -40.891 -46.426  10.907  1.00  0.00     0.135 A 
HETATM    7  C   UNL     1     -40.270 -49.359  12.806  1.00  0.00     0.185 A 
HETATM    8  N   UNL     1     -42.622 -48.620  10.294  1.00  0.00    -0.336 N 
ATOM      9  HN  UNL     1     -43.247 -49.391  10.056  1.00  0.00     0.168 HD
HETATM   10  N   UNL     1     -41.869 -46.326   9.962  1.00  0.00    -0.337 N 
ATOM     11  HN  UNL     1     -42.013 -45.453   9.455  1.00  0.00     0.168 HD
HETATM   12  C   UNL     1     -42.645 -47.405   9.708  1.00  0.00     0.183 A 
ENDROOT
BRANCH   6  13
HETATM   13  N   UNL     1     -40.063 -45.339  11.211  1.00  0.00    -0.368 N 
HETATM   14  C   UNL     1     -39.393 -44.809  10.026  1.00  0.00     0.151 C 
BRANCH  13  15
HETATM   15  C   UNL     1     -40.589 -44.313  12.126  1.00  0.00     0.159 C 
BRANCH  15  16
HETATM   16  C   UNL     1     -40.586 -42.857  11.570  1.00  0.00     0.242 C 
HETATM   17  N   UNL     1     -41.835 -42.158  11.171  1.00  0.00     0.093 N 
HETATM   18  C   UNL     1     -42.076 -41.069  12.113  1.00  0.00     0.304 C 
HETATM   19  C   UNL     1     -43.013 -42.969  10.934  1.00  0.00     0.310 C 
HETATM   20  C   UNL     1     -40.669 -40.591  12.444  1.00  0.00     0.151 C 
HETATM   21  C   UNL     1     -39.953 -41.921  12.625  1.00  0.00     0.071 C 
BRANCH  20  22
HETATM   22  O   UNL     1     -40.589 -39.821  13.641  1.00  0.00    -0.389 OA
HETATM   23  C   UNL     1     -39.246 -39.655  14.086  1.00  0.00     0.202 C 
ENDBRANCH  20  22
ENDBRANCH  15  16
ENDBRANCH  13  15
ENDBRANCH   6  13
BRANCH   2  24
HETATM   24  C   UNL     1     -41.909 -51.068  11.992  1.00  0.00     0.138 C 
BRANCH  24  25
HETATM   25  C   UNL     1     -41.730 -51.940  13.264  1.00  0.00     0.034 C 
BRANCH  25  26
HETATM   26  C   UNL     1     -43.087 -52.499  13.787  1.00  0.00     0.019 C 
HETATM   27  C   UNL     1     -43.493 -53.865  13.232  1.00  0.00     0.172 C 
HETATM   28  O   UNL     1     -44.602 -53.650  12.361  1.00  0.00    -0.391 OA
HETATM   29  C   UNL     1     -45.326 -52.542  12.889  1.00  0.00     0.168 C 
HETATM   30  C   UNL     1     -44.289 -51.613  13.488  1.00  0.00     0.033 C 
ENDBRANCH  25  26
BRANCH  25  31
HETATM   31  C   UNL     1     -40.656 -53.001  12.934  1.00  0.00     0.170 C 
BRANCH  31  32
HETATM   32  O   UNL     1     -40.522 -53.259  11.550  1.00  0.00    -0.400 OA
HETATM   33  H   UNL     1     -41.283 -53.782  11.249  1.00  0.00     0.209 HD
ENDBRANCH  31  32
ENDBRANCH  25  31
ENDBRANCH  24  25
ENDBRANCH   2  24
TORSDOF 9
ENDMDL
MODEL 6
REMARK VINA RESULT:      -5.8      3.464      7.954
REMARK  9 active torsions:
REMARK  status: ('A' for Active; 'I' for Inactive)
REMARK    1  A    between atoms: N_2  and  C_15 
REMARK    2  A    between atoms: C_6  and  N_9 
REMARK    3  A    between atoms: N_9  and  C_16 
REMARK    4  A    between atoms: C_10  and  C_16 
REMARK    5  A    between atoms: C_15  and  C_18 
REMARK    6  A    between atoms: C_18  and  C_23 
REMARK    7  A    between atoms: C_18  and  C_27 
REMARK    8  A    between atoms: C_21  and  O_25 
REMARK    9  A    between atoms: C_27  and  O_29 
ROOT
HETATM    1  C   UNL     1     -42.827 -51.605  12.833  1.00  0.00     0.122 A 
HETATM    2  N   UNL     1     -41.648 -49.928  12.060  1.00  0.00    -0.327 N 
HETATM    3  C   UNL     1     -41.618 -51.287  12.231  1.00  0.00     0.140 A 
HETATM    4  N   UNL     1     -43.592 -50.460  12.999  1.00  0.00    -0.346 N 
ATOM      5  HN  UNL     1     -44.523 -50.392  13.409  1.00  0.00     0.167 HD
HETATM    6  C   UNL     1     -43.062 -52.967  13.158  1.00  0.00     0.135 A 
HETATM    7  C   UNL     1     -42.860 -49.483  12.516  1.00  0.00     0.185 A 
HETATM    8  N   UNL     1     -40.639 -52.139  11.881  1.00  0.00    -0.336 N 
ATOM      9  HN  UNL     1     -39.769 -51.866  11.421  1.00  0.00     0.168 HD
HETATM   10  N   UNL     1     -42.079 -53.857  12.837  1.00  0.00    -0.337 N 
ATOM     11  HN  UNL     1     -42.184 -54.847  13.058  1.00  0.00     0.168 HD
HETATM   12  C   UNL     1     -40.964 -53.404  12.221  1.00  0.00     0.183 A 
ENDROOT
BRANCH   6  13
HETATM   13  N   UNL     1     -44.235 -53.383  13.800  1.00  0.00    -0.368 N 
HETATM   14  C   UNL     1     -45.352 -53.521  12.868  1.00  0.00     0.151 C 
BRANCH  13  15
HETATM   15  C   UNL     1     -44.126 -54.467  14.790  1.00  0.00     0.159 C 
BRANCH  15  16
HETATM   16  C   UNL     1     -43.341 -54.108  16.088  1.00  0.00     0.242 C 
HETATM   17  N   UNL     1     -43.997 -54.054  17.421  1.00  0.00     0.093 N 
HETATM   18  C   UNL     1     -43.485 -55.155  18.232  1.00  0.00     0.304 C 
HETATM   19  C   UNL     1     -45.442 -53.954  17.455  1.00  0.00     0.310 C 
HETATM   20  C   UNL     1     -42.034 -55.261  17.782  1.00  0.00     0.151 C 
HETATM   21  C   UNL     1     -42.195 -55.128  16.275  1.00  0.00     0.071 C 
BRANCH  20  22
HETATM   22  O   UNL     1     -41.420 -56.505  18.105  1.00  0.00    -0.389 OA
HETATM   23  C   UNL     1     -40.548 -56.960  17.074  1.00  0.00     0.202 C 
ENDBRANCH  20  22
ENDBRANCH  15  16
ENDBRANCH  13  15
ENDBRANCH   6  13
BRANCH   2  24
HETATM   24  C   UNL     1     -40.665 -49.119  11.368  1.00  0.00     0.138 C 
BRANCH  24  25
HETATM   25  C   UNL     1     -39.766 -48.218  12.257  1.00  0.00     0.034 C 
BRANCH  25  26
HETATM   26  C   UNL     1     -38.344 -48.821  12.454  1.00  0.00     0.019 C 
HETATM   27  C   UNL     1     -37.894 -49.811  11.379  1.00  0.00     0.172 C 
HETATM   28  O   UNL     1     -37.873 -51.104  11.983  1.00  0.00    -0.391 OA
HETATM   29  C   UNL     1     -37.530 -50.907  13.353  1.00  0.00     0.168 C 
HETATM   30  C   UNL     1     -38.161 -49.589  13.756  1.00  0.00     0.033 C 
ENDBRANCH  25  26
BRANCH  25  31
HETATM   31  C   UNL     1     -39.810 -46.799  11.648  1.00  0.00     0.170 C 
BRANCH  31  32
HETATM   32  O   UNL     1     -40.386 -46.755  10.357  1.00  0.00    -0.400 OA
HETATM   33  H   UNL     1     -40.071 -45.961   9.894  1.00  0.00     0.209 HD
ENDBRANCH  31  32
ENDBRANCH  25  31
ENDBRANCH  24  25
ENDBRANCH   2  24
TORSDOF 9
ENDMDL
MODEL 7
REMARK VINA RESULT:      -5.7      1.043      2.060
REMARK  9 active torsions:
REMARK  status: ('A' for Active; 'I' for Inactive)
REMARK    1  A    between atoms: N_2  and  C_15 
REMARK    2  A    between atoms: C_6  and  N_9 
REMARK    3  A    between atoms: N_9  and  C_16 
REMARK    4  A    between atoms: C_10  and  C_16 
REMARK    5  A    between atoms: C_15  and  C_18 
REMARK    6  A    between atoms: C_18  and  C_23 
REMARK    7  A    between atoms: C_18  and  C_27 
REMARK    8  A    between atoms: C_21  and  O_25 
REMARK    9  A    between atoms: C_27  and  O_29 
ROOT
HETATM    1  C   UNL     1     -40.344 -47.491  11.281  1.00  0.00     0.122 A 
HETATM    2  N   UNL     1     -40.611 -49.613  11.754  1.00  0.00    -0.327 N 
HETATM    3  C   UNL     1     -41.176 -48.578  11.057  1.00  0.00     0.140 A 
HETATM    4  N   UNL     1     -39.274 -47.866  12.079  1.00  0.00    -0.346 N 
ATOM      5  HN  UNL     1     -38.506 -47.278  12.401  1.00  0.00     0.167 HD
HETATM    6  C   UNL     1     -40.707 -46.251  10.690  1.00  0.00     0.135 A 
HETATM    7  C   UNL     1     -39.462 -49.141  12.332  1.00  0.00     0.185 A 
HETATM    8  N   UNL     1     -42.289 -48.605  10.303  1.00  0.00    -0.336 N 
ATOM      9  HN  UNL     1     -42.865 -49.433  10.148  1.00  0.00     0.168 HD
HETATM   10  N   UNL     1     -41.844 -46.236   9.936  1.00  0.00    -0.337 N 
ATOM     11  HN  UNL     1     -42.165 -45.373   9.498  1.00  0.00     0.168 HD
HETATM   12  C   UNL     1     -42.539 -47.386   9.780  1.00  0.00     0.183 A 
ENDROOT
BRANCH   6  13
HETATM   13  N   UNL     1     -39.954 -45.088  10.887  1.00  0.00    -0.368 N 
HETATM   14  C   UNL     1     -39.241 -44.683   9.677  1.00  0.00     0.151 C 
BRANCH  13  15
HETATM   15  C   UNL     1     -40.582 -43.982  11.626  1.00  0.00     0.159 C 
BRANCH  15  16
HETATM   16  C   UNL     1     -40.406 -44.029  13.174  1.00  0.00     0.242 C 
HETATM   17  N   UNL     1     -41.392 -44.696  14.064  1.00  0.00     0.093 N 
HETATM   18  C   UNL     1     -40.764 -45.881  14.642  1.00  0.00     0.304 C 
HETATM   19  C   UNL     1     -42.711 -44.964  13.526  1.00  0.00     0.310 C 
HETATM   20  C   UNL     1     -39.318 -45.442  14.825  1.00  0.00     0.151 C 
HETATM   21  C   UNL     1     -39.069 -44.730  13.503  1.00  0.00     0.071 C 
BRANCH  20  22
HETATM   22  O   UNL     1     -38.403 -46.523  14.982  1.00  0.00    -0.389 OA
HETATM   23  C   UNL     1     -38.922 -47.553  15.818  1.00  0.00     0.202 C 
ENDBRANCH  20  22
ENDBRANCH  15  16
ENDBRANCH  13  15
ENDBRANCH   6  13
BRANCH   2  24
HETATM   24  C   UNL     1     -41.039 -50.998  11.751  1.00  0.00     0.138 C 
BRANCH  24  25
HETATM   25  C   UNL     1     -41.811 -51.482  13.007  1.00  0.00     0.034 C 
BRANCH  25  26
HETATM   26  C   UNL     1     -40.856 -52.058  14.096  1.00  0.00     0.019 C 
HETATM   27  C   UNL     1     -39.459 -52.444  13.608  1.00  0.00     0.172 C 
HETATM   28  O   UNL     1     -39.384 -53.869  13.642  1.00  0.00    -0.391 OA
HETATM   29  C   UNL     1     -40.207 -54.295  14.726  1.00  0.00     0.168 C 
HETATM   30  C   UNL     1     -41.367 -53.321  14.776  1.00  0.00     0.033 C 
ENDBRANCH  25  26
BRANCH  25  31
HETATM   31  C   UNL     1     -42.710 -50.311  13.462  1.00  0.00     0.170 C 
BRANCH  31  32
HETATM   32  O   UNL     1     -43.845 -50.117  12.641  1.00  0.00    -0.400 OA
HETATM   33  H   UNL     1     -43.570 -49.692  11.812  1.00  0.00     0.209 HD
ENDBRANCH  31  32
ENDBRANCH  25  31
ENDBRANCH  24  25
ENDBRANCH   2  24
TORSDOF 9
ENDMDL
MODEL 8
REMARK VINA RESULT:      -5.6      2.941      4.347
REMARK  9 active torsions:
REMARK  status: ('A' for Active; 'I' for Inactive)
REMARK    1  A    between atoms: N_2  and  C_15 
REMARK    2  A    between atoms: C_6  and  N_9 
REMARK    3  A    between atoms: N_9  and  C_16 
REMARK    4  A    between atoms: C_10  and  C_16 
REMARK    5  A    between atoms: C_15  and  C_18 
REMARK    6  A    between atoms: C_18  and  C_23 
REMARK    7  A    between atoms: C_18  and  C_27 
REMARK    8  A    between atoms: C_21  and  O_25 
REMARK    9  A    between atoms: C_27  and  O_29 
ROOT
HETATM    1  C   UNL     1     -40.427 -50.765  12.577  1.00  0.00     0.122 A 
HETATM    2  N   UNL     1     -42.369 -51.739  12.860  1.00  0.00    -0.327 N 
HETATM    3  C   UNL     1     -41.776 -50.653  12.271  1.00  0.00     0.140 A 
HETATM    4  N   UNL     1     -40.200 -51.915  13.318  1.00  0.00    -0.346 N 
ATOM      5  HN  UNL     1     -39.308 -52.253  13.677  1.00  0.00     0.167 HD
HETATM    6  C   UNL     1     -39.560 -49.742  12.109  1.00  0.00     0.135 A 
HETATM    7  C   UNL     1     -41.380 -52.475  13.456  1.00  0.00     0.185 A 
HETATM    8  N   UNL     1     -42.364 -49.691  11.539  1.00  0.00    -0.336 N 
ATOM      9  HN  UNL     1     -43.360 -49.656  11.320  1.00  0.00     0.168 HD
HETATM   10  N   UNL     1     -40.127 -48.736  11.381  1.00  0.00    -0.337 N 
ATOM     11  HN  UNL     1     -39.558 -47.967  11.030  1.00  0.00     0.168 HD
HETATM   12  C   UNL     1     -41.456 -48.779  11.134  1.00  0.00     0.183 A 
ENDROOT
BRANCH   6  13
HETATM   13  N   UNL     1     -38.190 -49.744  12.397  1.00  0.00    -0.368 N 
HETATM   14  C   UNL     1     -37.379 -49.997  11.208  1.00  0.00     0.151 C 
BRANCH  13  15
HETATM   15  C   UNL     1     -37.673 -48.684  13.277  1.00  0.00     0.159 C 
BRANCH  15  16
HETATM   16  C   UNL     1     -37.704 -49.007  14.801  1.00  0.00     0.242 C 
HETATM   17  N   UNL     1     -38.866 -48.664  15.661  1.00  0.00     0.093 N 
HETATM   18  C   UNL     1     -39.513 -49.904  16.081  1.00  0.00     0.304 C 
HETATM   19  C   UNL     1     -39.806 -47.681  15.160  1.00  0.00     0.310 C 
HETATM   20  C   UNL     1     -38.339 -50.860  16.241  1.00  0.00     0.151 C 
HETATM   21  C   UNL     1     -37.534 -50.531  14.991  1.00  0.00     0.071 C 
BRANCH  20  22
HETATM   22  O   UNL     1     -38.711 -52.236  16.240  1.00  0.00    -0.389 OA
HETATM   23  C   UNL     1     -39.880 -52.479  17.016  1.00  0.00     0.202 C 
ENDBRANCH  20  22
ENDBRANCH  15  16
ENDBRANCH  13  15
ENDBRANCH   6  13
BRANCH   2  24
HETATM   24  C   UNL     1     -43.756 -52.143  12.738  1.00  0.00     0.138 C 
BRANCH  24  25
HETATM   25  C   UNL     1     -44.479 -52.526  14.057  1.00  0.00     0.034 C 
BRANCH  25  26
HETATM   26  C   UNL     1     -45.348 -51.358  14.609  1.00  0.00     0.019 C 
HETATM   27  C   UNL     1     -45.008 -50.898  16.028  1.00  0.00     0.172 C 
HETATM   28  O   UNL     1     -46.086 -51.304  16.870  1.00  0.00    -0.391 OA
HETATM   29  C   UNL     1     -47.266 -51.257  16.071  1.00  0.00     0.168 C 
HETATM   30  C   UNL     1     -46.840 -51.659  14.673  1.00  0.00     0.033 C 
ENDBRANCH  25  26
BRANCH  25  31
HETATM   31  C   UNL     1     -45.233 -53.848  13.788  1.00  0.00     0.170 C 
BRANCH  31  32
HETATM   32  O   UNL     1     -44.858 -54.477  12.578  1.00  0.00    -0.400 OA
HETATM   33  H   UNL     1     -45.527 -55.142  12.345  1.00  0.00     0.209 HD
ENDBRANCH  31  32
ENDBRANCH  25  31
ENDBRANCH  24  25
ENDBRANCH   2  24
TORSDOF 9
ENDMDL
MODEL 9
REMARK VINA RESULT:      -5.5      2.699      5.039
REMARK  9 active torsions:
REMARK  status: ('A' for Active; 'I' for Inactive)
REMARK    1  A    between atoms: N_2  and  C_15 
REMARK    2  A    between atoms: C_6  and  N_9 
REMARK    3  A    between atoms: N_9  and  C_16 
REMARK    4  A    between atoms: C_10  and  C_16 
REMARK    5  A    between atoms: C_15  and  C_18 
REMARK    6  A    between atoms: C_18  and  C_23 
REMARK    7  A    between atoms: C_18  and  C_27 
REMARK    8  A    between atoms: C_21  and  O_25 
REMARK    9  A    between atoms: C_27  and  O_29 
ROOT
HETATM    1  C   UNL     1     -41.766 -51.010  13.639  1.00  0.00     0.122 A 
HETATM    2  N   UNL     1     -43.361 -52.361  14.293  1.00  0.00    -0.327 N 
HETATM    3  C   UNL     1     -42.375 -52.222  13.351  1.00  0.00     0.140 A 
HETATM    4  N   UNL     1     -42.353 -50.434  14.755  1.00  0.00    -0.346 N 
ATOM      5  HN  UNL     1     -42.108 -49.547  15.195  1.00  0.00     0.167 HD
HETATM    6  C   UNL     1     -40.707 -50.589  12.791  1.00  0.00     0.135 A 
HETATM    7  C   UNL     1     -43.292 -51.274  15.124  1.00  0.00     0.185 A 
HETATM    8  N   UNL     1     -42.053 -53.079  12.367  1.00  0.00    -0.336 N 
ATOM      9  HN  UNL     1     -42.515 -53.973  12.200  1.00  0.00     0.168 HD
HETATM   10  N   UNL     1     -40.367 -51.423  11.766  1.00  0.00    -0.337 N 
ATOM     11  HN  UNL     1     -39.624 -51.169  11.115  1.00  0.00     0.168 HD
HETATM   12  C   UNL     1     -41.032 -52.593  11.629  1.00  0.00     0.183 A 
ENDROOT
BRANCH   6  13
HETATM   13  N   UNL     1     -40.053 -49.365  12.975  1.00  0.00    -0.368 N 
HETATM   14  C   UNL     1     -38.744 -49.530  13.604  1.00  0.00     0.151 C 
BRANCH  13  15
HETATM   15  C   UNL     1     -40.082 -48.399  11.865  1.00  0.00     0.159 C 
BRANCH  15  16
HETATM   16  C   UNL     1     -41.224 -47.340  11.931  1.00  0.00     0.242 C 
HETATM   17  N   UNL     1     -40.954 -45.896  12.159  1.00  0.00     0.093 N 
HETATM   18  C   UNL     1     -41.277 -45.168  10.935  1.00  0.00     0.304 C 
HETATM   19  C   UNL     1     -39.662 -45.532  12.706  1.00  0.00     0.310 C 
HETATM   20  C   UNL     1     -42.473 -45.935  10.391  1.00  0.00     0.151 C 
HETATM   21  C   UNL     1     -42.008 -47.369  10.600  1.00  0.00     0.071 C 
BRANCH  20  22
HETATM   22  O   UNL     1     -42.731 -45.698   9.009  1.00  0.00    -0.389 OA
HETATM   23  C   UNL     1     -43.730 -46.568   8.489  1.00  0.00     0.202 C 
ENDBRANCH  20  22
ENDBRANCH  15  16
ENDBRANCH  13  15
ENDBRANCH   6  13
BRANCH   2  24
HETATM   24  C   UNL     1     -44.211 -53.517  14.495  1.00  0.00     0.138 C 
BRANCH  24  25
HETATM   25  C   UNL     1     -45.669 -53.398  13.976  1.00  0.00     0.034 C 
BRANCH  25  26
HETATM   26  C   UNL     1     -46.660 -52.979  15.103  1.00  0.00     0.019 C 
HETATM   27  C   UNL     1     -47.030 -51.496  15.136  1.00  0.00     0.172 C 
HETATM   28  O   UNL     1     -46.413 -50.937  16.296  1.00  0.00    -0.391 OA
HETATM   29  C   UNL     1     -46.379 -51.971  17.277  1.00  0.00     0.168 C 
HETATM   30  C   UNL     1     -46.164 -53.263  16.514  1.00  0.00     0.033 C 
ENDBRANCH  25  26
BRANCH  25  31
HETATM   31  C   UNL     1     -45.632 -52.467  12.743  1.00  0.00     0.170 C 
BRANCH  31  32
HETATM   32  O   UNL     1     -46.638 -52.750  11.790  1.00  0.00    -0.400 OA
HETATM   33  H   UNL     1     -46.988 -53.641  11.951  1.00  0.00     0.209 HD
ENDBRANCH  31  32
ENDBRANCH  25  31
ENDBRANCH  24  25
ENDBRANCH   2  24
TORSDOF 9
ENDMDL
