MODEL 1
REMARK VINA RESULT:      -6.7      0.000      0.000
REMARK  7 active torsions:
REMARK  status: ('A' for Active; 'I' for Inactive)
REMARK    1  A    between atoms: N_10  and  C_11 
REMARK    2  A    between atoms: C_11  and  C_12 
REMARK    3  A    between atoms: C_12  and  O_13 
REMARK    4  A    between atoms: C_12  and  C_14 
REMARK    5  A    between atoms: C_14  and  O_15 
REMARK    6  A    between atoms: O_15  and  C_16 
REMARK    7  A    between atoms: C_16  and  C_17 
ROOT
HETATM    1  C   UNL     1     -41.738 -49.803  12.470  1.00  0.00     0.183 C 
ENDROOT
BRANCH   1   2
HETATM    2  N   UNL     1     -41.610 -51.245  12.626  1.00  0.00    -0.284 N 
HETATM    3  N   UNL     1     -40.376 -51.815  12.533  1.00  0.00    -0.308 N 
HETATM    4  C   UNL     1     -40.558 -53.069  12.961  1.00  0.00     0.122 A 
ATOM      5  HN  UNL     1     -39.509 -51.383  12.210  1.00  0.00     0.186 HD
HETATM    6  C   UNL     1     -41.889 -53.306  13.306  1.00  0.00     0.032 A 
HETATM    7  C   UNL     1     -42.591 -54.429  13.846  1.00  0.00     0.122 A 
HETATM    8  C   UNL     1     -42.557 -52.135  13.052  1.00  0.00     0.133 A 
HETATM    9  N   UNL     1     -43.862 -54.350  14.107  1.00  0.00    -0.306 N 
HETATM   10  N   UNL     1     -44.549 -53.153  13.838  1.00  0.00    -0.261 N 
ATOM     11  HN  UNL     1     -44.357 -55.149  14.502  1.00  0.00     0.186 HD
HETATM   12  C   UNL     1     -45.950 -53.131  14.210  1.00  0.00     0.181 C 
HETATM   13  C   UNL     1     -43.964 -51.987  13.289  1.00  0.00     0.290 A 
HETATM   14  O   UNL     1     -44.593 -50.962  13.047  1.00  0.00    -0.264 OA
ENDBRANCH   1   2
BRANCH   1  15
HETATM   15  C   UNL     1     -40.794 -49.169  11.426  1.00  0.00     0.161 C 
BRANCH  15  16
HETATM   16  O   UNL     1     -40.561 -50.030  10.306  1.00  0.00    -0.392 OA
HETATM   17  H   UNL     1     -41.173 -49.720   9.599  1.00  0.00     0.210 HD
ENDBRANCH  15  16
BRANCH  15  18
HETATM   18  C   UNL     1     -41.278 -47.796  10.951  1.00  0.00     0.201 C 
BRANCH  18  19
HETATM   19  O   UNL     1     -42.001 -47.982   9.740  1.00  0.00    -0.384 OA
BRANCH  19  20
HETATM   20  C   UNL     1     -42.947 -46.943   9.503  1.00  0.00     0.209 C 
BRANCH  20  21
HETATM   21  C   UNL     1     -44.209 -47.548   8.950  1.00  0.00     0.004 A 
HETATM   22  C   UNL     1     -45.405 -47.579   9.684  1.00  0.00     0.012 A 
HETATM   23  C   UNL     1     -46.553 -48.172   9.149  1.00  0.00     0.001 A 
HETATM   24  C   UNL     1     -46.514 -48.750   7.881  1.00  0.00     0.003 A 
HETATM   25  C   UNL     1     -45.328 -48.739   7.149  1.00  0.00     0.043 A 
HETATM   26  C   UNL     1     -44.191 -48.146   7.689  1.00  0.00     0.124 A 
HETATM   27  F   UNL     1     -43.058 -48.154   6.971  1.00  0.00    -0.205 F 
ENDBRANCH  20  21
ENDBRANCH  19  20
ENDBRANCH  18  19
ENDBRANCH  15  18
ENDBRANCH   1  15
TORSDOF 7
ENDMDL
MODEL 2
REMARK VINA RESULT:      -6.6      4.142      6.636
REMARK  7 active torsions:
REMARK  status: ('A' for Active; 'I' for Inactive)
REMARK    1  A    between atoms: N_10  and  C_11 
REMARK    2  A    between atoms: C_11  and  C_12 
REMARK    3  A    between atoms: C_12  and  O_13 
REMARK    4  A    between atoms: C_12  and  C_14 
REMARK    5  A    between atoms: C_14  and  O_15 
REMARK    6  A    between atoms: O_15  and  C_16 
REMARK    7  A    between atoms: C_16  and  C_17 
ROOT
HETATM    1  C   UNL     1     -40.979 -52.989  12.713  1.00  0.00     0.183 C 
ENDROOT
BRANCH   1   2
HETATM    2  N   UNL     1     -40.320 -51.749  12.331  1.00  0.00    -0.284 N 
HETATM    3  N   UNL     1     -40.751 -51.083  11.222  1.00  0.00    -0.308 N 
HETATM    4  C   UNL     1     -40.134 -49.899  11.287  1.00  0.00     0.122 A 
ATOM      5  HN  UNL     1     -41.397 -51.414  10.505  1.00  0.00     0.186 HD
HETATM    6  C   UNL     1     -39.308 -49.810  12.408  1.00  0.00     0.032 A 
HETATM    7  C   UNL     1     -38.484 -48.777  12.957  1.00  0.00     0.122 A 
HETATM    8  C   UNL     1     -39.412 -51.020  13.048  1.00  0.00     0.133 A 
HETATM    9  N   UNL     1     -37.834 -48.972  14.065  1.00  0.00    -0.306 N 
HETATM   10  N   UNL     1     -37.934 -50.213  14.717  1.00  0.00    -0.261 N 
ATOM     11  HN  UNL     1     -37.256 -48.229  14.460  1.00  0.00     0.186 HD
HETATM   12  C   UNL     1     -37.223 -50.327  15.975  1.00  0.00     0.181 C 
HETATM   13  C   UNL     1     -38.702 -51.310  14.259  1.00  0.00     0.290 A 
HETATM   14  O   UNL     1     -38.755 -52.391  14.839  1.00  0.00    -0.264 OA
ENDBRANCH   1   2
BRANCH   1  15
HETATM   15  C   UNL     1     -42.519 -52.916  12.800  1.00  0.00     0.161 C 
BRANCH  15  16
HETATM   16  O   UNL     1     -43.128 -52.689  11.524  1.00  0.00    -0.392 OA
HETATM   17  H   UNL     1     -43.038 -53.537  11.031  1.00  0.00     0.210 HD
ENDBRANCH  15  16
BRANCH  15  18
HETATM   18  C   UNL     1     -43.130 -54.148  13.471  1.00  0.00     0.201 C 
BRANCH  18  19
HETATM   19  O   UNL     1     -44.296 -54.512  12.741  1.00  0.00    -0.384 OA
BRANCH  19  20
HETATM   20  C   UNL     1     -45.380 -54.883  13.588  1.00  0.00     0.209 C 
BRANCH  20  21
HETATM   21  C   UNL     1     -45.905 -53.653  14.278  1.00  0.00     0.004 A 
HETATM   22  C   UNL     1     -46.040 -53.580  15.673  1.00  0.00     0.012 A 
HETATM   23  C   UNL     1     -46.555 -52.430  16.278  1.00  0.00     0.001 A 
HETATM   24  C   UNL     1     -46.954 -51.347  15.495  1.00  0.00     0.003 A 
HETATM   25  C   UNL     1     -46.839 -51.415  14.108  1.00  0.00     0.043 A 
HETATM   26  C   UNL     1     -46.324 -52.562  13.515  1.00  0.00     0.124 A 
HETATM   27  F   UNL     1     -46.231 -52.610  12.177  1.00  0.00    -0.205 F 
ENDBRANCH  20  21
ENDBRANCH  19  20
ENDBRANCH  18  19
ENDBRANCH  15  18
ENDBRANCH   1  15
TORSDOF 7
ENDMDL
MODEL 3
REMARK VINA RESULT:      -6.5      3.939      6.521
REMARK  7 active torsions:
REMARK  status: ('A' for Active; 'I' for Inactive)
REMARK    1  A    between atoms: N_10  and  C_11 
REMARK    2  A    between atoms: C_11  and  C_12 
REMARK    3  A    between atoms: C_12  and  O_13 
REMARK    4  A    between atoms: C_12  and  C_14 
REMARK    5  A    between atoms: C_14  and  O_15 
REMARK    6  A    between atoms: O_15  and  C_16 
REMARK    7  A    between atoms: C_16  and  C_17 
ROOT
HETATM    1  C   UNL     1     -39.891 -51.640  12.913  1.00  0.00     0.183 C 
ENDROOT
BRANCH   1   2
HETATM    2  N   UNL     1     -40.057 -50.396  12.175  1.00  0.00    -0.284 N 
HETATM    3  N   UNL     1     -40.753 -50.409  11.003  1.00  0.00    -0.308 N 
HETATM    4  C   UNL     1     -40.937 -49.116  10.714  1.00  0.00     0.122 A 
ATOM      5  HN  UNL     1     -41.063 -51.221  10.468  1.00  0.00     0.186 HD
HETATM    6  C   UNL     1     -40.355 -48.287  11.674  1.00  0.00     0.032 A 
HETATM    7  C   UNL     1     -40.300 -46.870  11.861  1.00  0.00     0.122 A 
HETATM    8  C   UNL     1     -39.763 -49.125  12.585  1.00  0.00     0.133 A 
HETATM    9  N   UNL     1     -39.697 -46.365  12.896  1.00  0.00    -0.306 N 
HETATM   10  N   UNL     1     -39.084 -47.222  13.826  1.00  0.00    -0.261 N 
ATOM     11  HN  UNL     1     -39.670 -45.354  13.034  1.00  0.00     0.186 HD
HETATM   12  C   UNL     1     -38.484 -46.581  14.979  1.00  0.00     0.181 C 
HETATM   13  C   UNL     1     -39.059 -48.635  13.734  1.00  0.00     0.290 A 
HETATM   14  O   UNL     1     -38.498 -49.358  14.551  1.00  0.00    -0.264 OA
ENDBRANCH   1   2
BRANCH   1  15
HETATM   15  C   UNL     1     -40.925 -52.739  12.590  1.00  0.00     0.161 C 
BRANCH  15  16
HETATM   16  O   UNL     1     -40.624 -53.432  11.374  1.00  0.00    -0.392 OA
HETATM   17  H   UNL     1     -40.068 -54.201  11.636  1.00  0.00     0.210 HD
ENDBRANCH  15  16
BRANCH  15  18
HETATM   18  C   UNL     1     -41.106 -53.734  13.740  1.00  0.00     0.201 C 
BRANCH  18  19
HETATM   19  O   UNL     1     -42.075 -53.198  14.633  1.00  0.00    -0.384 OA
BRANCH  19  20
HETATM   20  C   UNL     1     -43.279 -53.960  14.656  1.00  0.00     0.209 C 
BRANCH  20  21
HETATM   21  C   UNL     1     -44.433 -53.061  14.299  1.00  0.00     0.004 A 
HETATM   22  C   UNL     1     -45.095 -52.281  15.260  1.00  0.00     0.012 A 
HETATM   23  C   UNL     1     -46.179 -51.477  14.899  1.00  0.00     0.001 A 
HETATM   24  C   UNL     1     -46.621 -51.452  13.577  1.00  0.00     0.003 A 
HETATM   25  C   UNL     1     -45.981 -52.234  12.617  1.00  0.00     0.043 A 
HETATM   26  C   UNL     1     -44.902 -53.031  12.986  1.00  0.00     0.124 A 
HETATM   27  F   UNL     1     -44.306 -53.783  12.048  1.00  0.00    -0.205 F 
ENDBRANCH  20  21
ENDBRANCH  19  20
ENDBRANCH  18  19
ENDBRANCH  15  18
ENDBRANCH   1  15
TORSDOF 7
ENDMDL
MODEL 4
REMARK VINA RESULT:      -6.5      3.179      6.303
REMARK  7 active torsions:
REMARK  status: ('A' for Active; 'I' for Inactive)
REMARK    1  A    between atoms: N_10  and  C_11 
REMARK    2  A    between atoms: C_11  and  C_12 
REMARK    3  A    between atoms: C_12  and  O_13 
REMARK    4  A    between atoms: C_12  and  C_14 
REMARK    5  A    between atoms: C_14  and  O_15 
REMARK    6  A    between atoms: O_15  and  C_16 
REMARK    7  A    between atoms: C_16  and  C_17 
ROOT
HETATM    1  C   UNL     1     -42.085 -50.081  12.714  1.00  0.00     0.183 C 
ENDROOT
BRANCH   1   2
HETATM    2  N   UNL     1     -41.227 -48.924  12.500  1.00  0.00    -0.284 N 
HETATM    3  N   UNL     1     -39.973 -48.921  13.035  1.00  0.00    -0.308 N 
HETATM    4  C   UNL     1     -39.374 -47.870  12.466  1.00  0.00     0.122 A 
ATOM      5  HN  UNL     1     -39.582 -49.573  13.716  1.00  0.00     0.186 HD
HETATM    6  C   UNL     1     -40.232 -47.199  11.593  1.00  0.00     0.032 A 
HETATM    7  C   UNL     1     -40.084 -46.074  10.723  1.00  0.00     0.122 A 
HETATM    8  C   UNL     1     -41.429 -47.869  11.655  1.00  0.00     0.133 A 
HETATM    9  N   UNL     1     -41.075 -45.680   9.979  1.00  0.00    -0.306 N 
HETATM   10  N   UNL     1     -42.303 -46.360  10.048  1.00  0.00    -0.261 N 
ATOM     11  HN  UNL     1     -40.963 -44.884   9.351  1.00  0.00     0.186 HD
HETATM   12  C   UNL     1     -43.337 -45.892   9.146  1.00  0.00     0.181 C 
HETATM   13  C   UNL     1     -42.570 -47.471  10.884  1.00  0.00     0.290 A 
HETATM   14  O   UNL     1     -43.660 -48.033  10.938  1.00  0.00    -0.264 OA
ENDBRANCH   1   2
BRANCH   1  15
HETATM   15  C   UNL     1     -41.590 -51.394  12.071  1.00  0.00     0.161 C 
BRANCH  15  16
HETATM   16  O   UNL     1     -40.524 -51.179  11.141  1.00  0.00    -0.392 OA
HETATM   17  H   UNL     1     -39.726 -50.993  11.689  1.00  0.00     0.210 HD
ENDBRANCH  15  16
BRANCH  15  18
HETATM   18  C   UNL     1     -41.189 -52.444  13.110  1.00  0.00     0.201 C 
BRANCH  18  19
HETATM   19  O   UNL     1     -41.964 -52.220  14.282  1.00  0.00    -0.384 OA
BRANCH  19  20
HETATM   20  C   UNL     1     -42.968 -53.212  14.473  1.00  0.00     0.209 C 
BRANCH  20  21
HETATM   21  C   UNL     1     -44.310 -52.623  14.131  1.00  0.00     0.004 A 
HETATM   22  C   UNL     1     -45.028 -51.828  15.039  1.00  0.00     0.012 A 
HETATM   23  C   UNL     1     -46.283 -51.316  14.698  1.00  0.00     0.001 A 
HETATM   24  C   UNL     1     -46.840 -51.604  13.452  1.00  0.00     0.003 A 
HETATM   25  C   UNL     1     -46.144 -52.405  12.549  1.00  0.00     0.043 A 
HETATM   26  C   UNL     1     -44.894 -52.909  12.897  1.00  0.00     0.124 A 
HETATM   27  F   UNL     1     -44.245 -53.685  12.016  1.00  0.00    -0.205 F 
ENDBRANCH  20  21
ENDBRANCH  19  20
ENDBRANCH  18  19
ENDBRANCH  15  18
ENDBRANCH   1  15
TORSDOF 7
ENDMDL
MODEL 5
REMARK VINA RESULT:      -6.5      4.566      6.383
REMARK  7 active torsions:
REMARK  status: ('A' for Active; 'I' for Inactive)
REMARK    1  A    between atoms: N_10  and  C_11 
REMARK    2  A    between atoms: C_11  and  C_12 
REMARK    3  A    between atoms: C_12  and  O_13 
REMARK    4  A    between atoms: C_12  and  C_14 
REMARK    5  A    between atoms: C_14  and  O_15 
REMARK    6  A    between atoms: O_15  and  C_16 
REMARK    7  A    between atoms: C_16  and  C_17 
ROOT
HETATM    1  C   UNL     1     -41.366 -50.942  12.148  1.00  0.00     0.183 C 
ENDROOT
BRANCH   1   2
HETATM    2  N   UNL     1     -39.999 -50.501  12.376  1.00  0.00    -0.284 N 
HETATM    3  N   UNL     1     -39.125 -50.481  11.330  1.00  0.00    -0.308 N 
HETATM    4  C   UNL     1     -38.066 -49.811  11.796  1.00  0.00     0.122 A 
ATOM      5  HN  UNL     1     -39.251 -50.885  10.401  1.00  0.00     0.186 HD
HETATM    6  C   UNL     1     -38.248 -49.422  13.124  1.00  0.00     0.032 A 
HETATM    7  C   UNL     1     -37.466 -48.667  14.055  1.00  0.00     0.122 A 
HETATM    8  C   UNL     1     -39.479 -49.905  13.491  1.00  0.00     0.133 A 
HETATM    9  N   UNL     1     -37.916 -48.426  15.250  1.00  0.00    -0.306 N 
HETATM   10  N   UNL     1     -39.173 -48.927  15.630  1.00  0.00    -0.261 N 
ATOM     11  HN  UNL     1     -37.361 -47.878  15.908  1.00  0.00     0.186 HD
HETATM   12  C   UNL     1     -39.624 -48.565  16.959  1.00  0.00     0.181 C 
HETATM   13  C   UNL     1     -40.023 -49.699  14.802  1.00  0.00     0.290 A 
HETATM   14  O   UNL     1     -41.108 -50.140  15.167  1.00  0.00    -0.264 OA
ENDBRANCH   1   2
BRANCH   1  15
HETATM   15  C   UNL     1     -41.559 -52.471  12.062  1.00  0.00     0.161 C 
BRANCH  15  16
HETATM   16  O   UNL     1     -40.490 -53.118  11.364  1.00  0.00    -0.392 OA
HETATM   17  H   UNL     1     -39.843 -52.407  11.148  1.00  0.00     0.210 HD
ENDBRANCH  15  16
BRANCH  15  18
HETATM   18  C   UNL     1     -41.768 -53.116  13.435  1.00  0.00     0.201 C 
BRANCH  18  19
HETATM   19  O   UNL     1     -42.823 -54.063  13.317  1.00  0.00    -0.384 OA
BRANCH  19  20
HETATM   20  C   UNL     1     -43.884 -53.600  12.486  1.00  0.00     0.209 C 
BRANCH  20  21
HETATM   21  C   UNL     1     -45.016 -53.125  13.357  1.00  0.00     0.004 A 
HETATM   22  C   UNL     1     -45.263 -51.762  13.581  1.00  0.00     0.012 A 
HETATM   23  C   UNL     1     -46.307 -51.356  14.417  1.00  0.00     0.001 A 
HETATM   24  C   UNL     1     -47.108 -52.308  15.047  1.00  0.00     0.003 A 
HETATM   25  C   UNL     1     -46.863 -53.664  14.844  1.00  0.00     0.043 A 
HETATM   26  C   UNL     1     -45.821 -54.059  14.010  1.00  0.00     0.124 A 
HETATM   27  F   UNL     1     -45.597 -55.370  13.836  1.00  0.00    -0.205 F 
ENDBRANCH  20  21
ENDBRANCH  19  20
ENDBRANCH  18  19
ENDBRANCH  15  18
ENDBRANCH   1  15
TORSDOF 7
ENDMDL
MODEL 6
REMARK VINA RESULT:      -6.4      4.230      7.319
REMARK  7 active torsions:
REMARK  status: ('A' for Active; 'I' for Inactive)
REMARK    1  A    between atoms: N_10  and  C_11 
REMARK    2  A    between atoms: C_11  and  C_12 
REMARK    3  A    between atoms: C_12  and  O_13 
REMARK    4  A    between atoms: C_12  and  C_14 
REMARK    5  A    between atoms: C_14  and  O_15 
REMARK    6  A    between atoms: O_15  and  C_16 
REMARK    7  A    between atoms: C_16  and  C_17 
ROOT
HETATM    1  C   UNL     1     -41.515 -48.971  11.963  1.00  0.00     0.183 C 
ENDROOT
BRANCH   1   2
HETATM    2  N   UNL     1     -40.802 -47.729  11.705  1.00  0.00    -0.284 N 
HETATM    3  N   UNL     1     -40.870 -47.172  10.462  1.00  0.00    -0.308 N 
HETATM    4  C   UNL     1     -40.340 -45.954  10.617  1.00  0.00     0.122 A 
ATOM      5  HN  UNL     1     -41.241 -47.590   9.609  1.00  0.00     0.186 HD
HETATM    6  C   UNL     1     -39.922 -45.738  11.931  1.00  0.00     0.032 A 
HETATM    7  C   UNL     1     -39.348 -44.624  12.621  1.00  0.00     0.122 A 
HETATM    8  C   UNL     1     -40.194 -46.901  12.607  1.00  0.00     0.133 A 
HETATM    9  N   UNL     1     -39.085 -44.700  13.892  1.00  0.00    -0.306 N 
HETATM   10  N   UNL     1     -39.356 -45.894  14.583  1.00  0.00    -0.261 N 
ATOM     11  HN  UNL     1     -38.686 -43.901  14.384  1.00  0.00     0.186 HD
HETATM   12  C   UNL     1     -39.086 -45.875  16.008  1.00  0.00     0.181 C 
HETATM   13  C   UNL     1     -39.905 -47.062  14.002  1.00  0.00     0.290 A 
HETATM   14  O   UNL     1     -40.112 -48.098  14.627  1.00  0.00    -0.264 OA
ENDBRANCH   1   2
BRANCH   1  15
HETATM   15  C   UNL     1     -40.827 -50.247  11.433  1.00  0.00     0.161 C 
BRANCH  15  16
HETATM   16  O   UNL     1     -40.126 -50.020  10.206  1.00  0.00    -0.392 OA
HETATM   17  H   UNL     1     -39.169 -50.108  10.426  1.00  0.00     0.210 HD
ENDBRANCH  15  16
BRANCH  15  18
HETATM   18  C   UNL     1     -39.899 -50.889  12.468  1.00  0.00     0.201 C 
BRANCH  18  19
HETATM   19  O   UNL     1     -40.084 -52.298  12.407  1.00  0.00    -0.384 OA
BRANCH  19  20
HETATM   20  C   UNL     1     -41.393 -52.661  11.975  1.00  0.00     0.209 C 
BRANCH  20  21
HETATM   21  C   UNL     1     -42.058 -53.470  13.055  1.00  0.00     0.004 A 
HETATM   22  C   UNL     1     -41.341 -53.999  14.140  1.00  0.00     0.012 A 
HETATM   23  C   UNL     1     -41.986 -54.768  15.112  1.00  0.00     0.001 A 
HETATM   24  C   UNL     1     -43.352 -55.027  15.005  1.00  0.00     0.003 A 
HETATM   25  C   UNL     1     -44.071 -54.521  13.925  1.00  0.00     0.043 A 
HETATM   26  C   UNL     1     -43.421 -53.755  12.962  1.00  0.00     0.124 A 
HETATM   27  F   UNL     1     -44.131 -53.285  11.925  1.00  0.00    -0.205 F 
ENDBRANCH  20  21
ENDBRANCH  19  20
ENDBRANCH  18  19
ENDBRANCH  15  18
ENDBRANCH   1  15
TORSDOF 7
ENDMDL
MODEL 7
REMARK VINA RESULT:      -6.4      3.793      7.414
REMARK  7 active torsions:
REMARK  status: ('A' for Active; 'I' for Inactive)
REMARK    1  A    between atoms: N_10  and  C_11 
REMARK    2  A    between atoms: C_11  and  C_12 
REMARK    3  A    between atoms: C_12  and  O_13 
REMARK    4  A    between atoms: C_12  and  C_14 
REMARK    5  A    between atoms: C_14  and  O_15 
REMARK    6  A    between atoms: O_15  and  C_16 
REMARK    7  A    between atoms: C_16  and  C_17 
ROOT
HETATM    1  C   UNL     1     -41.824 -49.559  12.030  1.00  0.00     0.183 C 
ENDROOT
BRANCH   1   2
HETATM    2  N   UNL     1     -41.838 -48.327  11.256  1.00  0.00    -0.284 N 
HETATM    3  N   UNL     1     -42.717 -48.205  10.221  1.00  0.00    -0.308 N 
HETATM    4  C   UNL     1     -42.658 -46.912   9.888  1.00  0.00     0.122 A 
ATOM      5  HN  UNL     1     -43.289 -48.936   9.796  1.00  0.00     0.186 HD
HETATM    6  C   UNL     1     -41.745 -46.217  10.682  1.00  0.00     0.032 A 
HETATM    7  C   UNL     1     -41.345 -44.847  10.770  1.00  0.00     0.122 A 
HETATM    8  C   UNL     1     -41.202 -47.149  11.531  1.00  0.00     0.133 A 
HETATM    9  N   UNL     1     -40.471 -44.471  11.656  1.00  0.00    -0.306 N 
HETATM   10  N   UNL     1     -39.908 -45.425  12.521  1.00  0.00    -0.261 N 
ATOM     11  HN  UNL     1     -40.196 -43.490  11.724  1.00  0.00     0.186 HD
HETATM   12  C   UNL     1     -38.985 -44.913  13.514  1.00  0.00     0.181 C 
HETATM   13  C   UNL     1     -40.214 -46.807  12.513  1.00  0.00     0.290 A 
HETATM   14  O   UNL     1     -39.691 -47.622  13.267  1.00  0.00    -0.264 OA
ENDBRANCH   1   2
BRANCH   1  15
HETATM   15  C   UNL     1     -40.853 -50.646  11.520  1.00  0.00     0.161 C 
BRANCH  15  16
HETATM   16  O   UNL     1     -40.110 -50.219  10.374  1.00  0.00    -0.392 OA
HETATM   17  H   UNL     1     -39.721 -49.348  10.617  1.00  0.00     0.210 HD
ENDBRANCH  15  16
BRANCH  15  18
HETATM   18  C   UNL     1     -39.907 -51.150  12.612  1.00  0.00     0.201 C 
BRANCH  18  19
HETATM   19  O   UNL     1     -40.637 -52.040  13.449  1.00  0.00    -0.384 OA
BRANCH  19  20
HETATM   20  C   UNL     1     -40.861 -53.307  12.837  1.00  0.00     0.209 C 
BRANCH  20  21
HETATM   21  C   UNL     1     -42.215 -53.818  13.249  1.00  0.00     0.004 A 
HETATM   22  C   UNL     1     -43.383 -53.487  12.544  1.00  0.00     0.012 A 
HETATM   23  C   UNL     1     -44.628 -53.957  12.969  1.00  0.00     0.001 A 
HETATM   24  C   UNL     1     -44.721 -54.753  14.110  1.00  0.00     0.003 A 
HETATM   25  C   UNL     1     -43.571 -55.076  14.827  1.00  0.00     0.043 A 
HETATM   26  C   UNL     1     -42.335 -54.603  14.396  1.00  0.00     0.124 A 
HETATM   27  F   UNL     1     -41.241 -54.918  15.106  1.00  0.00    -0.205 F 
ENDBRANCH  20  21
ENDBRANCH  19  20
ENDBRANCH  18  19
ENDBRANCH  15  18
ENDBRANCH   1  15
TORSDOF 7
ENDMDL
MODEL 8
REMARK VINA RESULT:      -6.3      3.481      6.936
REMARK  7 active torsions:
REMARK  status: ('A' for Active; 'I' for Inactive)
REMARK    1  A    between atoms: N_10  and  C_11 
REMARK    2  A    between atoms: C_11  and  C_12 
REMARK    3  A    between atoms: C_12  and  O_13 
REMARK    4  A    between atoms: C_12  and  C_14 
REMARK    5  A    between atoms: C_14  and  O_15 
REMARK    6  A    between atoms: O_15  and  C_16 
REMARK    7  A    between atoms: C_16  and  C_17 
ROOT
HETATM    1  C   UNL     1     -41.279 -48.366  11.610  1.00  0.00     0.183 C 
ENDROOT
BRANCH   1   2
HETATM    2  N   UNL     1     -41.955 -47.576  10.592  1.00  0.00    -0.284 N 
HETATM    3  N   UNL     1     -42.445 -48.202   9.484  1.00  0.00    -0.308 N 
HETATM    4  C   UNL     1     -43.202 -47.274   8.889  1.00  0.00     0.122 A 
ATOM      5  HN  UNL     1     -42.273 -49.160   9.179  1.00  0.00     0.186 HD
HETATM    6  C   UNL     1     -43.185 -46.068   9.591  1.00  0.00     0.032 A 
HETATM    7  C   UNL     1     -43.839 -44.808   9.418  1.00  0.00     0.122 A 
HETATM    8  C   UNL     1     -42.351 -46.269  10.662  1.00  0.00     0.133 A 
HETATM    9  N   UNL     1     -43.656 -43.847  10.274  1.00  0.00    -0.306 N 
HETATM   10  N   UNL     1     -42.795 -44.049  11.366  1.00  0.00    -0.261 N 
ATOM     11  HN  UNL     1     -44.132 -42.952  10.154  1.00  0.00     0.186 HD
HETATM   12  C   UNL     1     -42.690 -42.947  12.302  1.00  0.00     0.181 C 
HETATM   13  C   UNL     1     -42.083 -45.244  11.628  1.00  0.00     0.290 A 
HETATM   14  O   UNL     1     -41.322 -45.386  12.580  1.00  0.00    -0.264 OA
ENDBRANCH   1   2
BRANCH   1  15
HETATM   15  C   UNL     1     -41.171 -49.876  11.306  1.00  0.00     0.161 C 
BRANCH  15  16
HETATM   16  O   UNL     1     -40.127 -50.172  10.373  1.00  0.00    -0.392 OA
HETATM   17  H   UNL     1     -39.646 -50.946  10.747  1.00  0.00     0.210 HD
ENDBRANCH  15  16
BRANCH  15  18
HETATM   18  C   UNL     1     -41.010 -50.721  12.572  1.00  0.00     0.201 C 
BRANCH  18  19
HETATM   19  O   UNL     1     -41.880 -51.842  12.464  1.00  0.00    -0.384 OA
BRANCH  19  20
HETATM   20  C   UNL     1     -42.359 -52.288  13.730  1.00  0.00     0.209 C 
BRANCH  20  21
HETATM   21  C   UNL     1     -43.838 -52.021  13.814  1.00  0.00     0.004 A 
HETATM   22  C   UNL     1     -44.401 -51.266  14.855  1.00  0.00     0.012 A 
HETATM   23  C   UNL     1     -45.782 -51.058  14.916  1.00  0.00     0.001 A 
HETATM   24  C   UNL     1     -46.616 -51.613  13.946  1.00  0.00     0.003 A 
HETATM   25  C   UNL     1     -46.070 -52.377  12.917  1.00  0.00     0.043 A 
HETATM   26  C   UNL     1     -44.694 -52.578  12.863  1.00  0.00     0.124 A 
HETATM   27  F   UNL     1     -44.190 -53.325  11.869  1.00  0.00    -0.205 F 
ENDBRANCH  20  21
ENDBRANCH  19  20
ENDBRANCH  18  19
ENDBRANCH  15  18
ENDBRANCH   1  15
TORSDOF 7
ENDMDL
MODEL 9
REMARK VINA RESULT:      -6.3      3.035      6.119
REMARK  7 active torsions:
REMARK  status: ('A' for Active; 'I' for Inactive)
REMARK    1  A    between atoms: N_10  and  C_11 
REMARK    2  A    between atoms: C_11  and  C_12 
REMARK    3  A    between atoms: C_12  and  O_13 
REMARK    4  A    between atoms: C_12  and  C_14 
REMARK    5  A    between atoms: C_14  and  O_15 
REMARK    6  A    between atoms: O_15  and  C_16 
REMARK    7  A    between atoms: C_16  and  C_17 
ROOT
HETATM    1  C   UNL     1     -41.535 -51.836  13.580  1.00  0.00     0.183 C 
ENDROOT
BRANCH   1   2
HETATM    2  N   UNL     1     -40.620 -50.777  13.184  1.00  0.00    -0.284 N 
HETATM    3  N   UNL     1     -39.279 -50.969  13.335  1.00  0.00    -0.308 N 
HETATM    4  C   UNL     1     -38.722 -49.952  12.668  1.00  0.00     0.122 A 
ATOM      5  HN  UNL     1     -38.807 -51.718  13.842  1.00  0.00     0.186 HD
HETATM    6  C   UNL     1     -39.688 -49.111  12.113  1.00  0.00     0.032 A 
HETATM    7  C   UNL     1     -39.634 -47.942  11.291  1.00  0.00     0.122 A 
HETATM    8  C   UNL     1     -40.901 -49.636  12.484  1.00  0.00     0.133 A 
HETATM    9  N   UNL     1     -40.729 -47.370  10.884  1.00  0.00    -0.306 N 
HETATM   10  N   UNL     1     -41.971 -47.902  11.271  1.00  0.00    -0.261 N 
ATOM     11  HN  UNL     1     -40.687 -46.543  10.289  1.00  0.00     0.186 HD
HETATM   12  C   UNL     1     -43.140 -47.240  10.728  1.00  0.00     0.181 C 
HETATM   13  C   UNL     1     -42.146 -49.041  12.093  1.00  0.00     0.290 A 
HETATM   14  O   UNL     1     -43.244 -49.472  12.432  1.00  0.00    -0.264 OA
ENDBRANCH   1   2
BRANCH   1  15
HETATM   15  C   UNL     1     -41.645 -53.015  12.589  1.00  0.00     0.161 C 
BRANCH  15  16
HETATM   16  O   UNL     1     -40.518 -53.096  11.710  1.00  0.00    -0.392 OA
HETATM   17  H   UNL     1     -40.630 -52.362  11.064  1.00  0.00     0.210 HD
ENDBRANCH  15  16
BRANCH  15  18
HETATM   18  C   UNL     1     -41.872 -54.356  13.292  1.00  0.00     0.201 C 
BRANCH  18  19
HETATM   19  O   UNL     1     -42.712 -54.125  14.416  1.00  0.00    -0.384 OA
BRANCH  19  20
HETATM   20  C   UNL     1     -44.035 -54.618  14.221  1.00  0.00     0.209 C 
BRANCH  20  21
HETATM   21  C   UNL     1     -45.002 -53.466  14.295  1.00  0.00     0.004 A 
HETATM   22  C   UNL     1     -45.615 -53.084  15.498  1.00  0.00     0.012 A 
HETATM   23  C   UNL     1     -46.527 -52.025  15.526  1.00  0.00     0.001 A 
HETATM   24  C   UNL     1     -46.845 -51.346  14.350  1.00  0.00     0.003 A 
HETATM   25  C   UNL     1     -46.254 -51.727  13.147  1.00  0.00     0.043 A 
HETATM   26  C   UNL     1     -45.346 -52.781  13.129  1.00  0.00     0.124 A 
HETATM   27  F   UNL     1     -44.796 -53.137  11.959  1.00  0.00    -0.205 F 
ENDBRANCH  20  21
ENDBRANCH  19  20
ENDBRANCH  18  19
ENDBRANCH  15  18
ENDBRANCH   1  15
TORSDOF 7
ENDMDL
