MODEL 1
REMARK VINA RESULT:      -6.6      0.000      0.000
REMARK  5 active torsions:
REMARK  status: ('A' for Active; 'I' for Inactive)
REMARK       I    between atoms: C_2  and  N_3 
REMARK       I    between atoms: C_2  and  N_18 
REMARK    1  A    between atoms: N_3  and  C_4 
REMARK    2  A    between atoms: C_4  and  C_5 
REMARK    3  A    between atoms: C_5  and  N_6 
REMARK       I    between atoms: N_9  and  C_12 
REMARK    4  A    between atoms: C_12  and  C_14 
REMARK    5  A    between atoms: N_18  and  C_19 
ROOT
HETATM    1  C   UNL     1     -40.386 -50.666  11.740  1.00  0.00     0.154 C 
ENDROOT
BRANCH   1   2
HETATM    2  N   UNL     1     -41.474 -51.590  11.446  1.00  0.00    -0.341 N 
HETATM    3  C   UNL     1     -42.334 -51.985  12.442  1.00  0.00     0.320 C 
HETATM    4  O   UNL     1     -42.216 -51.606  13.604  1.00  0.00    -0.247 OA
HETATM    5  N   UNL     1     -43.296 -52.853  11.984  1.00  0.00    -0.309 N 
HETATM    6  H   UNL     1     -43.028 -53.414  11.186  1.00  0.00     0.170 HD
HETATM    7  H   UNL     1     -41.810 -51.636  10.492  1.00  0.00     0.164 HD
BRANCH   5   8
HETATM    8  C   UNL     1     -44.423 -53.277  12.723  1.00  0.00     0.038 A 
HETATM    9  C   UNL     1     -44.506 -54.539  13.308  1.00  0.00     0.046 A 
HETATM   10  C   UNL     1     -45.643 -54.861  14.031  1.00  0.00     0.090 A 
HETATM   11  N   UNL     1     -46.682 -54.020  14.207  1.00  0.00    -0.375 N 
HETATM   12  C   UNL     1     -46.578 -52.803  13.635  1.00  0.00     0.090 A 
ATOM     13  HN  UNL     1     -47.506 -54.291  14.745  1.00  0.00     0.164 HD
HETATM   14  C   UNL     1     -45.477 -52.384  12.902  1.00  0.00     0.046 A 
ENDBRANCH   5   8
ENDBRANCH   1   2
BRANCH   1  15
HETATM   15  C   UNL     1     -40.590 -49.260  11.134  1.00  0.00     0.292 C 
BRANCH  15  16
HETATM   16  N   UNL     1     -40.916 -48.203  12.114  1.00  0.00     0.093 N 
HETATM   17  C   UNL     1     -42.241 -47.564  11.896  1.00  0.00     0.292 C 
HETATM   18  C   UNL     1     -42.339 -46.482  10.782  1.00  0.00     0.156 C 
HETATM   19  N   UNL     1     -41.192 -45.569  10.809  1.00  0.00    -0.348 N 
HETATM   20  C   UNL     1     -39.906 -46.257  10.840  1.00  0.00     0.156 C 
HETATM   21  C   UNL     1     -41.210 -44.212  11.134  1.00  0.00     0.224 C 
HETATM   22  C   UNL     1     -39.864 -47.153  12.092  1.00  0.00     0.292 C 
HETATM   23  O   UNL     1     -40.146 -43.576  11.186  1.00  0.00    -0.273 OA
BRANCH  21  24
HETATM   24  C   UNL     1     -42.559 -43.530  11.452  1.00  0.00     0.078 C 
HETATM   25  C   UNL     1     -42.673 -42.024  11.047  1.00  0.00     0.014 C 
HETATM   26  C   UNL     1     -43.498 -41.804  12.324  1.00  0.00     0.002 C 
HETATM   27  C   UNL     1     -42.786 -43.037  12.911  1.00  0.00     0.014 C 
ENDBRANCH  21  24
ENDBRANCH  15  16
ENDBRANCH   1  15
TORSDOF 5
ENDMDL
MODEL 2
REMARK VINA RESULT:      -6.5      3.415      9.101
REMARK  5 active torsions:
REMARK  status: ('A' for Active; 'I' for Inactive)
REMARK       I    between atoms: C_2  and  N_3 
REMARK       I    between atoms: C_2  and  N_18 
REMARK    1  A    between atoms: N_3  and  C_4 
REMARK    2  A    between atoms: C_4  and  C_5 
REMARK    3  A    between atoms: C_5  and  N_6 
REMARK       I    between atoms: N_9  and  C_12 
REMARK    4  A    between atoms: C_12  and  C_14 
REMARK    5  A    between atoms: N_18  and  C_19 
ROOT
HETATM    1  C   UNL     1     -40.056 -49.986  11.813  1.00  0.00     0.154 C 
ENDROOT
BRANCH   1   2
HETATM    2  N   UNL     1     -40.680 -49.438  10.615  1.00  0.00    -0.341 N 
HETATM    3  C   UNL     1     -41.861 -48.742  10.709  1.00  0.00     0.320 C 
HETATM    4  O   UNL     1     -42.444 -48.573  11.775  1.00  0.00    -0.247 OA
HETATM    5  N   UNL     1     -42.301 -48.300   9.484  1.00  0.00    -0.309 N 
HETATM    6  H   UNL     1     -42.012 -48.859   8.693  1.00  0.00     0.170 HD
HETATM    7  H   UNL     1     -40.087 -49.248   9.818  1.00  0.00     0.164 HD
BRANCH   5   8
HETATM    8  C   UNL     1     -43.373 -47.401   9.284  1.00  0.00     0.038 A 
HETATM    9  C   UNL     1     -44.691 -47.827   9.132  1.00  0.00     0.046 A 
HETATM   10  C   UNL     1     -45.681 -46.874   8.960  1.00  0.00     0.090 A 
HETATM   11  N   UNL     1     -45.445 -45.546   8.933  1.00  0.00    -0.375 N 
HETATM   12  C   UNL     1     -44.162 -45.157   9.086  1.00  0.00     0.090 A 
ATOM     13  HN  UNL     1     -46.199 -44.870   8.804  1.00  0.00     0.164 HD
HETATM   14  C   UNL     1     -43.105 -46.034   9.275  1.00  0.00     0.046 A 
ENDBRANCH   5   8
ENDBRANCH   1   2
BRANCH   1  15
HETATM   15  C   UNL     1     -40.578 -51.389  12.194  1.00  0.00     0.292 C 
BRANCH  15  16
HETATM   16  N   UNL     1     -41.224 -51.471  13.521  1.00  0.00     0.093 N 
HETATM   17  C   UNL     1     -40.350 -52.031  14.586  1.00  0.00     0.292 C 
HETATM   18  C   UNL     1     -40.185 -53.577  14.635  1.00  0.00     0.156 C 
HETATM   19  N   UNL     1     -41.463 -54.267  14.435  1.00  0.00    -0.348 N 
HETATM   20  C   UNL     1     -42.197 -53.798  13.265  1.00  0.00     0.156 C 
HETATM   21  C   UNL     1     -42.159 -55.028  15.376  1.00  0.00     0.224 C 
HETATM   22  C   UNL     1     -42.461 -52.290  13.430  1.00  0.00     0.292 C 
HETATM   23  O   UNL     1     -43.271 -55.497  15.088  1.00  0.00    -0.273 OA
BRANCH  21  24
HETATM   24  C   UNL     1     -41.540 -55.252  16.773  1.00  0.00     0.078 C 
HETATM   25  C   UNL     1     -40.662 -56.536  16.932  1.00  0.00     0.014 C 
HETATM   26  C   UNL     1     -41.227 -56.675  18.354  1.00  0.00     0.002 C 
HETATM   27  C   UNL     1     -42.452 -55.878  17.868  1.00  0.00     0.014 C 
ENDBRANCH  21  24
ENDBRANCH  15  16
ENDBRANCH   1  15
TORSDOF 5
ENDMDL
MODEL 3
REMARK VINA RESULT:      -6.5      1.044      1.538
REMARK  5 active torsions:
REMARK  status: ('A' for Active; 'I' for Inactive)
REMARK       I    between atoms: C_2  and  N_3 
REMARK       I    between atoms: C_2  and  N_18 
REMARK    1  A    between atoms: N_3  and  C_4 
REMARK    2  A    between atoms: C_4  and  C_5 
REMARK    3  A    between atoms: C_5  and  N_6 
REMARK       I    between atoms: N_9  and  C_12 
REMARK    4  A    between atoms: C_12  and  C_14 
REMARK    5  A    between atoms: N_18  and  C_19 
ROOT
HETATM    1  C   UNL     1     -40.124 -51.025  11.810  1.00  0.00     0.154 C 
ENDROOT
BRANCH   1   2
HETATM    2  N   UNL     1     -41.282 -51.858  11.509  1.00  0.00    -0.341 N 
HETATM    3  C   UNL     1     -42.197 -52.149  12.493  1.00  0.00     0.320 C 
HETATM    4  O   UNL     1     -42.074 -51.752  13.647  1.00  0.00    -0.247 OA
HETATM    5  N   UNL     1     -43.220 -52.943  12.030  1.00  0.00    -0.309 N 
HETATM    6  H   UNL     1     -42.983 -53.545  11.254  1.00  0.00     0.170 HD
HETATM    7  H   UNL     1     -41.598 -51.900  10.549  1.00  0.00     0.164 HD
BRANCH   5   8
HETATM    8  C   UNL     1     -44.398 -53.246  12.749  1.00  0.00     0.038 A 
HETATM    9  C   UNL     1     -45.447 -52.339  12.887  1.00  0.00     0.046 A 
HETATM   10  C   UNL     1     -46.573 -52.729  13.593  1.00  0.00     0.090 A 
HETATM   11  N   UNL     1     -46.717 -53.945  14.160  1.00  0.00    -0.375 N 
HETATM   12  C   UNL     1     -45.690 -54.807  14.011  1.00  0.00     0.090 A 
ATOM     13  HN  UNL     1     -47.560 -54.199  14.675  1.00  0.00     0.164 HD
HETATM   14  C   UNL     1     -44.528 -54.513  13.313  1.00  0.00     0.046 A 
ENDBRANCH   5   8
ENDBRANCH   1   2
BRANCH   1  15
HETATM   15  C   UNL     1     -40.174 -49.634  11.139  1.00  0.00     0.292 C 
BRANCH  15  16
HETATM   16  N   UNL     1     -41.357 -48.819  11.486  1.00  0.00     0.093 N 
HETATM   17  C   UNL     1     -41.631 -47.712  10.531  1.00  0.00     0.292 C 
HETATM   18  C   UNL     1     -40.772 -46.422  10.668  1.00  0.00     0.156 C 
HETATM   19  N   UNL     1     -40.608 -46.024  12.069  1.00  0.00    -0.348 N 
HETATM   20  C   UNL     1     -40.161 -47.112  12.931  1.00  0.00     0.156 C 
HETATM   21  C   UNL     1     -41.130 -44.883  12.682  1.00  0.00     0.224 C 
HETATM   22  C   UNL     1     -41.194 -48.252  12.851  1.00  0.00     0.292 C 
HETATM   23  O   UNL     1     -40.970 -44.710  13.900  1.00  0.00    -0.273 OA
BRANCH  21  24
HETATM   24  C   UNL     1     -41.923 -43.866  11.832  1.00  0.00     0.078 C 
HETATM   25  C   UNL     1     -41.143 -42.580  11.404  1.00  0.00     0.014 C 
HETATM   26  C   UNL     1     -42.448 -41.795  11.600  1.00  0.00     0.002 C 
HETATM   27  C   UNL     1     -42.880 -42.897  12.585  1.00  0.00     0.014 C 
ENDBRANCH  21  24
ENDBRANCH  15  16
ENDBRANCH   1  15
TORSDOF 5
ENDMDL
MODEL 4
REMARK VINA RESULT:      -6.3      2.560      8.236
REMARK  5 active torsions:
REMARK  status: ('A' for Active; 'I' for Inactive)
REMARK       I    between atoms: C_2  and  N_3 
REMARK       I    between atoms: C_2  and  N_18 
REMARK    1  A    between atoms: N_3  and  C_4 
REMARK    2  A    between atoms: C_4  and  C_5 
REMARK    3  A    between atoms: C_5  and  N_6 
REMARK       I    between atoms: N_9  and  C_12 
REMARK    4  A    between atoms: C_12  and  C_14 
REMARK    5  A    between atoms: N_18  and  C_19 
ROOT
HETATM    1  C   UNL     1     -39.310 -50.366  11.790  1.00  0.00     0.154 C 
ENDROOT
BRANCH   1   2
HETATM    2  N   UNL     1     -40.214 -49.908  10.743  1.00  0.00    -0.341 N 
HETATM    3  C   UNL     1     -41.023 -48.818  10.957  1.00  0.00     0.320 C 
HETATM    4  O   UNL     1     -41.041 -48.209  12.022  1.00  0.00    -0.247 OA
HETATM    5  N   UNL     1     -41.805 -48.531   9.863  1.00  0.00    -0.309 N 
HETATM    6  H   UNL     1     -42.029 -49.319   9.272  1.00  0.00     0.170 HD
HETATM    7  H   UNL     1     -39.982 -50.138   9.785  1.00  0.00     0.164 HD
BRANCH   5   8
HETATM    8  C   UNL     1     -42.589 -47.365   9.713  1.00  0.00     0.038 A 
HETATM    9  C   UNL     1     -42.190 -46.123  10.206  1.00  0.00     0.046 A 
HETATM   10  C   UNL     1     -43.015 -45.031   9.995  1.00  0.00     0.090 A 
HETATM   11  N   UNL     1     -44.189 -45.094   9.336  1.00  0.00    -0.375 N 
HETATM   12  C   UNL     1     -44.553 -46.305   8.865  1.00  0.00     0.090 A 
ATOM     13  HN  UNL     1     -44.773 -44.269   9.199  1.00  0.00     0.164 HD
HETATM   14  C   UNL     1     -43.792 -47.454   9.016  1.00  0.00     0.046 A 
ENDBRANCH   5   8
ENDBRANCH   1   2
BRANCH   1  15
HETATM   15  C   UNL     1     -39.897 -51.500  12.660  1.00  0.00     0.292 C 
BRANCH  15  16
HETATM   16  N   UNL     1     -41.292 -51.869  12.339  1.00  0.00     0.093 N 
HETATM   17  C   UNL     1     -42.308 -51.194  13.191  1.00  0.00     0.292 C 
HETATM   18  C   UNL     1     -42.542 -51.773  14.616  1.00  0.00     0.156 C 
HETATM   19  N   UNL     1     -42.596 -53.238  14.606  1.00  0.00    -0.348 N 
HETATM   20  C   UNL     1     -41.473 -53.853  13.907  1.00  0.00     0.156 C 
HETATM   21  C   UNL     1     -43.708 -54.037  14.875  1.00  0.00     0.224 C 
HETATM   22  C   UNL     1     -41.464 -53.341  12.455  1.00  0.00     0.292 C 
HETATM   23  O   UNL     1     -43.625 -55.270  14.758  1.00  0.00    -0.273 OA
BRANCH  21  24
HETATM   24  C   UNL     1     -45.036 -53.366  15.290  1.00  0.00     0.078 C 
HETATM   25  C   UNL     1     -46.285 -54.306  15.350  1.00  0.00     0.014 C 
HETATM   26  C   UNL     1     -47.118 -53.135  14.808  1.00  0.00     0.002 C 
HETATM   27  C   UNL     1     -45.818 -52.587  14.192  1.00  0.00     0.014 C 
ENDBRANCH  21  24
ENDBRANCH  15  16
ENDBRANCH   1  15
TORSDOF 5
ENDMDL
MODEL 5
REMARK VINA RESULT:      -6.2      2.107      8.382
REMARK  5 active torsions:
REMARK  status: ('A' for Active; 'I' for Inactive)
REMARK       I    between atoms: C_2  and  N_3 
REMARK       I    between atoms: C_2  and  N_18 
REMARK    1  A    between atoms: N_3  and  C_4 
REMARK    2  A    between atoms: C_4  and  C_5 
REMARK    3  A    between atoms: C_5  and  N_6 
REMARK       I    between atoms: N_9  and  C_12 
REMARK    4  A    between atoms: C_12  and  C_14 
REMARK    5  A    between atoms: N_18  and  C_19 
ROOT
HETATM    1  C   UNL     1     -38.610 -49.888  12.312  1.00  0.00     0.154 C 
ENDROOT
BRANCH   1   2
HETATM    2  N   UNL     1     -39.196 -48.960  11.353  1.00  0.00    -0.341 N 
HETATM    3  C   UNL     1     -39.779 -47.794  11.789  1.00  0.00     0.320 C 
HETATM    4  O   UNL     1     -39.853 -47.498  12.977  1.00  0.00    -0.247 OA
HETATM    5  N   UNL     1     -40.275 -47.043  10.750  1.00  0.00    -0.309 N 
HETATM    6  H   UNL     1     -40.555 -47.567   9.932  1.00  0.00     0.170 HD
HETATM    7  H   UNL     1     -38.854 -48.985  10.401  1.00  0.00     0.164 HD
BRANCH   5   8
HETATM    8  C   UNL     1     -40.754 -45.718  10.865  1.00  0.00     0.038 A 
HETATM    9  C   UNL     1     -42.108 -45.419  11.005  1.00  0.00     0.046 A 
HETATM   10  C   UNL     1     -42.484 -44.092  11.130  1.00  0.00     0.090 A 
HETATM   11  N   UNL     1     -41.613 -43.063  11.127  1.00  0.00    -0.375 N 
HETATM   12  C   UNL     1     -40.307 -43.377  10.993  1.00  0.00     0.090 A 
ATOM     13  HN  UNL     1     -41.925 -42.096  11.220  1.00  0.00     0.164 HD
HETATM   14  C   UNL     1     -39.832 -44.674  10.872  1.00  0.00     0.046 A 
ENDBRANCH   5   8
ENDBRANCH   1   2
BRANCH   1  15
HETATM   15  C   UNL     1     -39.473 -51.147  12.557  1.00  0.00     0.292 C 
BRANCH  15  16
HETATM   16  N   UNL     1     -40.914 -50.974  12.283  1.00  0.00     0.093 N 
HETATM   17  C   UNL     1     -41.695 -50.469  13.444  1.00  0.00     0.292 C 
HETATM   18  C   UNL     1     -42.086 -51.498  14.543  1.00  0.00     0.156 C 
HETATM   19  N   UNL     1     -42.555 -52.761  13.965  1.00  0.00    -0.348 N 
HETATM   20  C   UNL     1     -41.654 -53.304  12.956  1.00  0.00     0.156 C 
HETATM   21  C   UNL     1     -43.850 -53.280  14.027  1.00  0.00     0.224 C 
HETATM   22  C   UNL     1     -41.500 -52.264  11.831  1.00  0.00     0.292 C 
HETATM   23  O   UNL     1     -44.122 -54.331  13.426  1.00  0.00    -0.273 OA
BRANCH  21  24
HETATM   24  C   UNL     1     -44.931 -52.517  14.824  1.00  0.00     0.078 C 
HETATM   25  C   UNL     1     -46.370 -53.129  14.777  1.00  0.00     0.014 C 
HETATM   26  C   UNL     1     -46.915 -51.693  14.756  1.00  0.00     0.002 C 
HETATM   27  C   UNL     1     -45.565 -51.264  14.152  1.00  0.00     0.014 C 
ENDBRANCH  21  24
ENDBRANCH  15  16
ENDBRANCH   1  15
TORSDOF 5
ENDMDL
MODEL 6
REMARK VINA RESULT:      -6.1      4.269      9.164
REMARK  5 active torsions:
REMARK  status: ('A' for Active; 'I' for Inactive)
REMARK       I    between atoms: C_2  and  N_3 
REMARK       I    between atoms: C_2  and  N_18 
REMARK    1  A    between atoms: N_3  and  C_4 
REMARK    2  A    between atoms: C_4  and  C_5 
REMARK    3  A    between atoms: C_5  and  N_6 
REMARK       I    between atoms: N_9  and  C_12 
REMARK    4  A    between atoms: C_12  and  C_14 
REMARK    5  A    between atoms: N_18  and  C_19 
ROOT
HETATM    1  C   UNL     1     -40.054 -50.809  12.027  1.00  0.00     0.154 C 
ENDROOT
BRANCH   1   2
HETATM    2  N   UNL     1     -40.442 -50.012  10.870  1.00  0.00    -0.341 N 
HETATM    3  C   UNL     1     -41.487 -49.124  10.964  1.00  0.00     0.320 C 
HETATM    4  O   UNL     1     -42.141 -48.980  11.992  1.00  0.00    -0.247 OA
HETATM    5  N   UNL     1     -41.711 -48.460   9.781  1.00  0.00    -0.309 N 
HETATM    6  H   UNL     1     -41.442 -48.962   8.946  1.00  0.00     0.170 HD
HETATM    7  H   UNL     1     -39.744 -49.840  10.158  1.00  0.00     0.164 HD
BRANCH   5   8
HETATM    8  C   UNL     1     -42.582 -47.359   9.622  1.00  0.00     0.038 A 
HETATM    9  C   UNL     1     -43.805 -47.459   8.960  1.00  0.00     0.046 A 
HETATM   10  C   UNL     1     -44.603 -46.331   8.868  1.00  0.00     0.090 A 
HETATM   11  N   UNL     1     -44.269 -45.132   9.388  1.00  0.00    -0.375 N 
HETATM   12  C   UNL     1     -43.083 -45.060  10.028  1.00  0.00     0.090 A 
ATOM     13  HN  UNL     1     -44.881 -44.320   9.302  1.00  0.00     0.164 HD
HETATM   14  C   UNL     1     -42.220 -46.135  10.180  1.00  0.00     0.046 A 
ENDBRANCH   5   8
ENDBRANCH   1   2
BRANCH   1  15
HETATM   15  C   UNL     1     -40.837 -52.135  12.154  1.00  0.00     0.292 C 
BRANCH  15  16
HETATM   16  N   UNL     1     -41.190 -52.517  13.537  1.00  0.00     0.093 N 
HETATM   17  C   UNL     1     -40.328 -51.893  14.576  1.00  0.00     0.292 C 
HETATM   18  C   UNL     1     -38.929 -52.528  14.819  1.00  0.00     0.156 C 
HETATM   19  N   UNL     1     -38.993 -53.992  14.844  1.00  0.00    -0.348 N 
HETATM   20  C   UNL     1     -39.697 -54.560  13.701  1.00  0.00     0.156 C 
HETATM   21  C   UNL     1     -38.768 -54.821  15.945  1.00  0.00     0.224 C 
HETATM   22  C   UNL     1     -41.130 -53.995  13.683  1.00  0.00     0.292 C 
HETATM   23  O   UNL     1     -38.929 -56.046  15.837  1.00  0.00    -0.273 OA
BRANCH  21  24
HETATM   24  C   UNL     1     -38.347 -54.190  17.291  1.00  0.00     0.078 C 
HETATM   25  C   UNL     1     -37.175 -54.904  18.040  1.00  0.00     0.014 C 
HETATM   26  C   UNL     1     -37.900 -54.583  19.356  1.00  0.00     0.002 C 
HETATM   27  C   UNL     1     -39.206 -54.536  18.542  1.00  0.00     0.014 C 
ENDBRANCH  21  24
ENDBRANCH  15  16
ENDBRANCH   1  15
TORSDOF 5
ENDMDL
MODEL 7
REMARK VINA RESULT:      -6.0      3.226      4.934
REMARK  5 active torsions:
REMARK  status: ('A' for Active; 'I' for Inactive)
REMARK       I    between atoms: C_2  and  N_3 
REMARK       I    between atoms: C_2  and  N_18 
REMARK    1  A    between atoms: N_3  and  C_4 
REMARK    2  A    between atoms: C_4  and  C_5 
REMARK    3  A    between atoms: C_5  and  N_6 
REMARK       I    between atoms: N_9  and  C_12 
REMARK    4  A    between atoms: C_12  and  C_14 
REMARK    5  A    between atoms: N_18  and  C_19 
ROOT
HETATM    1  C   UNL     1     -40.192 -51.126  11.745  1.00  0.00     0.154 C 
ENDROOT
BRANCH   1   2
HETATM    2  N   UNL     1     -41.455 -51.782  11.429  1.00  0.00    -0.341 N 
HETATM    3  C   UNL     1     -42.264 -52.243  12.440  1.00  0.00     0.320 C 
HETATM    4  O   UNL     1     -41.958 -52.150  13.625  1.00  0.00    -0.247 OA
HETATM    5  N   UNL     1     -43.410 -52.830  11.959  1.00  0.00    -0.309 N 
HETATM    6  H   UNL     1     -43.333 -53.239  11.037  1.00  0.00     0.170 HD
HETATM    7  H   UNL     1     -41.891 -51.566  10.542  1.00  0.00     0.164 HD
BRANCH   5   8
HETATM    8  C   UNL     1     -44.513 -53.222  12.750  1.00  0.00     0.038 A 
HETATM    9  C   UNL     1     -45.567 -52.359  13.047  1.00  0.00     0.046 A 
HETATM   10  C   UNL     1     -46.617 -52.835  13.816  1.00  0.00     0.090 A 
HETATM   11  N   UNL     1     -46.683 -54.093  14.296  1.00  0.00    -0.375 N 
HETATM   12  C   UNL     1     -45.653 -54.911  13.993  1.00  0.00     0.090 A 
ATOM     13  HN  UNL     1     -47.472 -54.411  14.861  1.00  0.00     0.164 HD
HETATM   14  C   UNL     1     -44.565 -54.530  13.223  1.00  0.00     0.046 A 
ENDBRANCH   5   8
ENDBRANCH   1   2
BRANCH   1  15
HETATM   15  C   UNL     1     -40.242 -49.589  11.600  1.00  0.00     0.292 C 
BRANCH  15  16
HETATM   16  N   UNL     1     -39.042 -48.880  12.091  1.00  0.00     0.093 N 
HETATM   17  C   UNL     1     -38.261 -49.641  13.103  1.00  0.00     0.292 C 
HETATM   18  C   UNL     1     -38.792 -49.638  14.565  1.00  0.00     0.156 C 
HETATM   19  N   UNL     1     -39.235 -48.303  14.980  1.00  0.00    -0.348 N 
HETATM   20  C   UNL     1     -40.147 -47.676  14.030  1.00  0.00     0.156 C 
HETATM   21  C   UNL     1     -38.647 -47.489  15.949  1.00  0.00     0.224 C 
HETATM   22  C   UNL     1     -39.433 -47.567  12.670  1.00  0.00     0.292 C 
HETATM   23  O   UNL     1     -39.089 -46.347  16.146  1.00  0.00    -0.273 OA
BRANCH  21  24
HETATM   24  C   UNL     1     -37.433 -48.019  16.744  1.00  0.00     0.078 C 
HETATM   25  C   UNL     1     -36.859 -47.056  17.835  1.00  0.00     0.014 C 
HETATM   26  C   UNL     1     -35.458 -47.559  17.457  1.00  0.00     0.002 C 
HETATM   27  C   UNL     1     -36.033 -47.906  16.071  1.00  0.00     0.014 C 
ENDBRANCH  21  24
ENDBRANCH  15  16
ENDBRANCH   1  15
TORSDOF 5
ENDMDL
MODEL 8
REMARK VINA RESULT:      -5.9      2.393      3.510
REMARK  5 active torsions:
REMARK  status: ('A' for Active; 'I' for Inactive)
REMARK       I    between atoms: C_2  and  N_3 
REMARK       I    between atoms: C_2  and  N_18 
REMARK    1  A    between atoms: N_3  and  C_4 
REMARK    2  A    between atoms: C_4  and  C_5 
REMARK    3  A    between atoms: C_5  and  N_6 
REMARK       I    between atoms: N_9  and  C_12 
REMARK    4  A    between atoms: C_12  and  C_14 
REMARK    5  A    between atoms: N_18  and  C_19 
ROOT
HETATM    1  C   UNL     1     -39.420 -53.540  13.853  1.00  0.00     0.154 C 
ENDROOT
BRANCH   1   2
HETATM    2  N   UNL     1     -40.660 -53.795  13.132  1.00  0.00    -0.341 N 
HETATM    3  C   UNL     1     -41.862 -53.780  13.798  1.00  0.00     0.320 C 
HETATM    4  O   UNL     1     -41.944 -53.580  15.006  1.00  0.00    -0.247 OA
HETATM    5  N   UNL     1     -42.922 -54.039  12.962  1.00  0.00    -0.309 N 
HETATM    6  H   UNL     1     -42.707 -54.609  12.155  1.00  0.00     0.170 HD
HETATM    7  H   UNL     1     -40.675 -53.612  12.137  1.00  0.00     0.164 HD
BRANCH   5   8
HETATM    8  C   UNL     1     -44.284 -53.903  13.315  1.00  0.00     0.038 A 
HETATM    9  C   UNL     1     -45.041 -52.787  12.964  1.00  0.00     0.046 A 
HETATM   10  C   UNL     1     -46.375 -52.747  13.337  1.00  0.00     0.090 A 
HETATM   11  N   UNL     1     -46.991 -53.732  14.022  1.00  0.00    -0.375 N 
HETATM   12  C   UNL     1     -46.239 -54.803  14.347  1.00  0.00     0.090 A 
ATOM     13  HN  UNL     1     -47.976 -53.670  14.281  1.00  0.00     0.164 HD
HETATM   14  C   UNL     1     -44.900 -54.940  14.011  1.00  0.00     0.046 A 
ENDBRANCH   5   8
ENDBRANCH   1   2
BRANCH   1  15
HETATM   15  C   UNL     1     -38.995 -52.054  13.842  1.00  0.00     0.292 C 
BRANCH  15  16
HETATM   16  N   UNL     1     -39.810 -51.182  12.971  1.00  0.00     0.093 N 
HETATM   17  C   UNL     1     -39.010 -50.306  12.073  1.00  0.00     0.292 C 
HETATM   18  C   UNL     1     -38.397 -49.018  12.693  1.00  0.00     0.156 C 
HETATM   19  N   UNL     1     -39.350 -48.328  13.567  1.00  0.00    -0.348 N 
HETATM   20  C   UNL     1     -39.972 -49.206  14.551  1.00  0.00     0.156 C 
HETATM   21  C   UNL     1     -39.939 -47.081  13.346  1.00  0.00     0.224 C 
HETATM   22  C   UNL     1     -40.705 -50.334  13.802  1.00  0.00     0.292 C 
HETATM   23  O   UNL     1     -40.788 -46.650  14.141  1.00  0.00    -0.273 OA
BRANCH  21  24
HETATM   24  C   UNL     1     -39.538 -46.270  12.094  1.00  0.00     0.078 C 
HETATM   25  C   UNL     1     -39.917 -44.752  12.116  1.00  0.00     0.014 C 
HETATM   26  C   UNL     1     -40.217 -44.867  10.614  1.00  0.00     0.002 C 
HETATM   27  C   UNL     1     -40.470 -46.367  10.850  1.00  0.00     0.014 C 
ENDBRANCH  21  24
ENDBRANCH  15  16
ENDBRANCH   1  15
TORSDOF 5
ENDMDL
MODEL 9
REMARK VINA RESULT:      -5.8      2.947      8.804
REMARK  5 active torsions:
REMARK  status: ('A' for Active; 'I' for Inactive)
REMARK       I    between atoms: C_2  and  N_3 
REMARK       I    between atoms: C_2  and  N_18 
REMARK    1  A    between atoms: N_3  and  C_4 
REMARK    2  A    between atoms: C_4  and  C_5 
REMARK    3  A    between atoms: C_5  and  N_6 
REMARK       I    between atoms: N_9  and  C_12 
REMARK    4  A    between atoms: C_12  and  C_14 
REMARK    5  A    between atoms: N_18  and  C_19 
ROOT
HETATM    1  C   UNL     1     -37.941 -51.125  13.819  1.00  0.00     0.154 C 
ENDROOT
BRANCH   1   2
HETATM    2  N   UNL     1     -38.666 -49.860  13.805  1.00  0.00    -0.341 N 
HETATM    3  C   UNL     1     -39.058 -49.303  12.612  1.00  0.00     0.320 C 
HETATM    4  O   UNL     1     -38.803 -49.818  11.527  1.00  0.00    -0.247 OA
HETATM    5  N   UNL     1     -39.728 -48.116  12.790  1.00  0.00    -0.309 N 
HETATM    6  H   UNL     1     -39.481 -47.600  13.623  1.00  0.00     0.170 HD
HETATM    7  H   UNL     1     -39.185 -49.604  14.634  1.00  0.00     0.164 HD
BRANCH   5   8
HETATM    8  C   UNL     1     -40.415 -47.413  11.774  1.00  0.00     0.038 A 
HETATM    9  C   UNL     1     -39.969 -46.190  11.275  1.00  0.00     0.046 A 
HETATM   10  C   UNL     1     -40.696 -45.582  10.265  1.00  0.00     0.090 A 
HETATM   11  N   UNL     1     -41.817 -46.106   9.728  1.00  0.00    -0.375 N 
HETATM   12  C   UNL     1     -42.227 -47.292  10.225  1.00  0.00     0.090 A 
ATOM     13  HN  UNL     1     -42.329 -45.630   8.985  1.00  0.00     0.164 HD
HETATM   14  C   UNL     1     -41.562 -47.982  11.227  1.00  0.00     0.046 A 
ENDBRANCH   5   8
ENDBRANCH   1   2
BRANCH   1  15
HETATM   15  C   UNL     1     -38.717 -52.273  14.502  1.00  0.00     0.292 C 
BRANCH  15  16
HETATM   16  N   UNL     1     -39.666 -52.989  13.624  1.00  0.00     0.093 N 
HETATM   17  C   UNL     1     -40.979 -52.307  13.466  1.00  0.00     0.292 C 
HETATM   18  C   UNL     1     -42.011 -52.468  14.619  1.00  0.00     0.156 C 
HETATM   19  N   UNL     1     -42.070 -53.849  15.106  1.00  0.00    -0.348 N 
HETATM   20  C   UNL     1     -40.760 -54.409  15.418  1.00  0.00     0.156 C 
HETATM   21  C   UNL     1     -43.141 -54.736  14.983  1.00  0.00     0.224 C 
HETATM   22  C   UNL     1     -39.895 -54.363  14.144  1.00  0.00     0.292 C 
HETATM   23  O   UNL     1     -43.024 -55.905  15.382  1.00  0.00    -0.273 OA
BRANCH  21  24
HETATM   24  C   UNL     1     -44.451 -54.249  14.324  1.00  0.00     0.078 C 
HETATM   25  C   UNL     1     -45.517 -53.641  15.295  1.00  0.00     0.014 C 
HETATM   26  C   UNL     1     -46.598 -54.300  14.425  1.00  0.00     0.002 C 
HETATM   27  C   UNL     1     -45.529 -55.323  13.997  1.00  0.00     0.014 C 
ENDBRANCH  21  24
ENDBRANCH  15  16
ENDBRANCH   1  15
TORSDOF 5
ENDMDL
