MODEL 1
REMARK VINA RESULT:      -6.3      0.000      0.000
REMARK  5 active torsions:
REMARK  status: ('A' for Active; 'I' for Inactive)
REMARK    1  A    between atoms: N_6  and  C_7 
REMARK    2  A    between atoms: C_7  and  C_8 
REMARK    3  A    between atoms: C_8  and  O_9 
REMARK    4  A    between atoms: C_8  and  C_10 
REMARK    5  A    between atoms: C_19  and  C_20 
REMARK       I    between atoms: C_20  and  N_22 
ROOT
HETATM    1  C   UNL     1     -40.895 -55.297  16.043  1.00  0.00     0.049 C 
HETATM    2  C   UNL     1     -41.803 -54.609  15.053  1.00  0.00    -0.039 A 
HETATM    3  C   UNL     1     -43.199 -54.989  15.151  1.00  0.00     0.033 A 
HETATM    4  C   UNL     1     -44.140 -54.503  14.327  1.00  0.00     0.011 A 
HETATM    5  C   UNL     1     -45.566 -54.956  14.483  1.00  0.00     0.068 C 
HETATM    6  N   UNL     1     -43.781 -53.591  13.339  1.00  0.00    -0.315 N 
HETATM    7  C   UNL     1     -42.462 -53.129  13.210  1.00  0.00     0.264 A 
HETATM    8  O   UNL     1     -42.161 -52.272  12.366  1.00  0.00    -0.267 OA
HETATM    9  C   UNL     1     -41.408 -53.712  14.118  1.00  0.00     0.105 A 
ENDROOT
BRANCH   6  10
HETATM   10  C   UNL     1     -44.760 -53.051  12.373  1.00  0.00     0.169 C 
BRANCH  10  11
HETATM   11  C   UNL     1     -45.246 -51.609  12.680  1.00  0.00     0.169 C 
BRANCH  11  12
HETATM   12  O   UNL     1     -46.428 -51.291  11.935  1.00  0.00    -0.389 OA
HETATM   13  H   UNL     1     -46.378 -50.343  11.701  1.00  0.00     0.210 HD
ENDBRANCH  11  12
BRANCH  11  14
HETATM   14  C   UNL     1     -45.571 -51.298  14.137  1.00  0.00    -0.028 A 
HETATM   15  C   UNL     1     -44.637 -50.798  15.058  1.00  0.00     0.011 A 
HETATM   16  C   UNL     1     -44.977 -50.628  16.407  1.00  0.00     0.024 A 
HETATM   17  C   UNL     1     -46.258 -50.946  16.850  1.00  0.00     0.034 A 
HETATM   18 CL   UNL     1     -46.653 -50.788  18.517  1.00  0.00    -0.084 Cl
HETATM   19  C   UNL     1     -47.214 -51.405  15.950  1.00  0.00     0.024 A 
HETATM   20  C   UNL     1     -46.872 -51.573  14.606  1.00  0.00     0.011 A 
ENDBRANCH  11  14
ENDBRANCH  10  11
ENDBRANCH   6  10
BRANCH   9  21
HETATM   21  C   UNL     1     -39.958 -53.327  13.987  1.00  0.00     0.255 C 
HETATM   22  O   UNL     1     -39.089 -54.058  13.524  1.00  0.00    -0.268 OA
HETATM   23  N   UNL     1     -39.613 -52.080  14.408  1.00  0.00    -0.366 N 
HETATM   24  H   UNL     1     -40.294 -51.444  14.814  1.00  0.00     0.159 HD
HETATM   25  H   UNL     1     -38.644 -51.794  14.342  1.00  0.00     0.159 HD
ENDBRANCH   9  21
TORSDOF 5
ENDMDL
MODEL 2
REMARK VINA RESULT:      -6.2      3.402      6.102
REMARK  5 active torsions:
REMARK  status: ('A' for Active; 'I' for Inactive)
REMARK    1  A    between atoms: N_6  and  C_7 
REMARK    2  A    between atoms: C_7  and  C_8 
REMARK    3  A    between atoms: C_8  and  O_9 
REMARK    4  A    between atoms: C_8  and  C_10 
REMARK    5  A    between atoms: C_19  and  C_20 
REMARK       I    between atoms: C_20  and  N_22 
ROOT
HETATM    1  C   UNL     1     -46.569 -51.378  16.067  1.00  0.00     0.049 C 
HETATM    2  C   UNL     1     -45.492 -51.765  15.083  1.00  0.00    -0.039 A 
HETATM    3  C   UNL     1     -44.759 -50.647  14.521  1.00  0.00     0.033 A 
HETATM    4  C   UNL     1     -43.791 -50.804  13.604  1.00  0.00     0.011 A 
HETATM    5  C   UNL     1     -43.087 -49.593  13.059  1.00  0.00     0.068 C 
HETATM    6  N   UNL     1     -43.459 -52.085  13.172  1.00  0.00    -0.315 N 
HETATM    7  C   UNL     1     -44.081 -53.224  13.705  1.00  0.00     0.264 A 
HETATM    8  O   UNL     1     -43.738 -54.364  13.358  1.00  0.00    -0.267 OA
HETATM    9  C   UNL     1     -45.193 -53.030  14.705  1.00  0.00     0.105 A 
ENDROOT
BRANCH   6  10
HETATM   10  C   UNL     1     -42.434 -52.323  12.136  1.00  0.00     0.169 C 
BRANCH  10  11
HETATM   11  C   UNL     1     -41.060 -52.799  12.680  1.00  0.00     0.169 C 
BRANCH  11  12
HETATM   12  O   UNL     1     -40.384 -53.629  11.727  1.00  0.00    -0.389 OA
HETATM   13  H   UNL     1     -39.506 -53.845  12.100  1.00  0.00     0.210 HD
ENDBRANCH  11  12
BRANCH  11  14
HETATM   14  C   UNL     1     -40.068 -51.708  13.066  1.00  0.00    -0.028 A 
HETATM   15  C   UNL     1     -39.464 -51.610  14.329  1.00  0.00     0.011 A 
HETATM   16  C   UNL     1     -38.637 -50.525  14.649  1.00  0.00     0.024 A 
HETATM   17  C   UNL     1     -38.395 -49.529  13.706  1.00  0.00     0.034 A 
HETATM   18 CL   UNL     1     -37.424 -48.171  14.123  1.00  0.00    -0.084 Cl
HETATM   19  C   UNL     1     -38.949 -49.623  12.435  1.00  0.00     0.024 A 
HETATM   20  C   UNL     1     -39.773 -50.707  12.118  1.00  0.00     0.011 A 
ENDBRANCH  11  14
ENDBRANCH  10  11
ENDBRANCH   6  10
BRANCH   9  21
HETATM   21  C   UNL     1     -45.962 -54.200  15.261  1.00  0.00     0.255 C 
HETATM   22  O   UNL     1     -45.878 -54.594  16.420  1.00  0.00    -0.268 OA
HETATM   23  N   UNL     1     -46.805 -54.842  14.408  1.00  0.00    -0.366 N 
HETATM   24  H   UNL     1     -46.897 -54.564  13.434  1.00  0.00     0.159 HD
HETATM   25  H   UNL     1     -47.329 -55.639  14.748  1.00  0.00     0.159 HD
ENDBRANCH   9  21
TORSDOF 5
ENDMDL
MODEL 3
REMARK VINA RESULT:      -6.1      2.004      2.909
REMARK  5 active torsions:
REMARK  status: ('A' for Active; 'I' for Inactive)
REMARK    1  A    between atoms: N_6  and  C_7 
REMARK    2  A    between atoms: C_7  and  C_8 
REMARK    3  A    between atoms: C_8  and  O_9 
REMARK    4  A    between atoms: C_8  and  C_10 
REMARK    5  A    between atoms: C_19  and  C_20 
REMARK       I    between atoms: C_20  and  N_22 
ROOT
HETATM    1  C   UNL     1     -39.837 -54.026  16.241  1.00  0.00     0.049 C 
HETATM    2  C   UNL     1     -41.057 -54.123  15.357  1.00  0.00    -0.039 A 
HETATM    3  C   UNL     1     -40.987 -53.330  14.145  1.00  0.00     0.033 A 
HETATM    4  C   UNL     1     -41.995 -53.268  13.261  1.00  0.00     0.011 A 
HETATM    5  C   UNL     1     -41.851 -52.412  12.034  1.00  0.00     0.068 C 
HETATM    6  N   UNL     1     -43.158 -53.996  13.498  1.00  0.00    -0.315 N 
HETATM    7  C   UNL     1     -43.287 -54.831  14.619  1.00  0.00     0.264 A 
HETATM    8  O   UNL     1     -44.302 -55.521  14.792  1.00  0.00    -0.267 OA
HETATM    9  C   UNL     1     -42.161 -54.859  15.622  1.00  0.00     0.105 A 
ENDROOT
BRANCH   6  10
HETATM   10  C   UNL     1     -44.319 -53.939  12.588  1.00  0.00     0.169 C 
BRANCH  10  11
HETATM   11  C   UNL     1     -45.098 -52.595  12.614  1.00  0.00     0.169 C 
BRANCH  11  12
HETATM   12  O   UNL     1     -46.260 -52.653  11.777  1.00  0.00    -0.389 OA
HETATM   13  H   UNL     1     -45.992 -52.347  10.887  1.00  0.00     0.210 HD
ENDBRANCH  11  12
BRANCH  11  14
HETATM   14  C   UNL     1     -45.586 -52.121  13.979  1.00  0.00    -0.028 A 
HETATM   15  C   UNL     1     -46.818 -52.490  14.541  1.00  0.00     0.011 A 
HETATM   16  C   UNL     1     -47.248 -51.938  15.755  1.00  0.00     0.024 A 
HETATM   17  C   UNL     1     -46.449 -51.018  16.427  1.00  0.00     0.034 A 
HETATM   18 CL   UNL     1     -47.007 -50.302  17.888  1.00  0.00    -0.084 Cl
HETATM   19  C   UNL     1     -45.206 -50.666  15.912  1.00  0.00     0.024 A 
HETATM   20  C   UNL     1     -44.779 -51.218  14.701  1.00  0.00     0.011 A 
ENDBRANCH  11  14
ENDBRANCH  10  11
ENDBRANCH   6  10
BRANCH   9  21
HETATM   21  C   UNL     1     -42.260 -55.668  16.889  1.00  0.00     0.255 C 
HETATM   22  O   UNL     1     -41.662 -56.721  17.085  1.00  0.00    -0.268 OA
HETATM   23  N   UNL     1     -43.062 -55.176  17.871  1.00  0.00    -0.366 N 
HETATM   24  H   UNL     1     -43.592 -54.316  17.751  1.00  0.00     0.159 HD
HETATM   25  H   UNL     1     -43.158 -55.701  18.732  1.00  0.00     0.159 HD
ENDBRANCH   9  21
TORSDOF 5
ENDMDL
MODEL 4
REMARK VINA RESULT:      -6.0      4.165      6.093
REMARK  5 active torsions:
REMARK  status: ('A' for Active; 'I' for Inactive)
REMARK    1  A    between atoms: N_6  and  C_7 
REMARK    2  A    between atoms: C_7  and  C_8 
REMARK    3  A    between atoms: C_8  and  O_9 
REMARK    4  A    between atoms: C_8  and  C_10 
REMARK    5  A    between atoms: C_19  and  C_20 
REMARK       I    between atoms: C_20  and  N_22 
ROOT
HETATM    1  C   UNL     1     -45.343 -55.293  13.694  1.00  0.00     0.049 C 
HETATM    2  C   UNL     1     -44.361 -54.148  13.626  1.00  0.00    -0.039 A 
HETATM    3  C   UNL     1     -42.982 -54.522  13.879  1.00  0.00     0.033 A 
HETATM    4  C   UNL     1     -41.982 -53.628  13.895  1.00  0.00     0.011 A 
HETATM    5  C   UNL     1     -40.580 -54.092  14.178  1.00  0.00     0.068 C 
HETATM    6  N   UNL     1     -42.259 -52.286  13.651  1.00  0.00    -0.315 N 
HETATM    7  C   UNL     1     -43.557 -51.848  13.345  1.00  0.00     0.264 A 
HETATM    8  O   UNL     1     -43.786 -50.661  13.072  1.00  0.00    -0.267 OA
HETATM    9  C   UNL     1     -44.677 -52.858  13.369  1.00  0.00     0.105 A 
ENDROOT
BRANCH   6  10
HETATM   10  C   UNL     1     -41.211 -51.246  13.696  1.00  0.00     0.169 C 
BRANCH  10  11
HETATM   11  C   UNL     1     -40.567 -50.915  12.323  1.00  0.00     0.169 C 
BRANCH  11  12
HETATM   12  O   UNL     1     -41.180 -51.668  11.268  1.00  0.00    -0.389 OA
HETATM   13  H   UNL     1     -41.820 -52.281  11.683  1.00  0.00     0.210 HD
ENDBRANCH  11  12
BRANCH  11  14
HETATM   14  C   UNL     1     -40.620 -49.456  11.882  1.00  0.00    -0.028 A 
HETATM   15  C   UNL     1     -41.602 -48.931  11.029  1.00  0.00     0.011 A 
HETATM   16  C   UNL     1     -41.534 -47.604  10.585  1.00  0.00     0.024 A 
HETATM   17  C   UNL     1     -40.488 -46.782  10.995  1.00  0.00     0.034 A 
HETATM   18 CL   UNL     1     -40.379 -45.171  10.402  1.00  0.00    -0.084 Cl
HETATM   19  C   UNL     1     -39.523 -47.266  11.872  1.00  0.00     0.024 A 
HETATM   20  C   UNL     1     -39.594 -48.590  12.314  1.00  0.00     0.011 A 
ENDBRANCH  11  14
ENDBRANCH  10  11
ENDBRANCH   6  10
BRANCH   9  21
HETATM   21  C   UNL     1     -46.107 -52.450  13.130  1.00  0.00     0.255 C 
HETATM   22  O   UNL     1     -46.930 -52.263  14.020  1.00  0.00    -0.268 OA
HETATM   23  N   UNL     1     -46.488 -52.274  11.836  1.00  0.00    -0.366 N 
HETATM   24  H   UNL     1     -45.847 -52.432  11.062  1.00  0.00     0.159 HD
HETATM   25  H   UNL     1     -47.445 -52.009  11.641  1.00  0.00     0.159 HD
ENDBRANCH   9  21
TORSDOF 5
ENDMDL
MODEL 5
REMARK VINA RESULT:      -6.0      2.918      5.459
REMARK  5 active torsions:
REMARK  status: ('A' for Active; 'I' for Inactive)
REMARK    1  A    between atoms: N_6  and  C_7 
REMARK    2  A    between atoms: C_7  and  C_8 
REMARK    3  A    between atoms: C_8  and  O_9 
REMARK    4  A    between atoms: C_8  and  C_10 
REMARK    5  A    between atoms: C_19  and  C_20 
REMARK       I    between atoms: C_20  and  N_22 
ROOT
HETATM    1  C   UNL     1     -47.841 -51.223  17.003  1.00  0.00     0.049 C 
HETATM    2  C   UNL     1     -46.669 -51.157  16.055  1.00  0.00    -0.039 A 
HETATM    3  C   UNL     1     -46.998 -51.437  14.670  1.00  0.00     0.033 A 
HETATM    4  C   UNL     1     -46.074 -51.457  13.697  1.00  0.00     0.011 A 
HETATM    5  C   UNL     1     -46.491 -51.770  12.287  1.00  0.00     0.068 C 
HETATM    6  N   UNL     1     -44.743 -51.192  14.011  1.00  0.00    -0.315 N 
HETATM    7  C   UNL     1     -44.349 -50.859  15.316  1.00  0.00     0.264 A 
HETATM    8  O   UNL     1     -43.173 -50.566  15.575  1.00  0.00    -0.267 OA
HETATM    9  C   UNL     1     -45.391 -50.877  16.405  1.00  0.00     0.105 A 
ENDROOT
BRANCH   6  10
HETATM   10  C   UNL     1     -43.672 -51.241  12.995  1.00  0.00     0.169 C 
BRANCH  10  11
HETATM   11  C   UNL     1     -43.298 -52.670  12.516  1.00  0.00     0.169 C 
BRANCH  11  12
HETATM   12  O   UNL     1     -42.271 -52.629  11.517  1.00  0.00    -0.389 OA
HETATM   13  H   UNL     1     -42.709 -52.715  10.646  1.00  0.00     0.210 HD
ENDBRANCH  11  12
BRANCH  11  14
HETATM   14  C   UNL     1     -42.806 -53.638  13.586  1.00  0.00    -0.028 A 
HETATM   15  C   UNL     1     -43.638 -54.536  14.272  1.00  0.00     0.011 A 
HETATM   16  C   UNL     1     -43.136 -55.328  15.314  1.00  0.00     0.024 A 
HETATM   17  C   UNL     1     -41.795 -55.239  15.676  1.00  0.00     0.034 A 
HETATM   18 CL   UNL     1     -41.199 -56.172  16.993  1.00  0.00    -0.084 Cl
HETATM   19  C   UNL     1     -40.941 -54.386  14.986  1.00  0.00     0.024 A 
HETATM   20  C   UNL     1     -41.443 -53.598  13.947  1.00  0.00     0.011 A 
ENDBRANCH  11  14
ENDBRANCH  10  11
ENDBRANCH   6  10
BRANCH   9  21
HETATM   21  C   UNL     1     -45.030 -50.610  17.842  1.00  0.00     0.255 C 
HETATM   22  O   UNL     1     -44.938 -51.478  18.704  1.00  0.00    -0.268 OA
HETATM   23  N   UNL     1     -44.785 -49.316  18.184  1.00  0.00    -0.366 N 
HETATM   24  H   UNL     1     -44.865 -48.559  17.509  1.00  0.00     0.159 HD
HETATM   25  H   UNL     1     -44.549 -49.101  19.144  1.00  0.00     0.159 HD
ENDBRANCH   9  21
TORSDOF 5
ENDMDL
MODEL 6
REMARK VINA RESULT:      -5.8      3.539      6.049
REMARK  5 active torsions:
REMARK  status: ('A' for Active; 'I' for Inactive)
REMARK    1  A    between atoms: N_6  and  C_7 
REMARK    2  A    between atoms: C_7  and  C_8 
REMARK    3  A    between atoms: C_8  and  O_9 
REMARK    4  A    between atoms: C_8  and  C_10 
REMARK    5  A    between atoms: C_19  and  C_20 
REMARK       I    between atoms: C_20  and  N_22 
ROOT
HETATM    1  C   UNL     1     -46.035 -51.194  14.835  1.00  0.00     0.049 C 
HETATM    2  C   UNL     1     -44.650 -51.752  14.617  1.00  0.00    -0.039 A 
HETATM    3  C   UNL     1     -43.592 -51.014  15.280  1.00  0.00     0.033 A 
HETATM    4  C   UNL     1     -42.297 -51.348  15.167  1.00  0.00     0.011 A 
HETATM    5  C   UNL     1     -41.257 -50.524  15.874  1.00  0.00     0.068 C 
HETATM    6  N   UNL     1     -41.939 -52.449  14.394  1.00  0.00    -0.315 N 
HETATM    7  C   UNL     1     -42.904 -53.249  13.763  1.00  0.00     0.264 A 
HETATM    8  O   UNL     1     -42.581 -54.261  13.125  1.00  0.00    -0.267 OA
HETATM    9  C   UNL     1     -44.351 -52.840  13.868  1.00  0.00     0.105 A 
ENDROOT
BRANCH   6  10
HETATM   10  C   UNL     1     -40.530 -52.843  14.194  1.00  0.00     0.169 C 
BRANCH  10  11
HETATM   11  C   UNL     1     -39.921 -52.406  12.833  1.00  0.00     0.169 C 
BRANCH  11  12
HETATM   12  O   UNL     1     -40.489 -53.152  11.749  1.00  0.00    -0.389 OA
HETATM   13  H   UNL     1     -40.864 -53.973  12.126  1.00  0.00     0.210 HD
ENDBRANCH  11  12
BRANCH  11  14
HETATM   14  C   UNL     1     -40.079 -50.936  12.460  1.00  0.00    -0.028 A 
HETATM   15  C   UNL     1     -41.153 -50.429  11.714  1.00  0.00     0.011 A 
HETATM   16  C   UNL     1     -41.185 -49.084  11.321  1.00  0.00     0.024 A 
HETATM   17  C   UNL     1     -40.147 -48.227  11.678  1.00  0.00     0.034 A 
HETATM   18 CL   UNL     1     -40.164 -46.591  11.145  1.00  0.00    -0.084 Cl
HETATM   19  C   UNL     1     -39.090 -48.695  12.450  1.00  0.00     0.024 A 
HETATM   20  C   UNL     1     -39.061 -50.037  12.841  1.00  0.00     0.011 A 
ENDBRANCH  11  14
ENDBRANCH  10  11
ENDBRANCH   6  10
BRANCH   9  21
HETATM   21  C   UNL     1     -45.436 -53.601  13.152  1.00  0.00     0.255 C 
HETATM   22  O   UNL     1     -46.022 -53.195  12.154  1.00  0.00    -0.268 OA
HETATM   23  N   UNL     1     -45.767 -54.820  13.658  1.00  0.00    -0.366 N 
HETATM   24  H   UNL     1     -45.322 -55.193  14.493  1.00  0.00     0.159 HD
HETATM   25  H   UNL     1     -46.499 -55.353  13.206  1.00  0.00     0.159 HD
ENDBRANCH   9  21
TORSDOF 5
ENDMDL
MODEL 7
REMARK VINA RESULT:      -5.7      4.589      6.773
REMARK  5 active torsions:
REMARK  status: ('A' for Active; 'I' for Inactive)
REMARK    1  A    between atoms: N_6  and  C_7 
REMARK    2  A    between atoms: C_7  and  C_8 
REMARK    3  A    between atoms: C_8  and  O_9 
REMARK    4  A    between atoms: C_8  and  C_10 
REMARK    5  A    between atoms: C_19  and  C_20 
REMARK       I    between atoms: C_20  and  N_22 
ROOT
HETATM    1  C   UNL     1     -39.274 -45.597  13.622  1.00  0.00     0.049 C 
HETATM    2  C   UNL     1     -39.435 -47.036  13.196  1.00  0.00    -0.039 A 
HETATM    3  C   UNL     1     -38.936 -48.007  14.151  1.00  0.00     0.033 A 
HETATM    4  C   UNL     1     -38.964 -49.329  13.921  1.00  0.00     0.011 A 
HETATM    5  C   UNL     1     -38.414 -50.271  14.956  1.00  0.00     0.068 C 
HETATM    6  N   UNL     1     -39.500 -49.804  12.728  1.00  0.00    -0.315 N 
HETATM    7  C   UNL     1     -40.054 -48.937  11.774  1.00  0.00     0.264 A 
HETATM    8  O   UNL     1     -40.582 -49.372  10.740  1.00  0.00    -0.267 OA
HETATM    9  C   UNL     1     -39.980 -47.452  12.029  1.00  0.00     0.105 A 
ENDROOT
BRANCH   6  10
HETATM   10  C   UNL     1     -39.523 -51.243  12.395  1.00  0.00     0.169 C 
BRANCH  10  11
HETATM   11  C   UNL     1     -40.942 -51.868  12.319  1.00  0.00     0.169 C 
BRANCH  11  12
HETATM   12  O   UNL     1     -41.205 -52.398  11.013  1.00  0.00    -0.389 OA
HETATM   13  H   UNL     1     -41.198 -53.374  11.089  1.00  0.00     0.210 HD
ENDBRANCH  11  12
BRANCH  11  14
HETATM   14  C   UNL     1     -41.240 -52.998  13.298  1.00  0.00    -0.028 A 
HETATM   15  C   UNL     1     -42.523 -53.518  13.527  1.00  0.00     0.011 A 
HETATM   16  C   UNL     1     -42.740 -54.489  14.514  1.00  0.00     0.024 A 
HETATM   17  C   UNL     1     -41.676 -54.959  15.278  1.00  0.00     0.034 A 
HETATM   18 CL   UNL     1     -41.958 -56.110  16.526  1.00  0.00    -0.084 Cl
HETATM   19  C   UNL     1     -40.388 -54.490  15.044  1.00  0.00     0.024 A 
HETATM   20  C   UNL     1     -40.174 -53.522  14.059  1.00  0.00     0.011 A 
ENDBRANCH  11  14
ENDBRANCH  10  11
ENDBRANCH   6  10
BRANCH   9  21
HETATM   21  C   UNL     1     -40.479 -46.456  11.016  1.00  0.00     0.255 C 
HETATM   22  O   UNL     1     -41.643 -46.074  10.938  1.00  0.00    -0.268 OA
HETATM   23  N   UNL     1     -39.564 -45.954  10.144  1.00  0.00    -0.366 N 
HETATM   24  H   UNL     1     -38.591 -46.251  10.157  1.00  0.00     0.159 HD
HETATM   25  H   UNL     1     -39.869 -45.289   9.445  1.00  0.00     0.159 HD
ENDBRANCH   9  21
TORSDOF 5
ENDMDL
MODEL 8
REMARK VINA RESULT:      -5.5      2.681      4.368
REMARK  5 active torsions:
REMARK  status: ('A' for Active; 'I' for Inactive)
REMARK    1  A    between atoms: N_6  and  C_7 
REMARK    2  A    between atoms: C_7  and  C_8 
REMARK    3  A    between atoms: C_8  and  O_9 
REMARK    4  A    between atoms: C_8  and  C_10 
REMARK    5  A    between atoms: C_19  and  C_20 
REMARK       I    between atoms: C_20  and  N_22 
ROOT
HETATM    1  C   UNL     1     -42.042 -53.605  18.453  1.00  0.00     0.049 C 
HETATM    2  C   UNL     1     -41.414 -53.342  17.107  1.00  0.00    -0.039 A 
HETATM    3  C   UNL     1     -41.128 -51.946  16.837  1.00  0.00     0.033 A 
HETATM    4  C   UNL     1     -40.603 -51.526  15.676  1.00  0.00     0.011 A 
HETATM    5  C   UNL     1     -40.348 -50.059  15.466  1.00  0.00     0.068 C 
HETATM    6  N   UNL     1     -40.305 -52.456  14.683  1.00  0.00    -0.315 N 
HETATM    7  C   UNL     1     -40.499 -53.832  14.883  1.00  0.00     0.264 A 
HETATM    8  O   UNL     1     -40.176 -54.658  14.018  1.00  0.00    -0.267 OA
HETATM    9  C   UNL     1     -41.126 -54.284  16.178  1.00  0.00     0.105 A 
ENDROOT
BRANCH   6  10
HETATM   10  C   UNL     1     -39.765 -52.056  13.368  1.00  0.00     0.169 C 
BRANCH  10  11
HETATM   11  C   UNL     1     -40.800 -52.073  12.211  1.00  0.00     0.169 C 
BRANCH  11  12
HETATM   12  O   UNL     1     -40.672 -53.260  11.418  1.00  0.00    -0.389 OA
HETATM   13  H   UNL     1     -40.791 -54.024  12.017  1.00  0.00     0.210 HD
ENDBRANCH  11  12
BRANCH  11  14
HETATM   14  C   UNL     1     -42.268 -51.992  12.612  1.00  0.00    -0.028 A 
HETATM   15  C   UNL     1     -43.147 -53.086  12.589  1.00  0.00     0.011 A 
HETATM   16  C   UNL     1     -44.509 -52.920  12.876  1.00  0.00     0.024 A 
HETATM   17  C   UNL     1     -45.007 -51.661  13.198  1.00  0.00     0.034 A 
HETATM   18 CL   UNL     1     -46.690 -51.454  13.494  1.00  0.00    -0.084 Cl
HETATM   19  C   UNL     1     -44.151 -50.568  13.267  1.00  0.00     0.024 A 
HETATM   20  C   UNL     1     -42.793 -50.736  12.981  1.00  0.00     0.011 A 
ENDBRANCH  11  14
ENDBRANCH  10  11
ENDBRANCH   6  10
BRANCH   9  21
HETATM   21  C   UNL     1     -41.440 -55.735  16.433  1.00  0.00     0.255 C 
HETATM   22  O   UNL     1     -42.559 -56.228  16.330  1.00  0.00    -0.268 OA
HETATM   23  N   UNL     1     -40.400 -56.535  16.792  1.00  0.00    -0.366 N 
HETATM   24  H   UNL     1     -39.458 -56.171  16.907  1.00  0.00     0.159 HD
HETATM   25  H   UNL     1     -40.579 -57.514  16.980  1.00  0.00     0.159 HD
ENDBRANCH   9  21
TORSDOF 5
ENDMDL
MODEL 9
REMARK VINA RESULT:      -5.4      1.745      2.368
REMARK  5 active torsions:
REMARK  status: ('A' for Active; 'I' for Inactive)
REMARK    1  A    between atoms: N_6  and  C_7 
REMARK    2  A    between atoms: C_7  and  C_8 
REMARK    3  A    between atoms: C_8  and  O_9 
REMARK    4  A    between atoms: C_8  and  C_10 
REMARK    5  A    between atoms: C_19  and  C_20 
REMARK       I    between atoms: C_20  and  N_22 
ROOT
HETATM    1  C   UNL     1     -39.792 -54.986  15.845  1.00  0.00     0.049 C 
HETATM    2  C   UNL     1     -41.164 -54.444  15.522  1.00  0.00    -0.039 A 
HETATM    3  C   UNL     1     -42.125 -54.556  16.603  1.00  0.00     0.033 A 
HETATM    4  C   UNL     1     -43.401 -54.158  16.480  1.00  0.00     0.011 A 
HETATM    5  C   UNL     1     -44.341 -54.320  17.643  1.00  0.00     0.068 C 
HETATM    6  N   UNL     1     -43.833 -53.605  15.278  1.00  0.00    -0.315 N 
HETATM    7  C   UNL     1     -42.954 -53.411  14.201  1.00  0.00     0.264 A 
HETATM    8  O   UNL     1     -43.332 -52.865  13.155  1.00  0.00    -0.267 OA
HETATM    9  C   UNL     1     -41.534 -53.899  14.340  1.00  0.00     0.105 A 
ENDROOT
BRANCH   6  10
HETATM   10  C   UNL     1     -45.233 -53.187  15.064  1.00  0.00     0.169 C 
BRANCH  10  11
HETATM   11  C   UNL     1     -45.460 -51.651  15.079  1.00  0.00     0.169 C 
BRANCH  11  12
HETATM   12  O   UNL     1     -46.137 -51.216  13.892  1.00  0.00    -0.389 OA
HETATM   13  H   UNL     1     -46.127 -50.238  13.895  1.00  0.00     0.210 HD
ENDBRANCH  11  12
BRANCH  11  14
HETATM   14  C   UNL     1     -46.264 -51.095  16.249  1.00  0.00    -0.028 A 
HETATM   15  C   UNL     1     -47.627 -51.359  16.458  1.00  0.00     0.011 A 
HETATM   16  C   UNL     1     -48.329 -50.735  17.498  1.00  0.00     0.024 A 
HETATM   17  C   UNL     1     -47.675 -49.848  18.349  1.00  0.00     0.034 A 
HETATM   18 CL   UNL     1     -48.555 -49.043  19.589  1.00  0.00    -0.084 Cl
HETATM   19  C   UNL     1     -46.317 -49.600  18.188  1.00  0.00     0.024 A 
HETATM   20  C   UNL     1     -45.618 -50.224  17.150  1.00  0.00     0.011 A 
ENDBRANCH  11  14
ENDBRANCH  10  11
ENDBRANCH   6  10
BRANCH   9  21
HETATM   21  C   UNL     1     -40.555 -53.799  13.200  1.00  0.00     0.255 C 
HETATM   22  O   UNL     1     -39.529 -53.126  13.227  1.00  0.00    -0.268 OA
HETATM   23  N   UNL     1     -40.841 -54.516  12.080  1.00  0.00    -0.366 N 
HETATM   24  H   UNL     1     -41.686 -55.075  12.002  1.00  0.00     0.159 HD
HETATM   25  H   UNL     1     -40.207 -54.463  11.292  1.00  0.00     0.159 HD
ENDBRANCH   9  21
TORSDOF 5
ENDMDL
