MODEL 1
REMARK VINA RESULT:      -5.1      0.000      0.000
REMARK  8 active torsions:
REMARK  status: ('A' for Active; 'I' for Inactive)
REMARK    1  A    between atoms: C_2  and  N_3 
REMARK    2  A    between atoms: C_2  and  C_11 
REMARK    3  A    between atoms: N_3  and  C_4 
REMARK    4  A    between atoms: C_4  and  C_5 
REMARK    5  A    between atoms: C_5  and  C_6 
REMARK    6  A    between atoms: C_6  and  S_7 
REMARK    7  A    between atoms: S_7  and  N_10 
REMARK    8  A    between atoms: C_11  and  N_13 
ROOT
HETATM    1  N   UNL     1     -42.612 -50.165  11.928  1.00  0.00     0.089 N 
HETATM    2  H   UNL     1     -43.484 -49.835  12.343  1.00  0.00     0.316 HD
ENDROOT
BRANCH   1   3
HETATM    3  C   UNL     1     -42.135 -51.370  12.649  1.00  0.00     0.240 C 
HETATM    4  C   UNL     1     -40.751 -51.781  12.120  1.00  0.00     0.045 C 
BRANCH   3   5
HETATM    5  C   UNL     1     -43.148 -52.564  12.675  1.00  0.00     0.136 C 
HETATM    6  C   UNL     1     -42.710 -53.693  13.615  1.00  0.00     0.036 C 
BRANCH   5   7
HETATM    7  N   UNL     1     -44.522 -52.173  13.004  1.00  0.00    -0.297 N 
HETATM    8  C   UNL     1     -45.011 -51.679  14.184  1.00  0.00     0.112 A 
HETATM    9  C   UNL     1     -46.362 -51.506  14.002  1.00  0.00     0.037 A 
HETATM   10  C   UNL     1     -46.605 -51.959  12.695  1.00  0.00     0.108 A 
HETATM   11  N   UNL     1     -45.495 -52.379  12.085  1.00  0.00    -0.310 N 
ATOM     12  HN  UNL     1     -45.401 -52.767  11.146  1.00  0.00     0.186 HD
ENDBRANCH   5   7
ENDBRANCH   3   5
ENDBRANCH   1   3
BRANCH   1  13
HETATM   13  C   UNL     1     -41.643 -49.077  11.881  1.00  0.00     0.271 C 
BRANCH  13  14
HETATM   14  C   UNL     1     -41.584 -48.453  10.488  1.00  0.00     0.046 C 
BRANCH  14  15
HETATM   15  C   UNL     1     -42.330 -47.131  10.535  1.00  0.00     0.164 C 
BRANCH  15  16
HETATM   16  S   UNL     1     -43.552 -46.964   9.275  1.00  0.00     0.224 S 
HETATM   17  O   UNL     1     -44.800 -47.557   9.692  1.00  0.00    -0.206 OA
HETATM   18  O   UNL     1     -43.469 -45.655   8.678  1.00  0.00    -0.206 OA
BRANCH  16  19
HETATM   19  N   UNL     1     -42.895 -48.036   8.168  1.00  0.00    -0.328 N 
HETATM   20  H   UNL     1     -42.833 -48.994   8.509  1.00  0.00     0.168 HD
HETATM   21  H   UNL     1     -43.183 -47.876   7.205  1.00  0.00     0.168 HD
ENDBRANCH  16  19
ENDBRANCH  15  16
ENDBRANCH  14  15
ENDBRANCH  13  14
ENDBRANCH   1  13
TORSDOF 8
ENDMDL
MODEL 2
REMARK VINA RESULT:      -5.0      4.614      6.442
REMARK  8 active torsions:
REMARK  status: ('A' for Active; 'I' for Inactive)
REMARK    1  A    between atoms: C_2  and  N_3 
REMARK    2  A    between atoms: C_2  and  C_11 
REMARK    3  A    between atoms: N_3  and  C_4 
REMARK    4  A    between atoms: C_4  and  C_5 
REMARK    5  A    between atoms: C_5  and  C_6 
REMARK    6  A    between atoms: C_6  and  S_7 
REMARK    7  A    between atoms: S_7  and  N_10 
REMARK    8  A    between atoms: C_11  and  N_13 
ROOT
HETATM    1  N   UNL     1     -41.863 -49.995  11.564  1.00  0.00     0.089 N 
HETATM    2  H   UNL     1     -41.396 -50.862  11.296  1.00  0.00     0.316 HD
ENDROOT
BRANCH   1   3
HETATM    3  C   UNL     1     -41.122 -48.834  11.014  1.00  0.00     0.240 C 
HETATM    4  C   UNL     1     -39.818 -48.626  11.802  1.00  0.00     0.045 C 
BRANCH   3   5
HETATM    5  C   UNL     1     -41.963 -47.519  10.887  1.00  0.00     0.136 C 
HETATM    6  C   UNL     1     -41.093 -46.279  10.653  1.00  0.00     0.036 C 
BRANCH   5   7
HETATM    7  N   UNL     1     -43.004 -47.575   9.855  1.00  0.00    -0.297 N 
HETATM    8  C   UNL     1     -44.355 -47.401   9.995  1.00  0.00     0.112 A 
HETATM    9  C   UNL     1     -44.901 -47.587   8.747  1.00  0.00     0.037 A 
HETATM   10  C   UNL     1     -43.808 -47.907   7.925  1.00  0.00     0.108 A 
HETATM   11  N   UNL     1     -42.652 -47.915   8.593  1.00  0.00    -0.310 N 
ATOM     12  HN  UNL     1     -41.721 -48.129   8.236  1.00  0.00     0.186 HD
ENDBRANCH   5   7
ENDBRANCH   3   5
ENDBRANCH   1   3
BRANCH   1  13
HETATM   13  C   UNL     1     -42.042 -49.956  13.010  1.00  0.00     0.271 C 
BRANCH  13  14
HETATM   14  C   UNL     1     -41.857 -51.343  13.624  1.00  0.00     0.046 C 
BRANCH  14  15
HETATM   15  C   UNL     1     -40.702 -52.022  12.909  1.00  0.00     0.164 C 
BRANCH  15  16
HETATM   16  S   UNL     1     -40.360 -53.646  13.503  1.00  0.00     0.224 S 
HETATM   17  O   UNL     1     -38.937 -53.870  13.587  1.00  0.00    -0.206 OA
HETATM   18  O   UNL     1     -41.269 -53.984  14.569  1.00  0.00    -0.206 OA
BRANCH  16  19
HETATM   19  N   UNL     1     -40.869 -54.500  12.153  1.00  0.00    -0.328 N 
HETATM   20  H   UNL     1     -40.199 -54.494  11.386  1.00  0.00     0.168 HD
HETATM   21  H   UNL     1     -41.365 -55.363  12.365  1.00  0.00     0.168 HD
ENDBRANCH  16  19
ENDBRANCH  15  16
ENDBRANCH  14  15
ENDBRANCH  13  14
ENDBRANCH   1  13
TORSDOF 8
ENDMDL
MODEL 3
REMARK VINA RESULT:      -5.0      3.809      6.078
REMARK  8 active torsions:
REMARK  status: ('A' for Active; 'I' for Inactive)
REMARK    1  A    between atoms: C_2  and  N_3 
REMARK    2  A    between atoms: C_2  and  C_11 
REMARK    3  A    between atoms: N_3  and  C_4 
REMARK    4  A    between atoms: C_4  and  C_5 
REMARK    5  A    between atoms: C_5  and  C_6 
REMARK    6  A    between atoms: C_6  and  S_7 
REMARK    7  A    between atoms: S_7  and  N_10 
REMARK    8  A    between atoms: C_11  and  N_13 
ROOT
HETATM    1  N   UNL     1     -42.272 -50.182  11.903  1.00  0.00     0.089 N 
HETATM    2  H   UNL     1     -43.113 -50.303  11.337  1.00  0.00     0.316 HD
ENDROOT
BRANCH   1   3
HETATM    3  C   UNL     1     -41.355 -49.222  11.243  1.00  0.00     0.240 C 
HETATM    4  C   UNL     1     -39.996 -49.220  11.962  1.00  0.00     0.045 C 
BRANCH   3   5
HETATM    5  C   UNL     1     -41.938 -47.781  11.055  1.00  0.00     0.136 C 
HETATM    6  C   UNL     1     -40.851 -46.728  10.809  1.00  0.00     0.036 C 
BRANCH   5   7
HETATM    7  N   UNL     1     -42.950 -47.679   9.998  1.00  0.00    -0.297 N 
HETATM    8  C   UNL     1     -44.288 -47.418  10.120  1.00  0.00     0.112 A 
HETATM    9  C   UNL     1     -44.809 -47.466   8.849  1.00  0.00     0.037 A 
HETATM   10  C   UNL     1     -43.719 -47.801   8.030  1.00  0.00     0.108 A 
HETATM   11  N   UNL     1     -42.587 -47.946   8.722  1.00  0.00    -0.310 N 
ATOM     12  HN  UNL     1     -41.663 -48.200   8.371  1.00  0.00     0.186 HD
ENDBRANCH   5   7
ENDBRANCH   3   5
ENDBRANCH   1   3
BRANCH   1  13
HETATM   13  C   UNL     1     -41.673 -51.482  12.181  1.00  0.00     0.271 C 
BRANCH  13  14
HETATM   14  C   UNL     1     -42.340 -52.148  13.383  1.00  0.00     0.046 C 
BRANCH  14  15
HETATM   15  C   UNL     1     -43.023 -53.414  12.898  1.00  0.00     0.164 C 
BRANCH  15  16
HETATM   16  S   UNL     1     -44.734 -53.499  13.312  1.00  0.00     0.224 S 
HETATM   17  O   UNL     1     -45.271 -54.802  13.003  1.00  0.00    -0.206 OA
HETATM   18  O   UNL     1     -44.972 -52.832  14.567  1.00  0.00    -0.206 OA
BRANCH  16  19
HETATM   19  N   UNL     1     -45.315 -52.480  12.114  1.00  0.00    -0.328 N 
HETATM   20  H   UNL     1     -46.176 -51.998  12.365  1.00  0.00     0.168 HD
HETATM   21  H   UNL     1     -44.593 -51.967  11.614  1.00  0.00     0.168 HD
ENDBRANCH  16  19
ENDBRANCH  15  16
ENDBRANCH  14  15
ENDBRANCH  13  14
ENDBRANCH   1  13
TORSDOF 8
ENDMDL
MODEL 4
REMARK VINA RESULT:      -5.0      4.080      4.598
REMARK  8 active torsions:
REMARK  status: ('A' for Active; 'I' for Inactive)
REMARK    1  A    between atoms: C_2  and  N_3 
REMARK    2  A    between atoms: C_2  and  C_11 
REMARK    3  A    between atoms: N_3  and  C_4 
REMARK    4  A    between atoms: C_4  and  C_5 
REMARK    5  A    between atoms: C_5  and  C_6 
REMARK    6  A    between atoms: C_6  and  S_7 
REMARK    7  A    between atoms: S_7  and  N_10 
REMARK    8  A    between atoms: C_11  and  N_13 
ROOT
HETATM    1  N   UNL     1     -42.570 -52.630  11.901  1.00  0.00     0.089 N 
HETATM    2  H   UNL     1     -42.936 -51.716  11.634  1.00  0.00     0.316 HD
ENDROOT
BRANCH   1   3
HETATM    3  C   UNL     1     -43.127 -53.031  13.216  1.00  0.00     0.240 C 
HETATM    4  C   UNL     1     -42.325 -54.213  13.783  1.00  0.00     0.045 C 
BRANCH   3   5
HETATM    5  C   UNL     1     -44.670 -53.293  13.223  1.00  0.00     0.136 C 
HETATM    6  C   UNL     1     -45.020 -54.769  13.445  1.00  0.00     0.036 C 
BRANCH   5   7
HETATM    7  N   UNL     1     -45.410 -52.475  14.190  1.00  0.00    -0.297 N 
HETATM    8  C   UNL     1     -46.761 -52.418  14.403  1.00  0.00     0.112 A 
HETATM    9  C   UNL     1     -46.959 -51.477  15.385  1.00  0.00     0.037 A 
HETATM   10  C   UNL     1     -45.674 -50.991  15.676  1.00  0.00     0.108 A 
HETATM   11  N   UNL     1     -44.727 -51.583  14.945  1.00  0.00    -0.310 N 
ATOM     12  HN  UNL     1     -43.723 -51.404  14.952  1.00  0.00     0.186 HD
ENDBRANCH   5   7
ENDBRANCH   3   5
ENDBRANCH   1   3
BRANCH   1  13
HETATM   13  C   UNL     1     -41.113 -52.614  11.852  1.00  0.00     0.271 C 
BRANCH  13  14
HETATM   14  C   UNL     1     -40.571 -51.208  12.105  1.00  0.00     0.046 C 
BRANCH  14  15
HETATM   15  C   UNL     1     -39.391 -51.324  13.053  1.00  0.00     0.164 C 
BRANCH  15  16
HETATM   16  S   UNL     1     -37.913 -50.585  12.438  1.00  0.00     0.224 S 
HETATM   17  O   UNL     1     -37.651 -49.334  13.107  1.00  0.00    -0.206 OA
HETATM   18  O   UNL     1     -36.903 -51.593  12.239  1.00  0.00    -0.206 OA
BRANCH  16  19
HETATM   19  N   UNL     1     -38.477 -50.169  10.915  1.00  0.00    -0.328 N 
HETATM   20  H   UNL     1     -39.096 -49.359  10.912  1.00  0.00     0.168 HD
HETATM   21  H   UNL     1     -37.789 -50.263  10.172  1.00  0.00     0.168 HD
ENDBRANCH  16  19
ENDBRANCH  15  16
ENDBRANCH  14  15
ENDBRANCH  13  14
ENDBRANCH   1  13
TORSDOF 8
ENDMDL
MODEL 5
REMARK VINA RESULT:      -4.9      1.549      2.022
REMARK  8 active torsions:
REMARK  status: ('A' for Active; 'I' for Inactive)
REMARK    1  A    between atoms: C_2  and  N_3 
REMARK    2  A    between atoms: C_2  and  C_11 
REMARK    3  A    between atoms: N_3  and  C_4 
REMARK    4  A    between atoms: C_4  and  C_5 
REMARK    5  A    between atoms: C_5  and  C_6 
REMARK    6  A    between atoms: C_6  and  S_7 
REMARK    7  A    between atoms: S_7  and  N_10 
REMARK    8  A    between atoms: C_11  and  N_13 
ROOT
HETATM    1  N   UNL     1     -42.646 -49.716  11.758  1.00  0.00     0.089 N 
HETATM    2  H   UNL     1     -43.502 -50.101  11.358  1.00  0.00     0.316 HD
ENDROOT
BRANCH   1   3
HETATM    3  C   UNL     1     -41.992 -50.729  12.620  1.00  0.00     0.240 C 
HETATM    4  C   UNL     1     -40.541 -50.312  12.908  1.00  0.00     0.045 C 
BRANCH   3   5
HETATM    5  C   UNL     1     -42.102 -52.202  12.101  1.00  0.00     0.136 C 
HETATM    6  C   UNL     1     -40.814 -53.005  12.319  1.00  0.00     0.036 C 
BRANCH   5   7
HETATM    7  N   UNL     1     -43.232 -52.950  12.662  1.00  0.00    -0.297 N 
HETATM    8  C   UNL     1     -43.210 -54.000  13.540  1.00  0.00     0.112 A 
HETATM    9  C   UNL     1     -44.519 -54.375  13.728  1.00  0.00     0.037 A 
HETATM   10  C   UNL     1     -45.257 -53.520  12.894  1.00  0.00     0.108 A 
HETATM   11  N   UNL     1     -44.482 -52.660  12.231  1.00  0.00    -0.310 N 
ATOM     12  HN  UNL     1     -44.766 -51.948  11.556  1.00  0.00     0.186 HD
ENDBRANCH   5   7
ENDBRANCH   3   5
ENDBRANCH   1   3
BRANCH   1  13
HETATM   13  C   UNL     1     -42.937 -48.458  12.434  1.00  0.00     0.271 C 
BRANCH  13  14
HETATM   14  C   UNL     1     -43.099 -47.319  11.429  1.00  0.00     0.046 C 
BRANCH  14  15
HETATM   15  C   UNL     1     -42.736 -47.851  10.054  1.00  0.00     0.164 C 
BRANCH  15  16
HETATM   16  S   UNL     1     -43.607 -47.065   8.738  1.00  0.00     0.224 S 
HETATM   17  O   UNL     1     -43.118 -45.723   8.533  1.00  0.00    -0.206 OA
HETATM   18  O   UNL     1     -43.814 -47.996   7.659  1.00  0.00    -0.206 OA
BRANCH  16  19
HETATM   19  N   UNL     1     -45.085 -46.890   9.508  1.00  0.00    -0.328 N 
HETATM   20  H   UNL     1     -45.881 -46.872   8.873  1.00  0.00     0.168 HD
HETATM   21  H   UNL     1     -45.167 -47.405  10.382  1.00  0.00     0.168 HD
ENDBRANCH  16  19
ENDBRANCH  15  16
ENDBRANCH  14  15
ENDBRANCH  13  14
ENDBRANCH   1  13
TORSDOF 8
ENDMDL
MODEL 6
REMARK VINA RESULT:      -4.9      4.245      6.297
REMARK  8 active torsions:
REMARK  status: ('A' for Active; 'I' for Inactive)
REMARK    1  A    between atoms: C_2  and  N_3 
REMARK    2  A    between atoms: C_2  and  C_11 
REMARK    3  A    between atoms: N_3  and  C_4 
REMARK    4  A    between atoms: C_4  and  C_5 
REMARK    5  A    between atoms: C_5  and  C_6 
REMARK    6  A    between atoms: C_6  and  S_7 
REMARK    7  A    between atoms: S_7  and  N_10 
REMARK    8  A    between atoms: C_11  and  N_13 
ROOT
HETATM    1  N   UNL     1     -41.048 -51.892  11.438  1.00  0.00     0.089 N 
HETATM    2  H   UNL     1     -40.341 -52.587  11.684  1.00  0.00     0.316 HD
ENDROOT
BRANCH   1   3
HETATM    3  C   UNL     1     -40.478 -50.529  11.557  1.00  0.00     0.240 C 
HETATM    4  C   UNL     1     -39.094 -50.599  12.222  1.00  0.00     0.045 C 
BRANCH   3   5
HETATM    5  C   UNL     1     -41.420 -49.480  12.238  1.00  0.00     0.136 C 
HETATM    6  C   UNL     1     -40.681 -48.575  13.231  1.00  0.00     0.036 C 
BRANCH   5   7
HETATM    7  N   UNL     1     -42.164 -48.643  11.290  1.00  0.00    -0.297 N 
HETATM    8  C   UNL     1     -43.375 -48.027  11.464  1.00  0.00     0.112 A 
HETATM    9  C   UNL     1     -43.661 -47.395  10.277  1.00  0.00     0.037 A 
HETATM   10  C   UNL     1     -42.585 -47.718   9.434  1.00  0.00     0.108 A 
HETATM   11  N   UNL     1     -41.677 -48.488  10.037  1.00  0.00    -0.310 N 
ATOM     12  HN  UNL     1     -40.816 -48.871   9.645  1.00  0.00     0.186 HD
ENDBRANCH   5   7
ENDBRANCH   3   5
ENDBRANCH   1   3
BRANCH   1  13
HETATM   13  C   UNL     1     -42.250 -52.107  12.236  1.00  0.00     0.271 C 
BRANCH  13  14
HETATM   14  C   UNL     1     -42.103 -53.336  13.130  1.00  0.00     0.046 C 
BRANCH  14  15
HETATM   15  C   UNL     1     -43.157 -53.251  14.220  1.00  0.00     0.164 C 
BRANCH  15  16
HETATM   16  S   UNL     1     -44.412 -54.483  14.088  1.00  0.00     0.224 S 
HETATM   17  O   UNL     1     -44.941 -54.531  12.747  1.00  0.00    -0.206 OA
HETATM   18  O   UNL     1     -44.024 -55.662  14.819  1.00  0.00    -0.206 OA
BRANCH  16  19
HETATM   19  N   UNL     1     -45.587 -53.718  15.006  1.00  0.00    -0.328 N 
HETATM   20  H   UNL     1     -46.453 -53.537  14.499  1.00  0.00     0.168 HD
HETATM   21  H   UNL     1     -45.642 -54.039  15.970  1.00  0.00     0.168 HD
ENDBRANCH  16  19
ENDBRANCH  15  16
ENDBRANCH  14  15
ENDBRANCH  13  14
ENDBRANCH   1  13
TORSDOF 8
ENDMDL
MODEL 7
REMARK VINA RESULT:      -4.9      3.485      5.399
REMARK  8 active torsions:
REMARK  status: ('A' for Active; 'I' for Inactive)
REMARK    1  A    between atoms: C_2  and  N_3 
REMARK    2  A    between atoms: C_2  and  C_11 
REMARK    3  A    between atoms: N_3  and  C_4 
REMARK    4  A    between atoms: C_4  and  C_5 
REMARK    5  A    between atoms: C_5  and  C_6 
REMARK    6  A    between atoms: C_6  and  S_7 
REMARK    7  A    between atoms: S_7  and  N_10 
REMARK    8  A    between atoms: C_11  and  N_13 
ROOT
HETATM    1  N   UNL     1     -42.900 -50.159  12.309  1.00  0.00     0.089 N 
HETATM    2  H   UNL     1     -42.875 -51.176  12.227  1.00  0.00     0.316 HD
ENDROOT
BRANCH   1   3
HETATM    3  C   UNL     1     -41.567 -49.595  11.987  1.00  0.00     0.240 C 
HETATM    4  C   UNL     1     -41.706 -48.513  10.904  1.00  0.00     0.045 C 
BRANCH   3   5
HETATM    5  C   UNL     1     -40.472 -50.658  11.636  1.00  0.00     0.136 C 
HETATM    6  C   UNL     1     -39.047 -50.110  11.778  1.00  0.00     0.036 C 
BRANCH   5   7
HETATM    7  N   UNL     1     -40.583 -51.904  12.401  1.00  0.00    -0.297 N 
HETATM    8  C   UNL     1     -40.347 -52.113  13.733  1.00  0.00     0.112 A 
HETATM    9  C   UNL     1     -40.553 -53.453  13.958  1.00  0.00     0.037 A 
HETATM   10  C   UNL     1     -40.872 -53.980  12.696  1.00  0.00     0.108 A 
HETATM   11  N   UNL     1     -40.880 -53.049  11.740  1.00  0.00    -0.310 N 
ATOM     12  HN  UNL     1     -41.065 -53.170  10.744  1.00  0.00     0.186 HD
ENDBRANCH   5   7
ENDBRANCH   3   5
ENDBRANCH   1   3
BRANCH   1  13
HETATM   13  C   UNL     1     -43.404 -49.781  13.624  1.00  0.00     0.271 C 
BRANCH  13  14
HETATM   14  C   UNL     1     -43.938 -50.997  14.378  1.00  0.00     0.046 C 
BRANCH  14  15
HETATM   15  C   UNL     1     -45.304 -51.338  13.810  1.00  0.00     0.164 C 
BRANCH  15  16
HETATM   16  S   UNL     1     -45.335 -52.848  12.900  1.00  0.00     0.224 S 
HETATM   17  O   UNL     1     -44.103 -53.030  12.172  1.00  0.00    -0.206 OA
HETATM   18  O   UNL     1     -45.938 -53.889  13.692  1.00  0.00    -0.206 OA
BRANCH  16  19
HETATM   19  N   UNL     1     -46.473 -52.405  11.751  1.00  0.00    -0.328 N 
HETATM   20  H   UNL     1     -46.266 -52.746  10.814  1.00  0.00     0.168 HD
HETATM   21  H   UNL     1     -47.435 -52.429  12.081  1.00  0.00     0.168 HD
ENDBRANCH  16  19
ENDBRANCH  15  16
ENDBRANCH  14  15
ENDBRANCH  13  14
ENDBRANCH   1  13
TORSDOF 8
ENDMDL
MODEL 8
REMARK VINA RESULT:      -4.7      2.896      3.632
REMARK  8 active torsions:
REMARK  status: ('A' for Active; 'I' for Inactive)
REMARK    1  A    between atoms: C_2  and  N_3 
REMARK    2  A    between atoms: C_2  and  C_11 
REMARK    3  A    between atoms: N_3  and  C_4 
REMARK    4  A    between atoms: C_4  and  C_5 
REMARK    5  A    between atoms: C_5  and  C_6 
REMARK    6  A    between atoms: C_6  and  S_7 
REMARK    7  A    between atoms: S_7  and  N_10 
REMARK    8  A    between atoms: C_11  and  N_13 
ROOT
HETATM    1  N   UNL     1     -42.056 -49.284  11.160  1.00  0.00     0.089 N 
HETATM    2  H   UNL     1     -43.044 -49.076  11.312  1.00  0.00     0.316 HD
ENDROOT
BRANCH   1   3
HETATM    3  C   UNL     1     -41.492 -49.954  12.355  1.00  0.00     0.240 C 
HETATM    4  C   UNL     1     -41.167 -48.909  13.435  1.00  0.00     0.045 C 
BRANCH   3   5
HETATM    5  C   UNL     1     -40.287 -50.911  12.064  1.00  0.00     0.136 C 
HETATM    6  C   UNL     1     -38.937 -50.305  12.465  1.00  0.00     0.036 C 
BRANCH   5   7
HETATM    7  N   UNL     1     -40.417 -52.237  12.677  1.00  0.00    -0.297 N 
HETATM    8  C   UNL     1     -39.744 -52.750  13.754  1.00  0.00     0.112 A 
HETATM    9  C   UNL     1     -40.192 -54.039  13.912  1.00  0.00     0.037 A 
HETATM   10  C   UNL     1     -41.105 -54.230  12.863  1.00  0.00     0.108 A 
HETATM   11  N   UNL     1     -41.239 -53.144  12.098  1.00  0.00    -0.310 N 
ATOM     12  HN  UNL     1     -41.823 -53.025  11.270  1.00  0.00     0.186 HD
ENDBRANCH   5   7
ENDBRANCH   3   5
ENDBRANCH   1   3
BRANCH   1  13
HETATM   13  C   UNL     1     -41.350 -48.070  10.768  1.00  0.00     0.271 C 
BRANCH  13  14
HETATM   14  C   UNL     1     -42.324 -46.913  10.552  1.00  0.00     0.046 C 
BRANCH  14  15
HETATM   15  C   UNL     1     -43.725 -47.492  10.455  1.00  0.00     0.164 C 
BRANCH  15  16
HETATM   16  S   UNL     1     -44.486 -47.242   8.884  1.00  0.00     0.224 S 
HETATM   17  O   UNL     1     -45.030 -45.909   8.787  1.00  0.00    -0.206 OA
HETATM   18  O   UNL     1     -43.683 -47.837   7.847  1.00  0.00    -0.206 OA
BRANCH  16  19
HETATM   19  N   UNL     1     -45.807 -48.250   9.102  1.00  0.00    -0.328 N 
HETATM   20  H   UNL     1     -45.793 -48.762   9.983  1.00  0.00     0.168 HD
HETATM   21  H   UNL     1     -46.689 -47.864   8.773  1.00  0.00     0.168 HD
ENDBRANCH  16  19
ENDBRANCH  15  16
ENDBRANCH  14  15
ENDBRANCH  13  14
ENDBRANCH   1  13
TORSDOF 8
ENDMDL
MODEL 9
REMARK VINA RESULT:      -4.7      1.114      1.331
REMARK  8 active torsions:
REMARK  status: ('A' for Active; 'I' for Inactive)
REMARK    1  A    between atoms: C_2  and  N_3 
REMARK    2  A    between atoms: C_2  and  C_11 
REMARK    3  A    between atoms: N_3  and  C_4 
REMARK    4  A    between atoms: C_4  and  C_5 
REMARK    5  A    between atoms: C_5  and  C_6 
REMARK    6  A    between atoms: C_6  and  S_7 
REMARK    7  A    between atoms: S_7  and  N_10 
REMARK    8  A    between atoms: C_11  and  N_13 
ROOT
HETATM    1  N   UNL     1     -42.965 -50.177  12.418  1.00  0.00     0.089 N 
HETATM    2  H   UNL     1     -43.564 -49.723  13.109  1.00  0.00     0.316 HD
ENDROOT
BRANCH   1   3
HETATM    3  C   UNL     1     -42.242 -51.310  13.045  1.00  0.00     0.240 C 
HETATM    4  C   UNL     1     -41.510 -52.123  11.965  1.00  0.00     0.045 C 
BRANCH   3   5
HETATM    5  C   UNL     1     -43.116 -52.207  13.984  1.00  0.00     0.136 C 
HETATM    6  C   UNL     1     -42.843 -51.952  15.471  1.00  0.00     0.036 C 
BRANCH   5   7
HETATM    7  N   UNL     1     -44.558 -52.104  13.738  1.00  0.00    -0.297 N 
HETATM    8  C   UNL     1     -45.290 -52.644  12.714  1.00  0.00     0.112 A 
HETATM    9  C   UNL     1     -46.587 -52.230  12.906  1.00  0.00     0.037 A 
HETATM   10  C   UNL     1     -46.535 -51.413  14.047  1.00  0.00     0.108 A 
HETATM   11  N   UNL     1     -45.302 -51.319  14.551  1.00  0.00    -0.310 N 
ATOM     12  HN  UNL     1     -44.994 -50.781  15.361  1.00  0.00     0.186 HD
ENDBRANCH   5   7
ENDBRANCH   3   5
ENDBRANCH   1   3
BRANCH   1  13
HETATM   13  C   UNL     1     -42.095 -49.189  11.792  1.00  0.00     0.271 C 
BRANCH  13  14
HETATM   14  C   UNL     1     -42.910 -48.065  11.155  1.00  0.00     0.046 C 
BRANCH  14  15
HETATM   15  C   UNL     1     -42.363 -47.822   9.759  1.00  0.00     0.164 C 
BRANCH  15  16
HETATM   16  S   UNL     1     -43.557 -47.174   8.635  1.00  0.00     0.224 S 
HETATM   17  O   UNL     1     -44.873 -47.680   8.939  1.00  0.00    -0.206 OA
HETATM   18  O   UNL     1     -43.292 -45.779   8.386  1.00  0.00    -0.206 OA
BRANCH  16  19
HETATM   19  N   UNL     1     -43.063 -48.005   7.266  1.00  0.00    -0.328 N 
HETATM   20  H   UNL     1     -42.340 -48.700   7.444  1.00  0.00     0.168 HD
HETATM   21  H   UNL     1     -43.814 -48.233   6.619  1.00  0.00     0.168 HD
ENDBRANCH  16  19
ENDBRANCH  15  16
ENDBRANCH  14  15
ENDBRANCH  13  14
ENDBRANCH   1  13
TORSDOF 8
ENDMDL
