MODEL 1
REMARK VINA RESULT:      -5.5      0.000      0.000
REMARK  7 active torsions:
REMARK  status: ('A' for Active; 'I' for Inactive)
REMARK    1  A    between atoms: C_2  and  C_3 
REMARK    2  A    between atoms: C_3  and  N_4 
REMARK       I    between atoms: N_4  and  C_5 
REMARK    3  A    between atoms: C_5  and  C_7 
REMARK    4  A    between atoms: C_7  and  N_8 
REMARK    5  A    between atoms: C_11  and  C_12 
REMARK    6  A    between atoms: C_12  and  N_13 
REMARK    7  A    between atoms: N_17  and  C_18 
ROOT
HETATM    1  N   UNL     1     -43.696 -54.647  13.973  1.00  0.00    -0.256 N 
HETATM    2  C   UNL     1     -43.335 -53.702  13.025  1.00  0.00     0.273 A 
HETATM    3  O   UNL     1     -44.095 -53.270  12.164  1.00  0.00    -0.266 OA
HETATM    4  C   UNL     1     -41.933 -53.237  13.075  1.00  0.00     0.110 A 
HETATM    5  C   UNL     1     -41.119 -53.721  14.018  1.00  0.00     0.123 A 
HETATM    6  N   UNL     1     -41.545 -54.639  14.950  1.00  0.00    -0.303 N 
HETATM    7  C   UNL     1     -42.840 -55.171  14.938  1.00  0.00     0.332 A 
HETATM    8  O   UNL     1     -43.211 -56.027  15.746  1.00  0.00    -0.246 OA
ENDROOT
BRANCH   1   9
HETATM    9  C   UNL     1     -45.085 -55.082  14.024  1.00  0.00     0.239 C 
BRANCH   9  10
HETATM   10  C   UNL     1     -45.826 -54.183  15.015  1.00  0.00     0.236 C 
HETATM   11  N   UNL     1     -46.265 -52.989  14.478  1.00  0.00    -0.360 N 
HETATM   12  H   UNL     1     -46.152 -52.832  13.476  1.00  0.00     0.162 HD
HETATM   13  O   UNL     1     -46.083 -54.534  16.162  1.00  0.00    -0.272 OA
BRANCH  11  14
HETATM   14  C   UNL     1     -47.012 -52.021  15.250  1.00  0.00     0.122 C 
BRANCH  14  15
HETATM   15  C   UNL     1     -46.101 -51.029  15.972  1.00  0.00     0.015 C 
HETATM   16  C   UNL     1     -44.799 -50.783  15.223  1.00  0.00     0.006 C 
ENDBRANCH  14  15
ENDBRANCH  11  14
ENDBRANCH   9  10
ENDBRANCH   1   9
BRANCH   4  17
HETATM   17  C   UNL     1     -41.445 -52.186  12.090  1.00  0.00    -0.030 C 
BRANCH  17  18
HETATM   18  N   UNL     1     -41.040 -51.316  11.272  1.00  0.00    -0.365 N 
ATOM     19  HN2 UNL     1     -41.339 -52.002  11.965  1.00  0.00     0.165 HD
ATOM     20  HN1 UNL     1     -40.713 -50.612  10.610  1.00  0.00     0.165 HD
ENDBRANCH  17  18
ENDBRANCH   4  17
BRANCH   6  21
HETATM   21  C   UNL     1     -40.658 -55.046  16.021  1.00  0.00     0.094 A 
HETATM   22  C   UNL     1     -40.520 -54.119  17.211  1.00  0.00     0.028 A 
HETATM   23  C   UNL     1     -39.324 -54.437  16.370  1.00  0.00     0.028 A 
ENDBRANCH   6  21
TORSDOF 7
ENDMDL
MODEL 2
REMARK VINA RESULT:      -5.5      2.007      5.108
REMARK  7 active torsions:
REMARK  status: ('A' for Active; 'I' for Inactive)
REMARK    1  A    between atoms: C_2  and  C_3 
REMARK    2  A    between atoms: C_3  and  N_4 
REMARK       I    between atoms: N_4  and  C_5 
REMARK    3  A    between atoms: C_5  and  C_7 
REMARK    4  A    between atoms: C_7  and  N_8 
REMARK    5  A    between atoms: C_11  and  C_12 
REMARK    6  A    between atoms: C_12  and  N_13 
REMARK    7  A    between atoms: N_17  and  C_18 
ROOT
HETATM    1  N   UNL     1     -44.844 -53.861  14.498  1.00  0.00    -0.256 N 
HETATM    2  C   UNL     1     -45.299 -53.397  13.273  1.00  0.00     0.273 A 
HETATM    3  O   UNL     1     -44.932 -53.845  12.191  1.00  0.00    -0.266 OA
HETATM    4  C   UNL     1     -46.260 -52.276  13.322  1.00  0.00     0.110 A 
HETATM    5  C   UNL     1     -46.646 -51.798  14.509  1.00  0.00     0.123 A 
HETATM    6  N   UNL     1     -46.178 -52.321  15.694  1.00  0.00    -0.303 N 
HETATM    7  C   UNL     1     -45.225 -53.345  15.734  1.00  0.00     0.332 A 
HETATM    8  O   UNL     1     -44.771 -53.786  16.793  1.00  0.00    -0.246 OA
ENDROOT
BRANCH   1   9
HETATM    9  C   UNL     1     -43.958 -55.017  14.516  1.00  0.00     0.239 C 
BRANCH   9  10
HETATM   10  C   UNL     1     -42.520 -54.512  14.388  1.00  0.00     0.236 C 
HETATM   11  N   UNL     1     -42.144 -54.190  13.100  1.00  0.00    -0.360 N 
HETATM   12  H   UNL     1     -42.849 -54.220  12.363  1.00  0.00     0.162 HD
HETATM   13  O   UNL     1     -41.795 -54.329  15.361  1.00  0.00    -0.272 OA
BRANCH  11  14
HETATM   14  C   UNL     1     -40.833 -53.666  12.783  1.00  0.00     0.122 C 
BRANCH  14  15
HETATM   15  C   UNL     1     -40.907 -52.331  12.042  1.00  0.00     0.015 C 
HETATM   16  C   UNL     1     -42.158 -51.538  12.395  1.00  0.00     0.006 C 
ENDBRANCH  14  15
ENDBRANCH  11  14
ENDBRANCH   9  10
ENDBRANCH   1   9
BRANCH   4  17
HETATM   17  C   UNL     1     -46.834 -51.709  12.032  1.00  0.00    -0.030 C 
BRANCH  17  18
HETATM   18  N   UNL     1     -47.308 -51.240  10.962  1.00  0.00    -0.365 N 
ATOM     19  HN2 UNL     1     -46.944 -51.659  11.817  1.00  0.00     0.165 HD
ATOM     20  HN1 UNL     1     -47.693 -50.860  10.098  1.00  0.00     0.165 HD
ENDBRANCH  17  18
ENDBRANCH   4  17
BRANCH   6  21
HETATM   21  C   UNL     1     -46.712 -51.846  16.953  1.00  0.00     0.094 A 
HETATM   22  C   UNL     1     -48.053 -51.143  16.928  1.00  0.00     0.028 A 
HETATM   23  C   UNL     1     -46.836 -50.412  17.399  1.00  0.00     0.028 A 
ENDBRANCH   6  21
TORSDOF 7
ENDMDL
MODEL 3
REMARK VINA RESULT:      -5.3      4.644      6.693
REMARK  7 active torsions:
REMARK  status: ('A' for Active; 'I' for Inactive)
REMARK    1  A    between atoms: C_2  and  C_3 
REMARK    2  A    between atoms: C_3  and  N_4 
REMARK       I    between atoms: N_4  and  C_5 
REMARK    3  A    between atoms: C_5  and  C_7 
REMARK    4  A    between atoms: C_7  and  N_8 
REMARK    5  A    between atoms: C_11  and  C_12 
REMARK    6  A    between atoms: C_12  and  N_13 
REMARK    7  A    between atoms: N_17  and  C_18 
ROOT
HETATM    1  N   UNL     1     -41.715 -48.740  12.599  1.00  0.00    -0.256 N 
HETATM    2  C   UNL     1     -42.400 -49.945  12.563  1.00  0.00     0.273 A 
HETATM    3  O   UNL     1     -43.624 -50.037  12.538  1.00  0.00    -0.266 OA
HETATM    4  C   UNL     1     -41.567 -51.165  12.586  1.00  0.00     0.110 A 
HETATM    5  C   UNL     1     -40.236 -51.045  12.618  1.00  0.00     0.123 A 
HETATM    6  N   UNL     1     -39.613 -49.817  12.624  1.00  0.00    -0.303 N 
HETATM    7  C   UNL     1     -40.330 -48.615  12.659  1.00  0.00     0.332 A 
HETATM    8  O   UNL     1     -39.774 -47.515  12.709  1.00  0.00    -0.246 OA
ENDROOT
BRANCH   1   9
HETATM    9  C   UNL     1     -42.480 -47.504  12.496  1.00  0.00     0.239 C 
BRANCH   9  10
HETATM   10  C   UNL     1     -42.759 -47.242  11.016  1.00  0.00     0.236 C 
HETATM   11  N   UNL     1     -43.994 -47.683  10.584  1.00  0.00    -0.360 N 
HETATM   12  H   UNL     1     -44.649 -48.054  11.273  1.00  0.00     0.162 HD
HETATM   13  O   UNL     1     -41.984 -46.617  10.298  1.00  0.00    -0.272 OA
BRANCH  11  14
HETATM   14  C   UNL     1     -44.451 -47.497   9.225  1.00  0.00     0.122 C 
BRANCH  14  15
HETATM   15  C   UNL     1     -45.976 -47.475   9.125  1.00  0.00     0.015 C 
HETATM   16  C   UNL     1     -46.527 -48.669   8.358  1.00  0.00     0.006 C 
ENDBRANCH  14  15
ENDBRANCH  11  14
ENDBRANCH   9  10
ENDBRANCH   1   9
BRANCH   4  17
HETATM   17  C   UNL     1     -42.223 -52.536  12.530  1.00  0.00    -0.030 C 
BRANCH  17  18
HETATM   18  N   UNL     1     -42.766 -53.672  12.483  1.00  0.00    -0.365 N 
ATOM     19  HN2 UNL     1     -42.301 -52.765  12.485  1.00  0.00     0.165 HD
ATOM     20  HN1 UNL     1     -43.206 -54.592  12.446  1.00  0.00     0.165 HD
ENDBRANCH  17  18
ENDBRANCH   4  17
BRANCH   6  21
HETATM   21  C   UNL     1     -38.169 -49.740  12.542  1.00  0.00     0.094 A 
HETATM   22  C   UNL     1     -37.532 -49.911  11.179  1.00  0.00     0.028 A 
HETATM   23  C   UNL     1     -37.216 -50.877  12.276  1.00  0.00     0.028 A 
ENDBRANCH   6  21
TORSDOF 7
ENDMDL
MODEL 4
REMARK VINA RESULT:      -5.2      3.360      5.539
REMARK  7 active torsions:
REMARK  status: ('A' for Active; 'I' for Inactive)
REMARK    1  A    between atoms: C_2  and  C_3 
REMARK    2  A    between atoms: C_3  and  N_4 
REMARK       I    between atoms: N_4  and  C_5 
REMARK    3  A    between atoms: C_5  and  C_7 
REMARK    4  A    between atoms: C_7  and  N_8 
REMARK    5  A    between atoms: C_11  and  C_12 
REMARK    6  A    between atoms: C_12  and  N_13 
REMARK    7  A    between atoms: N_17  and  C_18 
ROOT
HETATM    1  N   UNL     1     -42.113 -51.092  13.257  1.00  0.00    -0.256 N 
HETATM    2  C   UNL     1     -40.959 -51.852  13.378  1.00  0.00     0.273 A 
HETATM    3  O   UNL     1     -39.829 -51.377  13.428  1.00  0.00    -0.266 OA
HETATM    4  C   UNL     1     -41.149 -53.316  13.418  1.00  0.00     0.110 A 
HETATM    5  C   UNL     1     -42.388 -53.815  13.360  1.00  0.00     0.123 A 
HETATM    6  N   UNL     1     -43.498 -53.006  13.268  1.00  0.00    -0.303 N 
HETATM    7  C   UNL     1     -43.402 -51.613  13.169  1.00  0.00     0.332 A 
HETATM    8  O   UNL     1     -44.392 -50.889  13.042  1.00  0.00    -0.246 OA
ENDROOT
BRANCH   1   9
HETATM    9  C   UNL     1     -41.995 -49.641  13.294  1.00  0.00     0.239 C 
BRANCH   9  10
HETATM   10  C   UNL     1     -41.998 -49.130  11.853  1.00  0.00     0.236 C 
HETATM   11  N   UNL     1     -43.108 -48.382  11.518  1.00  0.00    -0.360 N 
HETATM   12  H   UNL     1     -43.782 -48.151  12.250  1.00  0.00     0.162 HD
HETATM   13  O   UNL     1     -41.052 -49.298  11.090  1.00  0.00    -0.272 OA
BRANCH  11  14
HETATM   14  C   UNL     1     -43.277 -47.786  10.210  1.00  0.00     0.122 C 
BRANCH  14  15
HETATM   15  C   UNL     1     -44.738 -47.451   9.911  1.00  0.00     0.015 C 
HETATM   16  C   UNL     1     -45.141 -47.826   8.492  1.00  0.00     0.006 C 
ENDBRANCH  14  15
ENDBRANCH  11  14
ENDBRANCH   9  10
ENDBRANCH   1   9
BRANCH   4  17
HETATM   17  C   UNL     1     -39.947 -54.235  13.570  1.00  0.00    -0.030 C 
BRANCH  17  18
HETATM   18  N   UNL     1     -38.950 -54.996  13.697  1.00  0.00    -0.365 N 
ATOM     19  HN2 UNL     1     -39.764 -54.399  13.553  1.00  0.00     0.165 HD
ATOM     20  HN1 UNL     1     -38.143 -55.612  13.800  1.00  0.00     0.165 HD
ENDBRANCH  17  18
ENDBRANCH   4  17
BRANCH   6  21
HETATM   21  C   UNL     1     -44.823 -53.589  13.324  1.00  0.00     0.094 A 
HETATM   22  C   UNL     1     -45.406 -53.880  14.690  1.00  0.00     0.028 A 
HETATM   23  C   UNL     1     -45.174 -54.999  13.725  1.00  0.00     0.028 A 
ENDBRANCH   6  21
TORSDOF 7
ENDMDL
MODEL 5
REMARK VINA RESULT:      -5.1      2.265      5.120
REMARK  7 active torsions:
REMARK  status: ('A' for Active; 'I' for Inactive)
REMARK    1  A    between atoms: C_2  and  C_3 
REMARK    2  A    between atoms: C_3  and  N_4 
REMARK       I    between atoms: N_4  and  C_5 
REMARK    3  A    between atoms: C_5  and  C_7 
REMARK    4  A    between atoms: C_7  and  N_8 
REMARK    5  A    between atoms: C_11  and  C_12 
REMARK    6  A    between atoms: C_12  and  N_13 
REMARK    7  A    between atoms: N_17  and  C_18 
ROOT
HETATM    1  N   UNL     1     -42.039 -53.642  13.189  1.00  0.00    -0.256 N 
HETATM    2  C   UNL     1     -43.401 -53.891  13.107  1.00  0.00     0.273 A 
HETATM    3  O   UNL     1     -44.083 -53.649  12.116  1.00  0.00    -0.266 OA
HETATM    4  C   UNL     1     -44.030 -54.456  14.319  1.00  0.00     0.110 A 
HETATM    5  C   UNL     1     -43.271 -54.710  15.390  1.00  0.00     0.123 A 
HETATM    6  N   UNL     1     -41.916 -54.466  15.400  1.00  0.00    -0.303 N 
HETATM    7  C   UNL     1     -41.254 -53.882  14.314  1.00  0.00     0.332 A 
HETATM    8  O   UNL     1     -40.048 -53.621  14.336  1.00  0.00    -0.246 OA
ENDROOT
BRANCH   1   9
HETATM    9  C   UNL     1     -41.349 -53.162  12.000  1.00  0.00     0.239 C 
BRANCH   9  10
HETATM   10  C   UNL     1     -41.141 -51.654  12.150  1.00  0.00     0.236 C 
HETATM   11  N   UNL     1     -39.821 -51.256  12.100  1.00  0.00    -0.360 N 
HETATM   12  H   UNL     1     -39.107 -51.953  11.882  1.00  0.00     0.162 HD
HETATM   13  O   UNL     1     -42.076 -50.862  12.222  1.00  0.00    -0.272 OA
BRANCH  11  14
HETATM   14  C   UNL     1     -39.426 -49.867  12.193  1.00  0.00     0.122 C 
BRANCH  14  15
HETATM   15  C   UNL     1     -37.908 -49.702  12.270  1.00  0.00     0.015 C 
HETATM   16  C   UNL     1     -37.220 -50.028  10.952  1.00  0.00     0.006 C 
ENDBRANCH  14  15
ENDBRANCH  11  14
ENDBRANCH   9  10
ENDBRANCH   1   9
BRANCH   4  17
HETATM   17  C   UNL     1     -45.515 -54.783  14.323  1.00  0.00    -0.030 C 
BRANCH  17  18
HETATM   18  N   UNL     1     -46.746 -55.054  14.325  1.00  0.00    -0.365 N 
ATOM     19  HN2 UNL     1     -45.745 -54.864  14.288  1.00  0.00     0.165 HD
ATOM     20  HN1 UNL     1     -47.742 -55.273  14.327  1.00  0.00     0.165 HD
ENDBRANCH  17  18
ENDBRANCH   4  17
BRANCH   6  21
HETATM   21  C   UNL     1     -41.120 -54.865  16.542  1.00  0.00     0.094 A 
HETATM   22  C   UNL     1     -40.592 -56.284  16.570  1.00  0.00     0.028 A 
HETATM   23  C   UNL     1     -41.525 -55.814  17.640  1.00  0.00     0.028 A 
ENDBRANCH   6  21
TORSDOF 7
ENDMDL
MODEL 6
REMARK VINA RESULT:      -5.1      2.091      4.218
REMARK  7 active torsions:
REMARK  status: ('A' for Active; 'I' for Inactive)
REMARK    1  A    between atoms: C_2  and  C_3 
REMARK    2  A    between atoms: C_3  and  N_4 
REMARK       I    between atoms: N_4  and  C_5 
REMARK    3  A    between atoms: C_5  and  C_7 
REMARK    4  A    between atoms: C_7  and  N_8 
REMARK    5  A    between atoms: C_11  and  C_12 
REMARK    6  A    between atoms: C_12  and  N_13 
REMARK    7  A    between atoms: N_17  and  C_18 
ROOT
HETATM    1  N   UNL     1     -41.690 -53.809  13.441  1.00  0.00    -0.256 N 
HETATM    2  C   UNL     1     -43.062 -53.934  13.277  1.00  0.00     0.273 A 
HETATM    3  O   UNL     1     -43.670 -53.560  12.279  1.00  0.00    -0.266 OA
HETATM    4  C   UNL     1     -43.797 -54.533  14.410  1.00  0.00     0.110 A 
HETATM    5  C   UNL     1     -43.118 -54.932  15.491  1.00  0.00     0.123 A 
HETATM    6  N   UNL     1     -41.750 -54.806  15.582  1.00  0.00    -0.303 N 
HETATM    7  C   UNL     1     -40.987 -54.200  14.577  1.00  0.00     0.332 A 
HETATM    8  O   UNL     1     -39.766 -54.045  14.675  1.00  0.00    -0.246 OA
ENDROOT
BRANCH   1   9
HETATM    9  C   UNL     1     -40.902 -53.300  12.326  1.00  0.00     0.239 C 
BRANCH   9  10
HETATM   10  C   UNL     1     -40.811 -51.780  12.466  1.00  0.00     0.236 C 
HETATM   11  N   UNL     1     -41.871 -51.095  11.908  1.00  0.00    -0.360 N 
HETATM   12  H   UNL     1     -42.658 -51.629  11.536  1.00  0.00     0.162 HD
HETATM   13  O   UNL     1     -39.916 -51.227  13.097  1.00  0.00    -0.272 OA
BRANCH  11  14
HETATM   14  C   UNL     1     -41.980 -49.654  11.967  1.00  0.00     0.122 C 
BRANCH  14  15
HETATM   15  C   UNL     1     -43.202 -49.197  12.763  1.00  0.00     0.015 C 
HETATM   16  C   UNL     1     -43.789 -50.313  13.617  1.00  0.00     0.006 C 
ENDBRANCH  14  15
ENDBRANCH  11  14
ENDBRANCH   9  10
ENDBRANCH   1   9
BRANCH   4  17
HETATM   17  C   UNL     1     -45.302 -54.732  14.320  1.00  0.00    -0.030 C 
BRANCH  17  18
HETATM   18  N   UNL     1     -46.550 -54.897  14.247  1.00  0.00    -0.365 N 
ATOM     19  HN2 UNL     1     -45.536 -54.808  14.313  1.00  0.00     0.165 HD
ATOM     20  HN1 UNL     1     -47.559 -55.029  14.187  1.00  0.00     0.165 HD
ENDBRANCH  17  18
ENDBRANCH   4  17
BRANCH   6  21
HETATM   21  C   UNL     1     -41.049 -55.357  16.723  1.00  0.00     0.094 A 
HETATM   22  C   UNL     1     -40.858 -56.858  16.773  1.00  0.00     0.028 A 
HETATM   23  C   UNL     1     -41.644 -56.170  17.844  1.00  0.00     0.028 A 
ENDBRANCH   6  21
TORSDOF 7
ENDMDL
MODEL 7
REMARK VINA RESULT:      -5.0      5.576      7.432
REMARK  7 active torsions:
REMARK  status: ('A' for Active; 'I' for Inactive)
REMARK    1  A    between atoms: C_2  and  C_3 
REMARK    2  A    between atoms: C_3  and  N_4 
REMARK       I    between atoms: N_4  and  C_5 
REMARK    3  A    between atoms: C_5  and  C_7 
REMARK    4  A    between atoms: C_7  and  N_8 
REMARK    5  A    between atoms: C_11  and  C_12 
REMARK    6  A    between atoms: C_12  and  N_13 
REMARK    7  A    between atoms: N_17  and  C_18 
ROOT
HETATM    1  N   UNL     1     -40.241 -47.598  11.839  1.00  0.00    -0.256 N 
HETATM    2  C   UNL     1     -40.669 -48.822  11.347  1.00  0.00     0.273 A 
HETATM    3  O   UNL     1     -41.227 -48.967  10.263  1.00  0.00    -0.266 OA
HETATM    4  C   UNL     1     -40.444 -49.988  12.226  1.00  0.00     0.110 A 
HETATM    5  C   UNL     1     -39.838 -49.809  13.404  1.00  0.00     0.123 A 
HETATM    6  N   UNL     1     -39.411 -48.570  13.825  1.00  0.00    -0.303 N 
HETATM    7  C   UNL     1     -39.635 -47.408  13.078  1.00  0.00     0.332 A 
HETATM    8  O   UNL     1     -39.292 -46.291  13.473  1.00  0.00    -0.246 OA
ENDROOT
BRANCH   1   9
HETATM    9  C   UNL     1     -40.363 -46.425  10.983  1.00  0.00     0.239 C 
BRANCH   9  10
HETATM   10  C   UNL     1     -41.851 -46.126  10.800  1.00  0.00     0.236 C 
HETATM   11  N   UNL     1     -42.311 -46.306   9.511  1.00  0.00    -0.360 N 
HETATM   12  H   UNL     1     -41.677 -46.699   8.815  1.00  0.00     0.162 HD
HETATM   13  O   UNL     1     -42.588 -45.835  11.738  1.00  0.00    -0.272 OA
BRANCH  11  14
HETATM   14  C   UNL     1     -43.697 -46.102   9.147  1.00  0.00     0.122 C 
BRANCH  14  15
HETATM   15  C   UNL     1     -44.511 -47.393   9.228  1.00  0.00     0.015 C 
HETATM   16  C   UNL     1     -46.010 -47.142   9.138  1.00  0.00     0.006 C 
ENDBRANCH  14  15
ENDBRANCH  11  14
ENDBRANCH   9  10
ENDBRANCH   1   9
BRANCH   4  17
HETATM   17  C   UNL     1     -40.860 -51.377  11.767  1.00  0.00    -0.030 C 
BRANCH  17  18
HETATM   18  N   UNL     1     -41.204 -52.529  11.388  1.00  0.00    -0.365 N 
ATOM     19  HN2 UNL     1     -40.909 -51.590  11.653  1.00  0.00     0.165 HD
ATOM     20  HN1 UNL     1     -41.482 -53.461  11.082  1.00  0.00     0.165 HD
ENDBRANCH  17  18
ENDBRANCH   4  17
BRANCH   6  21
HETATM   21  C   UNL     1     -38.658 -48.447  15.057  1.00  0.00     0.094 A 
HETATM   22  C   UNL     1     -37.236 -48.966  15.066  1.00  0.00     0.028 A 
HETATM   23  C   UNL     1     -38.254 -49.563  15.985  1.00  0.00     0.028 A 
ENDBRANCH   6  21
TORSDOF 7
ENDMDL
MODEL 8
REMARK VINA RESULT:      -5.0      2.759      4.698
REMARK  7 active torsions:
REMARK  status: ('A' for Active; 'I' for Inactive)
REMARK    1  A    between atoms: C_2  and  C_3 
REMARK    2  A    between atoms: C_3  and  N_4 
REMARK       I    between atoms: N_4  and  C_5 
REMARK    3  A    between atoms: C_5  and  C_7 
REMARK    4  A    between atoms: C_7  and  N_8 
REMARK    5  A    between atoms: C_11  and  C_12 
REMARK    6  A    between atoms: C_12  and  N_13 
REMARK    7  A    between atoms: N_17  and  C_18 
ROOT
HETATM    1  N   UNL     1     -40.706 -53.201  13.516  1.00  0.00    -0.256 N 
HETATM    2  C   UNL     1     -40.164 -53.504  14.756  1.00  0.00     0.273 A 
HETATM    3  O   UNL     1     -40.434 -54.519  15.392  1.00  0.00    -0.266 OA
HETATM    4  C   UNL     1     -39.233 -52.504  15.318  1.00  0.00     0.110 A 
HETATM    5  C   UNL     1     -38.954 -51.404  14.613  1.00  0.00     0.123 A 
HETATM    6  N   UNL     1     -39.504 -51.172  13.372  1.00  0.00    -0.303 N 
HETATM    7  C   UNL     1     -40.436 -52.042  12.793  1.00  0.00     0.332 A 
HETATM    8  O   UNL     1     -40.964 -51.815  11.702  1.00  0.00    -0.246 OA
ENDROOT
BRANCH   1   9
HETATM    9  C   UNL     1     -41.567 -54.186  12.876  1.00  0.00     0.239 C 
BRANCH   9  10
HETATM   10  C   UNL     1     -43.014 -53.867  13.254  1.00  0.00     0.236 C 
HETATM   11  N   UNL     1     -43.715 -53.179  12.284  1.00  0.00    -0.360 N 
HETATM   12  H   UNL     1     -43.270 -53.017  11.380  1.00  0.00     0.162 HD
HETATM   13  O   UNL     1     -43.529 -54.265  14.294  1.00  0.00    -0.272 OA
BRANCH  11  14
HETATM   14  C   UNL     1     -45.106 -52.814  12.445  1.00  0.00     0.122 C 
BRANCH  14  15
HETATM   15  C   UNL     1     -45.273 -51.473  13.160  1.00  0.00     0.015 C 
HETATM   16  C   UNL     1     -46.470 -51.461  14.100  1.00  0.00     0.006 C 
ENDBRANCH  14  15
ENDBRANCH  11  14
ENDBRANCH   9  10
ENDBRANCH   1   9
BRANCH   4  17
HETATM   17  C   UNL     1     -38.571 -52.755  16.665  1.00  0.00    -0.030 C 
BRANCH  17  18
HETATM   18  N   UNL     1     -38.021 -52.962  17.780  1.00  0.00    -0.365 N 
ATOM     19  HN2 UNL     1     -38.424 -52.787  16.860  1.00  0.00     0.165 HD
ATOM     20  HN1 UNL     1     -37.576 -53.129  18.682  1.00  0.00     0.165 HD
ENDBRANCH  17  18
ENDBRANCH   4  17
BRANCH   6  21
HETATM   21  C   UNL     1     -39.081 -50.023  12.599  1.00  0.00     0.094 A 
HETATM   22  C   UNL     1     -37.801 -50.145  11.799  1.00  0.00     0.028 A 
HETATM   23  C   UNL     1     -37.908 -49.122  12.885  1.00  0.00     0.028 A 
ENDBRANCH   6  21
TORSDOF 7
ENDMDL
MODEL 9
REMARK VINA RESULT:      -5.0      2.103      5.414
REMARK  7 active torsions:
REMARK  status: ('A' for Active; 'I' for Inactive)
REMARK    1  A    between atoms: C_2  and  C_3 
REMARK    2  A    between atoms: C_3  and  N_4 
REMARK       I    between atoms: N_4  and  C_5 
REMARK    3  A    between atoms: C_5  and  C_7 
REMARK    4  A    between atoms: C_7  and  N_8 
REMARK    5  A    between atoms: C_11  and  C_12 
REMARK    6  A    between atoms: C_12  and  N_13 
REMARK    7  A    between atoms: N_17  and  C_18 
ROOT
HETATM    1  N   UNL     1     -43.957 -52.516  14.571  1.00  0.00    -0.256 N 
HETATM    2  C   UNL     1     -44.600 -52.544  13.342  1.00  0.00     0.273 A 
HETATM    3  O   UNL     1     -44.103 -53.007  12.320  1.00  0.00    -0.266 OA
HETATM    4  C   UNL     1     -45.950 -51.945  13.304  1.00  0.00     0.110 A 
HETATM    5  C   UNL     1     -46.472 -51.443  14.427  1.00  0.00     0.123 A 
HETATM    6  N   UNL     1     -45.794 -51.469  15.625  1.00  0.00    -0.303 N 
HETATM    7  C   UNL     1     -44.491 -51.968  15.735  1.00  0.00     0.332 A 
HETATM    8  O   UNL     1     -43.863 -51.953  16.797  1.00  0.00    -0.246 OA
ENDROOT
BRANCH   1   9
HETATM    9  C   UNL     1     -42.657 -53.164  14.689  1.00  0.00     0.239 C 
BRANCH   9  10
HETATM   10  C   UNL     1     -42.869 -54.534  15.335  1.00  0.00     0.236 C 
HETATM   11  N   UNL     1     -42.117 -54.747  16.472  1.00  0.00    -0.360 N 
HETATM   12  H   UNL     1     -41.561 -53.975  16.843  1.00  0.00     0.162 HD
HETATM   13  O   UNL     1     -43.702 -55.337  14.925  1.00  0.00    -0.272 OA
BRANCH  11  14
HETATM   14  C   UNL     1     -42.202 -55.969  17.241  1.00  0.00     0.122 C 
BRANCH  14  15
HETATM   15  C   UNL     1     -40.975 -56.860  17.051  1.00  0.00     0.015 C 
HETATM   16  C   UNL     1     -39.751 -56.075  16.598  1.00  0.00     0.006 C 
ENDBRANCH  14  15
ENDBRANCH  11  14
ENDBRANCH   9  10
ENDBRANCH   1   9
BRANCH   4  17
HETATM   17  C   UNL     1     -46.745 -51.945  12.008  1.00  0.00    -0.030 C 
BRANCH  17  18
HETATM   18  N   UNL     1     -47.405 -51.945  10.934  1.00  0.00    -0.365 N 
ATOM     19  HN2 UNL     1     -46.846 -51.911  11.786  1.00  0.00     0.165 HD
ATOM     20  HN1 UNL     1     -47.940 -51.946  10.065  1.00  0.00     0.165 HD
ENDBRANCH  17  18
ENDBRANCH   4  17
BRANCH   6  21
HETATM   21  C   UNL     1     -46.448 -51.017  16.835  1.00  0.00     0.094 A 
HETATM   22  C   UNL     1     -47.174 -52.050  17.670  1.00  0.00     0.028 A 
HETATM   23  C   UNL     1     -47.932 -50.907  17.074  1.00  0.00     0.028 A 
ENDBRANCH   6  21
TORSDOF 7
ENDMDL
