MODEL 1
REMARK VINA RESULT:      -5.8      0.000      0.000
REMARK  6 active torsions:
REMARK  status: ('A' for Active; 'I' for Inactive)
REMARK    1  A    between atoms: C_2  and  N_3 
REMARK       I    between atoms: N_3  and  C_4 
REMARK    2  A    between atoms: C_4  and  C_6 
REMARK    3  A    between atoms: C_6  and  N_7 
REMARK    4  A    between atoms: C_10  and  C_11 
REMARK    5  A    between atoms: C_11  and  N_12 
REMARK    6  A    between atoms: N_16  and  C_17 
ROOT
HETATM    1  N   UNL     1     -44.881 -54.057  14.508  1.00  0.00    -0.256 N 
HETATM    2  C   UNL     1     -45.265 -53.519  13.286  1.00  0.00     0.273 A 
HETATM    3  O   UNL     1     -44.832 -53.907  12.204  1.00  0.00    -0.266 OA
HETATM    4  C   UNL     1     -46.276 -52.447  13.346  1.00  0.00     0.110 A 
HETATM    5  C   UNL     1     -46.761 -52.070  14.531  1.00  0.00     0.123 A 
HETATM    6  N   UNL     1     -46.354 -52.654  15.707  1.00  0.00    -0.303 N 
HETATM    7  C   UNL     1     -45.359 -53.641  15.751  1.00  0.00     0.332 A 
HETATM    8  O   UNL     1     -44.956 -54.129  16.808  1.00  0.00    -0.246 OA
ENDROOT
BRANCH   1   9
HETATM    9  C   UNL     1     -43.860 -55.094  14.494  1.00  0.00     0.239 C 
BRANCH   9  10
HETATM   10  C   UNL     1     -42.459 -54.482  14.410  1.00  0.00     0.236 C 
HETATM   11  N   UNL     1     -42.023 -54.292  13.110  1.00  0.00    -0.360 N 
HETATM   12  H   UNL     1     -42.583 -54.637  12.340  1.00  0.00     0.162 HD
HETATM   13  O   UNL     1     -41.793 -54.179  15.397  1.00  0.00    -0.272 OA
BRANCH  11  14
HETATM   14  C   UNL     1     -40.727 -53.721  12.807  1.00  0.00     0.118 C 
HETATM   15  C   UNL     1     -40.850 -52.346  12.175  1.00  0.00     0.026 C 
ENDBRANCH  11  14
ENDBRANCH   9  10
ENDBRANCH   1   9
BRANCH   4  16
HETATM   16  C   UNL     1     -46.806 -51.804  12.075  1.00  0.00    -0.030 C 
BRANCH  16  17
HETATM   17  N   UNL     1     -47.246 -51.272  11.020  1.00  0.00    -0.365 N 
ATOM     18  HN2 UNL     1     -46.883 -51.661  11.891  1.00  0.00     0.165 HD
ATOM     19  HN1 UNL     1     -47.601 -50.842  10.166  1.00  0.00     0.165 HD
ENDBRANCH  16  17
ENDBRANCH   4  16
BRANCH   6  20
HETATM   20  C   UNL     1     -46.953 -52.187  16.940  1.00  0.00     0.094 A 
HETATM   21  C   UNL     1     -47.976 -51.076  16.916  1.00  0.00     0.028 A 
HETATM   22  C   UNL     1     -46.644 -50.841  17.555  1.00  0.00     0.028 A 
ENDBRANCH   6  20
TORSDOF 6
ENDMDL
MODEL 2
REMARK VINA RESULT:      -5.6      2.010      5.382
REMARK  6 active torsions:
REMARK  status: ('A' for Active; 'I' for Inactive)
REMARK    1  A    between atoms: C_2  and  N_3 
REMARK       I    between atoms: N_3  and  C_4 
REMARK    2  A    between atoms: C_4  and  C_6 
REMARK    3  A    between atoms: C_6  and  N_7 
REMARK    4  A    between atoms: C_10  and  C_11 
REMARK    5  A    between atoms: C_11  and  N_12 
REMARK    6  A    between atoms: N_16  and  C_17 
ROOT
HETATM    1  N   UNL     1     -43.506 -54.492  14.064  1.00  0.00    -0.256 N 
HETATM    2  C   UNL     1     -43.170 -53.604  13.050  1.00  0.00     0.273 A 
HETATM    3  O   UNL     1     -43.962 -53.215  12.195  1.00  0.00    -0.266 OA
HETATM    4  C   UNL     1     -41.782 -53.107  13.065  1.00  0.00     0.110 A 
HETATM    5  C   UNL     1     -40.952 -53.514  14.027  1.00  0.00     0.123 A 
HETATM    6  N   UNL     1     -41.348 -54.382  15.017  1.00  0.00    -0.303 N 
HETATM    7  C   UNL     1     -42.630 -54.948  15.050  1.00  0.00     0.332 A 
HETATM    8  O   UNL     1     -42.971 -55.766  15.906  1.00  0.00    -0.246 OA
ENDROOT
BRANCH   1   9
HETATM    9  C   UNL     1     -44.857 -55.033  14.064  1.00  0.00     0.239 C 
BRANCH   9  10
HETATM   10  C   UNL     1     -45.761 -54.243  15.014  1.00  0.00     0.236 C 
HETATM   11  N   UNL     1     -46.235 -53.065  14.463  1.00  0.00    -0.360 N 
HETATM   12  H   UNL     1     -45.899 -52.767  13.556  1.00  0.00     0.162 HD
HETATM   13  O   UNL     1     -46.048 -54.622  16.148  1.00  0.00    -0.272 OA
BRANCH  11  14
HETATM   14  C   UNL     1     -47.110 -52.170  15.192  1.00  0.00     0.118 C 
HETATM   15  C   UNL     1     -46.330 -51.109  15.947  1.00  0.00     0.026 C 
ENDBRANCH  11  14
ENDBRANCH   9  10
ENDBRANCH   1   9
BRANCH   4  16
HETATM   16  C   UNL     1     -41.304 -52.101  12.030  1.00  0.00    -0.030 C 
BRANCH  16  17
HETATM   17  N   UNL     1     -40.906 -51.268  11.171  1.00  0.00    -0.365 N 
ATOM     18  HN2 UNL     1     -41.184 -51.957  11.872  1.00  0.00     0.165 HD
ATOM     19  HN1 UNL     1     -40.585 -50.594  10.476  1.00  0.00     0.165 HD
ENDBRANCH  16  17
ENDBRANCH   4  16
BRANCH   6  20
HETATM   20  C   UNL     1     -40.376 -54.749  16.025  1.00  0.00     0.094 A 
HETATM   21  C   UNL     1     -39.031 -54.065  16.073  1.00  0.00     0.028 A 
HETATM   22  C   UNL     1     -39.110 -55.516  15.719  1.00  0.00     0.028 A 
ENDBRANCH   6  20
TORSDOF 6
ENDMDL
MODEL 3
REMARK VINA RESULT:      -5.4      1.808      5.928
REMARK  6 active torsions:
REMARK  status: ('A' for Active; 'I' for Inactive)
REMARK    1  A    between atoms: C_2  and  N_3 
REMARK       I    between atoms: N_3  and  C_4 
REMARK    2  A    between atoms: C_4  and  C_6 
REMARK    3  A    between atoms: C_6  and  N_7 
REMARK    4  A    between atoms: C_10  and  C_11 
REMARK    5  A    between atoms: C_11  and  N_12 
REMARK    6  A    between atoms: N_16  and  C_17 
ROOT
HETATM    1  N   UNL     1     -43.731 -54.519  13.971  1.00  0.00    -0.256 N 
HETATM    2  C   UNL     1     -42.827 -55.041  14.887  1.00  0.00     0.273 A 
HETATM    3  O   UNL     1     -43.112 -55.909  15.709  1.00  0.00    -0.266 OA
HETATM    4  C   UNL     1     -41.452 -54.512  14.806  1.00  0.00     0.110 A 
HETATM    5  C   UNL     1     -41.157 -53.598  13.879  1.00  0.00     0.123 A 
HETATM    6  N   UNL     1     -42.092 -53.133  12.986  1.00  0.00    -0.303 N 
HETATM    7  C   UNL     1     -43.433 -53.538  13.024  1.00  0.00     0.332 A 
HETATM    8  O   UNL     1     -44.285 -53.083  12.258  1.00  0.00    -0.246 OA
ENDROOT
BRANCH   1   9
HETATM    9  C   UNL     1     -45.106 -54.990  14.041  1.00  0.00     0.239 C 
BRANCH   9  10
HETATM   10  C   UNL     1     -45.901 -54.205  15.087  1.00  0.00     0.236 C 
HETATM   11  N   UNL     1     -46.424 -53.021  14.599  1.00  0.00    -0.360 N 
HETATM   12  H   UNL     1     -46.185 -52.716  13.664  1.00  0.00     0.162 HD
HETATM   13  O   UNL     1     -46.067 -54.593  16.242  1.00  0.00    -0.272 OA
BRANCH  11  14
HETATM   14  C   UNL     1     -47.213 -52.128  15.423  1.00  0.00     0.118 C 
HETATM   15  C   UNL     1     -46.351 -51.081  16.105  1.00  0.00     0.026 C 
ENDBRANCH  11  14
ENDBRANCH   9  10
ENDBRANCH   1   9
BRANCH   4  16
HETATM   16  C   UNL     1     -40.362 -55.031  15.730  1.00  0.00    -0.030 C 
BRANCH  16  17
HETATM   17  N   UNL     1     -39.458 -55.460  16.497  1.00  0.00    -0.365 N 
ATOM     18  HN2 UNL     1     -40.163 -55.122  15.840  1.00  0.00     0.165 HD
ATOM     19  HN1 UNL     1     -38.727 -55.808  17.117  1.00  0.00     0.165 HD
ENDBRANCH  16  17
ENDBRANCH   4  16
BRANCH   6  20
HETATM   20  C   UNL     1     -41.667 -52.155  12.007  1.00  0.00     0.094 A 
HETATM   21  C   UNL     1     -40.407 -51.353  12.228  1.00  0.00     0.028 A 
HETATM   22  C   UNL     1     -41.733 -50.663  12.241  1.00  0.00     0.028 A 
ENDBRANCH   6  20
TORSDOF 6
ENDMDL
MODEL 4
REMARK VINA RESULT:      -5.4      2.573      6.341
REMARK  6 active torsions:
REMARK  status: ('A' for Active; 'I' for Inactive)
REMARK    1  A    between atoms: C_2  and  N_3 
REMARK       I    between atoms: N_3  and  C_4 
REMARK    2  A    between atoms: C_4  and  C_6 
REMARK    3  A    between atoms: C_6  and  N_7 
REMARK    4  A    between atoms: C_10  and  C_11 
REMARK    5  A    between atoms: C_11  and  N_12 
REMARK    6  A    between atoms: N_16  and  C_17 
ROOT
HETATM    1  N   UNL     1     -42.975 -52.127  13.546  1.00  0.00    -0.256 N 
HETATM    2  C   UNL     1     -42.117 -53.180  13.835  1.00  0.00     0.273 A 
HETATM    3  O   UNL     1     -42.466 -54.206  14.413  1.00  0.00    -0.266 OA
HETATM    4  C   UNL     1     -40.725 -53.020  13.373  1.00  0.00     0.110 A 
HETATM    5  C   UNL     1     -40.379 -51.913  12.712  1.00  0.00     0.123 A 
HETATM    6  N   UNL     1     -41.280 -50.912  12.439  1.00  0.00    -0.303 N 
HETATM    7  C   UNL     1     -42.607 -50.953  12.887  1.00  0.00     0.332 A 
HETATM    8  O   UNL     1     -43.402 -50.033  12.689  1.00  0.00    -0.246 OA
ENDROOT
BRANCH   1   9
HETATM    9  C   UNL     1     -44.348 -52.231  14.016  1.00  0.00     0.239 C 
BRANCH   9  10
HETATM   10  C   UNL     1     -45.266 -52.757  12.909  1.00  0.00     0.236 C 
HETATM   11  N   UNL     1     -46.106 -51.787  12.389  1.00  0.00    -0.360 N 
HETATM   12  H   UNL     1     -46.129 -50.868  12.811  1.00  0.00     0.162 HD
HETATM   13  O   UNL     1     -45.252 -53.921  12.514  1.00  0.00    -0.272 OA
BRANCH  11  14
HETATM   14  C   UNL     1     -47.052 -52.072  11.330  1.00  0.00     0.118 C 
HETATM   15  C   UNL     1     -47.640 -50.802  10.742  1.00  0.00     0.026 C 
ENDBRANCH  11  14
ENDBRANCH   9  10
ENDBRANCH   1   9
BRANCH   4  16
HETATM   16  C   UNL     1     -39.699 -54.120  13.595  1.00  0.00    -0.030 C 
BRANCH  16  17
HETATM   17  N   UNL     1     -38.849 -55.032  13.780  1.00  0.00    -0.365 N 
ATOM     18  HN2 UNL     1     -39.566 -54.325  13.612  1.00  0.00     0.165 HD
ATOM     19  HN1 UNL     1     -38.161 -55.770  13.930  1.00  0.00     0.165 HD
ENDBRANCH  16  17
ENDBRANCH   4  16
BRANCH   6  20
HETATM   20  C   UNL     1     -40.808 -49.759  11.701  1.00  0.00     0.094 A 
HETATM   21  C   UNL     1     -39.333 -49.447  11.634  1.00  0.00     0.028 A 
HETATM   22  C   UNL     1     -40.252 -48.519  12.363  1.00  0.00     0.028 A 
ENDBRANCH   6  20
TORSDOF 6
ENDMDL
MODEL 5
REMARK VINA RESULT:      -5.2      3.100      4.923
REMARK  6 active torsions:
REMARK  status: ('A' for Active; 'I' for Inactive)
REMARK    1  A    between atoms: C_2  and  N_3 
REMARK       I    between atoms: N_3  and  C_4 
REMARK    2  A    between atoms: C_4  and  C_6 
REMARK    3  A    between atoms: C_6  and  N_7 
REMARK    4  A    between atoms: C_10  and  C_11 
REMARK    5  A    between atoms: C_11  and  N_12 
REMARK    6  A    between atoms: N_16  and  C_17 
ROOT
HETATM    1  N   UNL     1     -41.694 -53.544  13.135  1.00  0.00    -0.256 N 
HETATM    2  C   UNL     1     -43.074 -53.679  13.070  1.00  0.00     0.273 A 
HETATM    3  O   UNL     1     -43.764 -53.208  12.169  1.00  0.00    -0.266 OA
HETATM    4  C   UNL     1     -43.695 -54.467  14.151  1.00  0.00     0.110 A 
HETATM    5  C   UNL     1     -42.921 -55.001  15.098  1.00  0.00     0.123 A 
HETATM    6  N   UNL     1     -41.554 -54.848  15.099  1.00  0.00    -0.303 N 
HETATM    7  C   UNL     1     -40.886 -54.071  14.143  1.00  0.00     0.332 A 
HETATM    8  O   UNL     1     -39.667 -53.890  14.172  1.00  0.00    -0.246 OA
ENDROOT
BRANCH   1   9
HETATM    9  C   UNL     1     -41.047 -52.744  12.105  1.00  0.00     0.239 C 
BRANCH   9  10
HETATM   10  C   UNL     1     -41.084 -51.257  12.464  1.00  0.00     0.236 C 
HETATM   11  N   UNL     1     -42.028 -50.545  11.745  1.00  0.00    -0.360 N 
HETATM   12  H   UNL     1     -42.540 -51.003  11.002  1.00  0.00     0.162 HD
HETATM   13  O   UNL     1     -40.356 -50.747  13.314  1.00  0.00    -0.272 OA
BRANCH  11  14
HETATM   14  C   UNL     1     -42.230 -49.123  11.933  1.00  0.00     0.118 C 
HETATM   15  C   UNL     1     -41.619 -48.313  10.803  1.00  0.00     0.026 C 
ENDBRANCH  11  14
ENDBRANCH   9  10
ENDBRANCH   1   9
BRANCH   4  16
HETATM   16  C   UNL     1     -45.194 -54.718  14.171  1.00  0.00    -0.030 C 
BRANCH  16  17
HETATM   17  N   UNL     1     -46.437 -54.926  14.189  1.00  0.00    -0.365 N 
ATOM     18  HN2 UNL     1     -45.438 -54.722  14.147  1.00  0.00     0.165 HD
ATOM     19  HN1 UNL     1     -47.443 -55.095  14.203  1.00  0.00     0.165 HD
ENDBRANCH  16  17
ENDBRANCH   4  16
BRANCH   6  20
HETATM   20  C   UNL     1     -40.802 -55.482  16.161  1.00  0.00     0.094 A 
HETATM   21  C   UNL     1     -41.518 -56.188  17.287  1.00  0.00     0.028 A 
HETATM   22  C   UNL     1     -40.740 -54.943  17.572  1.00  0.00     0.028 A 
ENDBRANCH   6  20
TORSDOF 6
ENDMDL
MODEL 6
REMARK VINA RESULT:      -5.2      2.387      3.794
REMARK  6 active torsions:
REMARK  status: ('A' for Active; 'I' for Inactive)
REMARK    1  A    between atoms: C_2  and  N_3 
REMARK       I    between atoms: N_3  and  C_4 
REMARK    2  A    between atoms: C_4  and  C_6 
REMARK    3  A    between atoms: C_6  and  N_7 
REMARK    4  A    between atoms: C_10  and  C_11 
REMARK    5  A    between atoms: C_11  and  N_12 
REMARK    6  A    between atoms: N_16  and  C_17 
ROOT
HETATM    1  N   UNL     1     -43.122 -54.595  14.639  1.00  0.00    -0.256 N 
HETATM    2  C   UNL     1     -42.147 -54.017  13.836  1.00  0.00     0.273 A 
HETATM    3  O   UNL     1     -40.972 -54.377  13.824  1.00  0.00    -0.266 OA
HETATM    4  C   UNL     1     -42.606 -52.936  12.945  1.00  0.00     0.110 A 
HETATM    5  C   UNL     1     -43.895 -52.590  12.947  1.00  0.00     0.123 A 
HETATM    6  N   UNL     1     -44.819 -53.213  13.752  1.00  0.00    -0.303 N 
HETATM    7  C   UNL     1     -44.463 -54.211  14.669  1.00  0.00     0.332 A 
HETATM    8  O   UNL     1     -45.281 -54.734  15.429  1.00  0.00    -0.246 OA
ENDROOT
BRANCH   1   9
HETATM    9  C   UNL     1     -42.702 -55.642  15.558  1.00  0.00     0.239 C 
BRANCH   9  10
HETATM   10  C   UNL     1     -42.020 -55.046  16.792  1.00  0.00     0.236 C 
HETATM   11  N   UNL     1     -40.655 -55.269  16.822  1.00  0.00    -0.360 N 
HETATM   12  H   UNL     1     -40.229 -55.859  16.119  1.00  0.00     0.162 HD
HETATM   13  O   UNL     1     -42.623 -54.423  17.663  1.00  0.00    -0.272 OA
BRANCH  11  14
HETATM   14  C   UNL     1     -39.818 -54.786  17.901  1.00  0.00     0.118 C 
HETATM   15  C   UNL     1     -38.463 -54.319  17.398  1.00  0.00     0.026 C 
ENDBRANCH  11  14
ENDBRANCH   9  10
ENDBRANCH   1   9
BRANCH   4  16
HETATM   16  C   UNL     1     -41.641 -52.250  11.991  1.00  0.00    -0.030 C 
BRANCH  16  17
HETATM   17  N   UNL     1     -40.841 -51.682  11.201  1.00  0.00    -0.365 N 
ATOM     18  HN2 UNL     1     -41.479 -52.109  11.872  1.00  0.00     0.165 HD
ATOM     19  HN1 UNL     1     -40.193 -51.222  10.561  1.00  0.00     0.165 HD
ENDBRANCH  16  17
ENDBRANCH   4  16
BRANCH   6  20
HETATM   20  C   UNL     1     -46.196 -52.775  13.668  1.00  0.00     0.094 A 
HETATM   21  C   UNL     1     -46.567 -51.583  12.818  1.00  0.00     0.028 A 
HETATM   22  C   UNL     1     -46.704 -51.502  14.305  1.00  0.00     0.028 A 
ENDBRANCH   6  20
TORSDOF 6
ENDMDL
MODEL 7
REMARK VINA RESULT:      -5.0      5.104      8.224
REMARK  6 active torsions:
REMARK  status: ('A' for Active; 'I' for Inactive)
REMARK    1  A    between atoms: C_2  and  N_3 
REMARK       I    between atoms: N_3  and  C_4 
REMARK    2  A    between atoms: C_4  and  C_6 
REMARK    3  A    between atoms: C_6  and  N_7 
REMARK    4  A    between atoms: C_10  and  C_11 
REMARK    5  A    between atoms: C_11  and  N_12 
REMARK    6  A    between atoms: N_16  and  C_17 
ROOT
HETATM    1  N   UNL     1     -41.718 -48.166  11.950  1.00  0.00    -0.256 N 
HETATM    2  C   UNL     1     -42.438 -49.344  12.101  1.00  0.00     0.273 A 
HETATM    3  O   UNL     1     -43.664 -49.391  12.161  1.00  0.00    -0.266 OA
HETATM    4  C   UNL     1     -41.639 -50.582  12.159  1.00  0.00     0.110 A 
HETATM    5  C   UNL     1     -40.310 -50.509  12.053  1.00  0.00     0.123 A 
HETATM    6  N   UNL     1     -39.654 -49.313  11.885  1.00  0.00    -0.303 N 
HETATM    7  C   UNL     1     -40.327 -48.083  11.875  1.00  0.00     0.332 A 
HETATM    8  O   UNL     1     -39.736 -47.005  11.778  1.00  0.00    -0.246 OA
ENDROOT
BRANCH   1   9
HETATM    9  C   UNL     1     -42.467 -46.919  11.924  1.00  0.00     0.239 C 
BRANCH   9  10
HETATM   10  C   UNL     1     -42.995 -46.627  10.517  1.00  0.00     0.236 C 
HETATM   11  N   UNL     1     -44.302 -47.040  10.327  1.00  0.00    -0.360 N 
HETATM   12  H   UNL     1     -44.771 -47.565  11.055  1.00  0.00     0.162 HD
HETATM   13  O   UNL     1     -42.329 -46.071   9.646  1.00  0.00    -0.272 OA
BRANCH  11  14
HETATM   14  C   UNL     1     -44.995 -46.856   9.069  1.00  0.00     0.118 C 
HETATM   15  C   UNL     1     -46.430 -47.347   9.138  1.00  0.00     0.026 C 
ENDBRANCH  11  14
ENDBRANCH   9  10
ENDBRANCH   1   9
BRANCH   4  16
HETATM   16  C   UNL     1     -42.313 -51.939  12.285  1.00  0.00    -0.030 C 
BRANCH  16  17
HETATM   17  N   UNL     1     -42.871 -53.064  12.388  1.00  0.00    -0.365 N 
ATOM     18  HN2 UNL     1     -42.378 -52.174  12.310  1.00  0.00     0.165 HD
ATOM     19  HN1 UNL     1     -43.323 -53.975  12.472  1.00  0.00     0.165 HD
ENDBRANCH  16  17
ENDBRANCH   4  16
BRANCH   6  20
HETATM   20  C   UNL     1     -38.212 -49.341  11.763  1.00  0.00     0.094 A 
HETATM   21  C   UNL     1     -37.454 -50.629  11.982  1.00  0.00     0.028 A 
HETATM   22  C   UNL     1     -37.281 -49.496  12.944  1.00  0.00     0.028 A 
ENDBRANCH   6  20
TORSDOF 6
ENDMDL
MODEL 8
REMARK VINA RESULT:      -5.0      3.181      5.089
REMARK  6 active torsions:
REMARK  status: ('A' for Active; 'I' for Inactive)
REMARK    1  A    between atoms: C_2  and  N_3 
REMARK       I    between atoms: N_3  and  C_4 
REMARK    2  A    between atoms: C_4  and  C_6 
REMARK    3  A    between atoms: C_6  and  N_7 
REMARK    4  A    between atoms: C_10  and  C_11 
REMARK    5  A    between atoms: C_11  and  N_12 
REMARK    6  A    between atoms: N_16  and  C_17 
ROOT
HETATM    1  N   UNL     1     -41.178 -54.341  15.599  1.00  0.00    -0.256 N 
HETATM    2  C   UNL     1     -40.685 -53.554  14.567  1.00  0.00     0.273 A 
HETATM    3  O   UNL     1     -39.540 -53.109  14.536  1.00  0.00    -0.266 OA
HETATM    4  C   UNL     1     -41.619 -53.292  13.456  1.00  0.00     0.110 A 
HETATM    5  C   UNL     1     -42.845 -53.818  13.494  1.00  0.00     0.123 A 
HETATM    6  N   UNL     1     -43.270 -54.608  14.536  1.00  0.00    -0.303 N 
HETATM    7  C   UNL     1     -42.471 -54.864  15.659  1.00  0.00     0.332 A 
HETATM    8  O   UNL     1     -42.869 -55.528  16.618  1.00  0.00    -0.246 OA
ENDROOT
BRANCH   1   9
HETATM    9  C   UNL     1     -40.299 -54.594  16.731  1.00  0.00     0.239 C 
BRANCH   9  10
HETATM   10  C   UNL     1     -39.621 -55.961  16.602  1.00  0.00     0.236 C 
HETATM   11  N   UNL     1     -40.123 -56.905  17.481  1.00  0.00    -0.360 N 
HETATM   12  H   UNL     1     -40.800 -56.626  18.180  1.00  0.00     0.162 HD
HETATM   13  O   UNL     1     -38.729 -56.200  15.791  1.00  0.00    -0.272 OA
BRANCH  11  14
HETATM   14  C   UNL     1     -39.625 -58.264  17.522  1.00  0.00     0.118 C 
HETATM   15  C   UNL     1     -38.622 -58.462  18.645  1.00  0.00     0.026 C 
ENDBRANCH  11  14
ENDBRANCH   9  10
ENDBRANCH   1   9
BRANCH   4  16
HETATM   16  C   UNL     1     -41.185 -52.474  12.250  1.00  0.00    -0.030 C 
BRANCH  16  17
HETATM   17  N   UNL     1     -40.826 -51.795  11.251  1.00  0.00    -0.365 N 
ATOM     18  HN2 UNL     1     -41.160 -52.334  12.051  1.00  0.00     0.165 HD
ATOM     19  HN1 UNL     1     -40.535 -51.246  10.441  1.00  0.00     0.165 HD
ENDBRANCH  16  17
ENDBRANCH   4  16
BRANCH   6  20
HETATM   20  C   UNL     1     -44.613 -55.146  14.475  1.00  0.00     0.094 A 
HETATM   21  C   UNL     1     -45.622 -54.568  13.513  1.00  0.00     0.028 A 
HETATM   22  C   UNL     1     -45.828 -54.407  14.985  1.00  0.00     0.028 A 
ENDBRANCH   6  20
TORSDOF 6
ENDMDL
MODEL 9
REMARK VINA RESULT:      -5.0      7.106      8.582
REMARK  6 active torsions:
REMARK  status: ('A' for Active; 'I' for Inactive)
REMARK    1  A    between atoms: C_2  and  N_3 
REMARK       I    between atoms: N_3  and  C_4 
REMARK    2  A    between atoms: C_4  and  C_6 
REMARK    3  A    between atoms: C_6  and  N_7 
REMARK    4  A    between atoms: C_10  and  C_11 
REMARK    5  A    between atoms: C_11  and  N_12 
REMARK    6  A    between atoms: N_16  and  C_17 
ROOT
HETATM    1  N   UNL     1     -40.829 -47.104  12.442  1.00  0.00    -0.256 N 
HETATM    2  C   UNL     1     -40.521 -45.750  12.447  1.00  0.00     0.273 A 
HETATM    3  O   UNL     1     -39.779 -45.222  13.272  1.00  0.00    -0.266 OA
HETATM    4  C   UNL     1     -41.121 -44.951  11.362  1.00  0.00     0.110 A 
HETATM    5  C   UNL     1     -41.893 -45.554  10.455  1.00  0.00     0.123 A 
HETATM    6  N   UNL     1     -42.146 -46.905  10.492  1.00  0.00    -0.303 N 
HETATM    7  C   UNL     1     -41.664 -47.732  11.516  1.00  0.00     0.332 A 
HETATM    8  O   UNL     1     -41.932 -48.933  11.580  1.00  0.00    -0.246 OA
ENDROOT
BRANCH   1   9
HETATM    9  C   UNL     1     -40.284 -47.921  13.516  1.00  0.00     0.239 C 
BRANCH   9  10
HETATM   10  C   UNL     1     -38.864 -48.387  13.184  1.00  0.00     0.236 C 
HETATM   11  N   UNL     1     -38.819 -49.303  12.147  1.00  0.00    -0.360 N 
HETATM   12  H   UNL     1     -39.682 -49.661  11.759  1.00  0.00     0.162 HD
HETATM   13  O   UNL     1     -37.864 -47.980  13.770  1.00  0.00    -0.272 OA
BRANCH  11  14
HETATM   14  C   UNL     1     -37.574 -49.868  11.671  1.00  0.00     0.118 C 
HETATM   15  C   UNL     1     -37.189 -51.117  12.444  1.00  0.00     0.026 C 
ENDBRANCH  11  14
ENDBRANCH   9  10
ENDBRANCH   1   9
BRANCH   4  16
HETATM   16  C   UNL     1     -40.830 -43.464  11.237  1.00  0.00    -0.030 C 
BRANCH  16  17
HETATM   17  N   UNL     1     -40.589 -42.232  11.133  1.00  0.00    -0.365 N 
ATOM     18  HN2 UNL     1     -40.813 -43.226  11.182  1.00  0.00     0.165 HD
ATOM     19  HN1 UNL     1     -40.393 -41.234  11.048  1.00  0.00     0.165 HD
ENDBRANCH  16  17
ENDBRANCH   4  16
BRANCH   6  20
HETATM   20  C   UNL     1     -42.981 -47.467   9.452  1.00  0.00     0.094 A 
HETATM   21  C   UNL     1     -43.739 -46.562   8.510  1.00  0.00     0.028 A 
HETATM   22  C   UNL     1     -44.492 -47.415   9.481  1.00  0.00     0.028 A 
ENDBRANCH   6  20
TORSDOF 6
ENDMDL
