MODEL 1
REMARK VINA RESULT:      -5.4      0.000      0.000
REMARK  4 active torsions:
REMARK  status: ('A' for Active; 'I' for Inactive)
REMARK       I    between atoms: C_2  and  N_3 
REMARK    1  A    between atoms: C_2  and  C_12 
REMARK    2  A    between atoms: N_3  and  C_4 
REMARK    3  A    between atoms: C_4  and  C_5 
REMARK    4  A    between atoms: C_5  and  N_6 
ROOT
HETATM    1  O   UNL     1     -43.276 -54.001  14.105  1.00  0.00    -0.273 OA
HETATM    2  C   UNL     1     -43.959 -53.541  13.196  1.00  0.00     0.221 C 
HETATM    3  N   UNL     1     -43.404 -52.837  12.147  1.00  0.00    -0.359 N 
HETATM    4  H   UNL     1     -44.014 -52.365  11.491  1.00  0.00     0.162 HD
ENDROOT
BRANCH   3   5
HETATM    5  C   UNL     1     -41.980 -52.558  12.090  1.00  0.00     0.143 C 
BRANCH   5   6
HETATM    6  C   UNL     1     -41.630 -51.156  12.591  1.00  0.00     0.148 C 
BRANCH   6   7
HETATM    7  N   UNL     1     -40.317 -50.732  12.159  1.00  0.00    -0.350 N 
HETATM    8  C   UNL     1     -39.125 -51.060  12.739  1.00  0.00     0.108 A 
HETATM    9  C   UNL     1     -38.179 -50.387  12.003  1.00  0.00     0.106 A 
HETATM   10  N   UNL     1     -38.768 -49.666  10.995  1.00  0.00    -0.361 N 
HETATM   11  C   UNL     1     -40.057 -49.883  11.120  1.00  0.00     0.182 A 
ATOM     12  HN  UNL     1     -38.303 -49.086  10.297  1.00  0.00     0.166 HD
ENDBRANCH   6   7
ENDBRANCH   5   6
ENDBRANCH   3   5
BRANCH   2  13
HETATM   13  C   UNL     1     -45.474 -53.739  13.090  1.00  0.00     0.078 C 
HETATM   14  C   UNL     1     -46.189 -52.480  12.587  1.00  0.00     0.014 C 
HETATM   15  C   UNL     1     -46.198 -51.370  13.635  1.00  0.00     0.001 C 
HETATM   16  C   UNL     1     -46.827 -51.842  14.942  1.00  0.00     0.000 C 
HETATM   17  C   UNL     1     -46.173 -53.113  15.474  1.00  0.00     0.001 C 
HETATM   18  C   UNL     1     -46.088 -54.214  14.416  1.00  0.00     0.014 C 
ENDBRANCH   2  13
TORSDOF 4
ENDMDL
MODEL 2
REMARK VINA RESULT:      -5.4      1.322      1.852
REMARK  4 active torsions:
REMARK  status: ('A' for Active; 'I' for Inactive)
REMARK       I    between atoms: C_2  and  N_3 
REMARK    1  A    between atoms: C_2  and  C_12 
REMARK    2  A    between atoms: N_3  and  C_4 
REMARK    3  A    between atoms: C_4  and  C_5 
REMARK    4  A    between atoms: C_5  and  N_6 
ROOT
HETATM    1  O   UNL     1     -43.116 -53.725  14.112  1.00  0.00    -0.273 OA
HETATM    2  C   UNL     1     -43.753 -53.364  13.127  1.00  0.00     0.221 C 
HETATM    3  N   UNL     1     -43.164 -52.684  12.082  1.00  0.00    -0.359 N 
HETATM    4  H   UNL     1     -43.748 -52.292  11.354  1.00  0.00     0.162 HD
ENDROOT
BRANCH   3   5
HETATM    5  C   UNL     1     -41.760 -52.311  12.116  1.00  0.00     0.143 C 
BRANCH   5   6
HETATM    6  C   UNL     1     -41.520 -50.968  12.809  1.00  0.00     0.148 C 
BRANCH   6   7
HETATM    7  N   UNL     1     -41.672 -49.851  11.905  1.00  0.00    -0.350 N 
HETATM    8  C   UNL     1     -42.671 -48.920  11.924  1.00  0.00     0.108 A 
HETATM    9  C   UNL     1     -42.407 -48.099  10.853  1.00  0.00     0.106 A 
HETATM   10  N   UNL     1     -41.276 -48.507  10.193  1.00  0.00    -0.361 N 
HETATM   11  C   UNL     1     -40.861 -49.572  10.841  1.00  0.00     0.182 A 
ATOM     12  HN  UNL     1     -40.848 -48.076   9.374  1.00  0.00     0.166 HD
ENDBRANCH   6   7
ENDBRANCH   5   6
ENDBRANCH   3   5
BRANCH   2  13
HETATM   13  C   UNL     1     -45.239 -53.673  12.920  1.00  0.00     0.078 C 
HETATM   14  C   UNL     1     -46.036 -52.430  12.507  1.00  0.00     0.014 C 
HETATM   15  C   UNL     1     -46.189 -51.440  13.660  1.00  0.00     0.001 C 
HETATM   16  C   UNL     1     -46.834 -52.096  14.876  1.00  0.00     0.000 C 
HETATM   17  C   UNL     1     -46.097 -53.358  15.313  1.00  0.00     0.001 C 
HETATM   18  C   UNL     1     -45.870 -54.332  14.155  1.00  0.00     0.014 C 
ENDBRANCH   2  13
TORSDOF 4
ENDMDL
MODEL 3
REMARK VINA RESULT:      -5.3      1.505      1.908
REMARK  4 active torsions:
REMARK  status: ('A' for Active; 'I' for Inactive)
REMARK       I    between atoms: C_2  and  N_3 
REMARK    1  A    between atoms: C_2  and  C_12 
REMARK    2  A    between atoms: N_3  and  C_4 
REMARK    3  A    between atoms: C_4  and  C_5 
REMARK    4  A    between atoms: C_5  and  N_6 
ROOT
HETATM    1  O   UNL     1     -44.180 -54.733  15.755  1.00  0.00    -0.273 OA
HETATM    2  C   UNL     1     -44.252 -54.347  14.592  1.00  0.00     0.221 C 
HETATM    3  N   UNL     1     -43.127 -54.089  13.835  1.00  0.00    -0.359 N 
HETATM    4  H   UNL     1     -43.231 -53.650  12.929  1.00  0.00     0.162 HD
ENDROOT
BRANCH   3   5
HETATM    5  C   UNL     1     -41.792 -54.212  14.395  1.00  0.00     0.143 C 
BRANCH   5   6
HETATM    6  C   UNL     1     -40.696 -54.161  13.329  1.00  0.00     0.148 C 
BRANCH   6   7
HETATM    7  N   UNL     1     -40.548 -52.842  12.758  1.00  0.00    -0.350 N 
HETATM    8  C   UNL     1     -39.769 -51.830  13.241  1.00  0.00     0.108 A 
HETATM    9  C   UNL     1     -39.996 -50.775  12.389  1.00  0.00     0.106 A 
HETATM   10  N   UNL     1     -40.886 -51.124  11.406  1.00  0.00    -0.361 N 
HETATM   11  C   UNL     1     -41.212 -52.371  11.660  1.00  0.00     0.182 A 
ATOM     12  HN  UNL     1     -41.223 -50.540  10.641  1.00  0.00     0.166 HD
ENDBRANCH   6   7
ENDBRANCH   5   6
ENDBRANCH   3   5
BRANCH   2  13
HETATM   13  C   UNL     1     -45.573 -54.166  13.839  1.00  0.00     0.078 C 
HETATM   14  C   UNL     1     -45.498 -53.041  12.800  1.00  0.00     0.014 C 
HETATM   15  C   UNL     1     -45.441 -51.662  13.453  1.00  0.00     0.001 C 
HETATM   16  C   UNL     1     -46.628 -51.437  14.385  1.00  0.00     0.000 C 
HETATM   17  C   UNL     1     -46.769 -52.546  15.422  1.00  0.00     0.001 C 
HETATM   18  C   UNL     1     -46.755 -53.940  14.794  1.00  0.00     0.014 C 
ENDBRANCH   2  13
TORSDOF 4
ENDMDL
MODEL 4
REMARK VINA RESULT:      -5.1      1.925      2.622
REMARK  4 active torsions:
REMARK  status: ('A' for Active; 'I' for Inactive)
REMARK       I    between atoms: C_2  and  N_3 
REMARK    1  A    between atoms: C_2  and  C_12 
REMARK    2  A    between atoms: N_3  and  C_4 
REMARK    3  A    between atoms: C_4  and  C_5 
REMARK    4  A    between atoms: C_5  and  N_6 
ROOT
HETATM    1  O   UNL     1     -44.161 -50.717  14.947  1.00  0.00    -0.273 OA
HETATM    2  C   UNL     1     -44.431 -50.921  13.767  1.00  0.00     0.221 C 
HETATM    3  N   UNL     1     -43.487 -50.799  12.768  1.00  0.00    -0.359 N 
HETATM    4  H   UNL     1     -43.782 -50.847  11.801  1.00  0.00     0.162 HD
ENDROOT
BRANCH   3   5
HETATM    5  C   UNL     1     -42.129 -50.370  13.055  1.00  0.00     0.143 C 
BRANCH   5   6
HETATM    6  C   UNL     1     -41.248 -50.315  11.806  1.00  0.00     0.148 C 
BRANCH   6   7
HETATM    7  N   UNL     1     -40.936 -48.959  11.415  1.00  0.00    -0.350 N 
HETATM    8  C   UNL     1     -39.988 -48.150  11.973  1.00  0.00     0.108 A 
HETATM    9  C   UNL     1     -40.102 -46.958  11.297  1.00  0.00     0.106 A 
HETATM   10  N   UNL     1     -41.088 -47.029  10.347  1.00  0.00    -0.361 N 
HETATM   11  C   UNL     1     -41.583 -48.242  10.449  1.00  0.00     0.182 A 
ATOM     12  HN  UNL     1     -41.377 -46.295   9.700  1.00  0.00     0.166 HD
ENDBRANCH   6   7
ENDBRANCH   5   6
ENDBRANCH   3   5
BRANCH   2  13
HETATM   13  C   UNL     1     -45.808 -51.382  13.280  1.00  0.00     0.078 C 
HETATM   14  C   UNL     1     -46.835 -51.434  14.417  1.00  0.00     0.014 C 
HETATM   15  C   UNL     1     -46.561 -52.584  15.384  1.00  0.00     0.001 C 
HETATM   16  C   UNL     1     -46.515 -53.924  14.657  1.00  0.00     0.000 C 
HETATM   17  C   UNL     1     -45.528 -53.919  13.494  1.00  0.00     0.001 C 
HETATM   18  C   UNL     1     -45.740 -52.733  12.552  1.00  0.00     0.014 C 
ENDBRANCH   2  13
TORSDOF 4
ENDMDL
MODEL 5
REMARK VINA RESULT:      -5.1      1.748      2.356
REMARK  4 active torsions:
REMARK  status: ('A' for Active; 'I' for Inactive)
REMARK       I    between atoms: C_2  and  N_3 
REMARK    1  A    between atoms: C_2  and  C_12 
REMARK    2  A    between atoms: N_3  and  C_4 
REMARK    3  A    between atoms: C_4  and  C_5 
REMARK    4  A    between atoms: C_5  and  N_6 
ROOT
HETATM    1  O   UNL     1     -43.358 -53.010  14.465  1.00  0.00    -0.273 OA
HETATM    2  C   UNL     1     -44.037 -52.698  13.491  1.00  0.00     0.221 C 
HETATM    3  N   UNL     1     -43.551 -51.882  12.490  1.00  0.00    -0.359 N 
HETATM    4  H   UNL     1     -44.184 -51.546  11.775  1.00  0.00     0.162 HD
ENDROOT
BRANCH   3   5
HETATM    5  C   UNL     1     -42.220 -51.305  12.562  1.00  0.00     0.143 C 
BRANCH   5   6
HETATM    6  C   UNL     1     -41.151 -52.200  11.933  1.00  0.00     0.148 C 
BRANCH   6   7
HETATM    7  N   UNL     1     -40.375 -52.906  12.928  1.00  0.00    -0.350 N 
HETATM    8  C   UNL     1     -40.421 -54.245  13.194  1.00  0.00     0.108 A 
HETATM    9  C   UNL     1     -39.546 -54.425  14.239  1.00  0.00     0.106 A 
HETATM   10  N   UNL     1     -38.973 -53.234  14.606  1.00  0.00    -0.361 N 
HETATM   11  C   UNL     1     -39.500 -52.334  13.808  1.00  0.00     0.182 A 
ATOM     12  HN  UNL     1     -38.284 -53.081  15.342  1.00  0.00     0.166 HD
ENDBRANCH   6   7
ENDBRANCH   5   6
ENDBRANCH   3   5
BRANCH   2  13
HETATM   13  C   UNL     1     -45.458 -53.215  13.248  1.00  0.00     0.078 C 
HETATM   14  C   UNL     1     -46.464 -52.075  13.055  1.00  0.00     0.014 C 
HETATM   15  C   UNL     1     -46.736 -51.325  14.357  1.00  0.00     0.001 C 
HETATM   16  C   UNL     1     -47.219 -52.269  15.454  1.00  0.00     0.000 C 
HETATM   17  C   UNL     1     -46.269 -53.443  15.668  1.00  0.00     0.001 C 
HETATM   18  C   UNL     1     -45.926 -54.163  14.363  1.00  0.00     0.014 C 
ENDBRANCH   2  13
TORSDOF 4
ENDMDL
MODEL 6
REMARK VINA RESULT:      -5.1      1.261      2.078
REMARK  4 active torsions:
REMARK  status: ('A' for Active; 'I' for Inactive)
REMARK       I    between atoms: C_2  and  N_3 
REMARK    1  A    between atoms: C_2  and  C_12 
REMARK    2  A    between atoms: N_3  and  C_4 
REMARK    3  A    between atoms: C_4  and  C_5 
REMARK    4  A    between atoms: C_5  and  N_6 
ROOT
HETATM    1  O   UNL     1     -44.329 -50.609  15.057  1.00  0.00    -0.273 OA
HETATM    2  C   UNL     1     -44.709 -50.849  13.915  1.00  0.00     0.221 C 
HETATM    3  N   UNL     1     -43.895 -50.662  12.818  1.00  0.00    -0.359 N 
HETATM    4  H   UNL     1     -44.289 -50.746  11.889  1.00  0.00     0.162 HD
ENDROOT
BRANCH   3   5
HETATM    5  C   UNL     1     -42.553 -50.120  12.952  1.00  0.00     0.143 C 
BRANCH   5   6
HETATM    6  C   UNL     1     -41.477 -51.206  12.993  1.00  0.00     0.148 C 
BRANCH   6   7
HETATM    7  N   UNL     1     -40.245 -50.779  12.369  1.00  0.00    -0.350 N 
HETATM    8  C   UNL     1     -38.978 -51.030  12.815  1.00  0.00     0.108 A 
HETATM    9  C   UNL     1     -38.157 -50.386  11.919  1.00  0.00     0.106 A 
HETATM   10  N   UNL     1     -38.893 -49.758  10.948  1.00  0.00    -0.361 N 
HETATM   11  C   UNL     1     -40.148 -50.000  11.250  1.00  0.00     0.182 A 
ATOM     12  HN  UNL     1     -38.540 -49.217  10.158  1.00  0.00     0.166 HD
ENDBRANCH   6   7
ENDBRANCH   5   6
ENDBRANCH   3   5
BRANCH   2  13
HETATM   13  C   UNL     1     -46.088 -51.427  13.585  1.00  0.00     0.078 C 
HETATM   14  C   UNL     1     -46.916 -51.706  14.845  1.00  0.00     0.014 C 
HETATM   15  C   UNL     1     -46.375 -52.897  15.633  1.00  0.00     0.001 C 
HETATM   16  C   UNL     1     -46.300 -54.150  14.767  1.00  0.00     0.000 C 
HETATM   17  C   UNL     1     -45.513 -53.921  13.481  1.00  0.00     0.001 C 
HETATM   18  C   UNL     1     -45.993 -52.688  12.713  1.00  0.00     0.014 C 
ENDBRANCH   2  13
TORSDOF 4
ENDMDL
MODEL 7
REMARK VINA RESULT:      -4.8     15.564     18.126
REMARK  4 active torsions:
REMARK  status: ('A' for Active; 'I' for Inactive)
REMARK       I    between atoms: C_2  and  N_3 
REMARK    1  A    between atoms: C_2  and  C_12 
REMARK    2  A    between atoms: N_3  and  C_4 
REMARK    3  A    between atoms: C_4  and  C_5 
REMARK    4  A    between atoms: C_5  and  N_6 
ROOT
HETATM    1  O   UNL     1     -29.222 -61.817  18.076  1.00  0.00    -0.273 OA
HETATM    2  C   UNL     1     -28.410 -61.193  17.400  1.00  0.00     0.221 C 
HETATM    3  N   UNL     1     -27.523 -60.298  17.962  1.00  0.00    -0.359 N 
HETATM    4  H   UNL     1     -26.963 -59.711  17.358  1.00  0.00     0.162 HD
ENDROOT
BRANCH   3   5
HETATM    5  C   UNL     1     -27.538 -60.008  19.386  1.00  0.00     0.143 C 
BRANCH   5   6
HETATM    6  C   UNL     1     -27.729 -58.520  19.686  1.00  0.00     0.148 C 
BRANCH   6   7
HETATM    7  N   UNL     1     -29.072 -58.072  19.399  1.00  0.00    -0.350 N 
HETATM    8  C   UNL     1     -29.432 -56.857  18.889  1.00  0.00     0.108 A 
HETATM    9  C   UNL     1     -30.806 -56.890  18.839  1.00  0.00     0.106 A 
HETATM   10  N   UNL     1     -31.282 -58.091  19.300  1.00  0.00    -0.361 N 
HETATM   11  C   UNL     1     -30.216 -58.779  19.642  1.00  0.00     0.182 A 
ATOM     12  HN  UNL     1     -32.256 -58.386  19.364  1.00  0.00     0.166 HD
ENDBRANCH   6   7
ENDBRANCH   5   6
ENDBRANCH   3   5
BRANCH   2  13
HETATM   13  C   UNL     1     -28.250 -61.373  15.888  1.00  0.00     0.078 C 
HETATM   14  C   UNL     1     -28.976 -62.621  15.373  1.00  0.00     0.014 C 
HETATM   15  C   UNL     1     -28.281 -63.908  15.810  1.00  0.00     0.001 C 
HETATM   16  C   UNL     1     -26.822 -63.932  15.367  1.00  0.00     0.000 C 
HETATM   17  C   UNL     1     -26.057 -62.695  15.826  1.00  0.00     0.001 C 
HETATM   18  C   UNL     1     -26.774 -61.394  15.462  1.00  0.00     0.014 C 
ENDBRANCH   2  13
TORSDOF 4
ENDMDL
MODEL 8
REMARK VINA RESULT:      -4.7      3.193      3.707
REMARK  4 active torsions:
REMARK  status: ('A' for Active; 'I' for Inactive)
REMARK       I    between atoms: C_2  and  N_3 
REMARK    1  A    between atoms: C_2  and  C_12 
REMARK    2  A    between atoms: N_3  and  C_4 
REMARK    3  A    between atoms: C_4  and  C_5 
REMARK    4  A    between atoms: C_5  and  N_6 
ROOT
HETATM    1  O   UNL     1     -43.567 -51.595  12.964  1.00  0.00    -0.273 OA
HETATM    2  C   UNL     1     -43.993 -52.745  12.994  1.00  0.00     0.221 C 
HETATM    3  N   UNL     1     -43.186 -53.817  13.313  1.00  0.00    -0.359 N 
HETATM    4  H   UNL     1     -43.544 -54.757  13.198  1.00  0.00     0.162 HD
ENDROOT
BRANCH   3   5
HETATM    5  C   UNL     1     -41.769 -53.646  13.583  1.00  0.00     0.143 C 
BRANCH   5   6
HETATM    6  C   UNL     1     -41.444 -53.663  15.078  1.00  0.00     0.148 C 
BRANCH   6   7
HETATM    7  N   UNL     1     -40.293 -54.485  15.378  1.00  0.00    -0.350 N 
HETATM    8  C   UNL     1     -40.148 -55.320  16.449  1.00  0.00     0.108 A 
HETATM    9  C   UNL     1     -38.882 -55.838  16.320  1.00  0.00     0.106 A 
HETATM   10  N   UNL     1     -38.262 -55.341  15.202  1.00  0.00    -0.361 N 
HETATM   11  C   UNL     1     -39.131 -54.518  14.660  1.00  0.00     0.182 A 
ATOM     12  HN  UNL     1     -37.326 -55.563  14.864  1.00  0.00     0.166 HD
ENDBRANCH   6   7
ENDBRANCH   5   6
ENDBRANCH   3   5
BRANCH   2  13
HETATM   13  C   UNL     1     -45.458 -53.113  12.740  1.00  0.00     0.078 C 
HETATM   14  C   UNL     1     -46.369 -51.880  12.721  1.00  0.00     0.014 C 
HETATM   15  C   UNL     1     -46.545 -51.277  14.113  1.00  0.00     0.001 C 
HETATM   16  C   UNL     1     -47.078 -52.308  15.104  1.00  0.00     0.000 C 
HETATM   17  C   UNL     1     -46.225 -53.571  15.141  1.00  0.00     0.001 C 
HETATM   18  C   UNL     1     -45.976 -54.150  13.747  1.00  0.00     0.014 C 
ENDBRANCH   2  13
TORSDOF 4
ENDMDL
MODEL 9
REMARK VINA RESULT:      -4.6      5.354      7.225
REMARK  4 active torsions:
REMARK  status: ('A' for Active; 'I' for Inactive)
REMARK       I    between atoms: C_2  and  N_3 
REMARK    1  A    between atoms: C_2  and  C_12 
REMARK    2  A    between atoms: N_3  and  C_4 
REMARK    3  A    between atoms: C_4  and  C_5 
REMARK    4  A    between atoms: C_5  and  N_6 
ROOT
HETATM    1  O   UNL     1     -39.716 -47.499  13.503  1.00  0.00    -0.273 OA
HETATM    2  C   UNL     1     -39.151 -48.118  12.606  1.00  0.00     0.221 C 
HETATM    3  N   UNL     1     -39.506 -47.975  11.281  1.00  0.00    -0.359 N 
HETATM    4  H   UNL     1     -39.105 -48.598  10.591  1.00  0.00     0.162 HD
ENDROOT
BRANCH   3   5
HETATM    5  C   UNL     1     -40.608 -47.117  10.879  1.00  0.00     0.143 C 
BRANCH   5   6
HETATM    6  C   UNL     1     -41.851 -47.906  10.463  1.00  0.00     0.148 C 
BRANCH   6   7
HETATM    7  N   UNL     1     -42.881 -47.054   9.915  1.00  0.00    -0.350 N 
HETATM    8  C   UNL     1     -43.898 -47.437   9.087  1.00  0.00     0.108 A 
HETATM    9  C   UNL     1     -44.579 -46.276   8.807  1.00  0.00     0.106 A 
HETATM   10  N   UNL     1     -44.003 -45.207   9.445  1.00  0.00    -0.361 N 
HETATM   11  C   UNL     1     -42.975 -45.702  10.095  1.00  0.00     0.182 A 
ATOM     12  HN  UNL     1     -44.309 -44.234   9.420  1.00  0.00     0.166 HD
ENDBRANCH   6   7
ENDBRANCH   5   6
ENDBRANCH   3   5
BRANCH   2  13
HETATM   13  C   UNL     1     -37.968 -49.062  12.843  1.00  0.00     0.078 C 
HETATM   14  C   UNL     1     -38.173 -50.426  12.174  1.00  0.00     0.014 C 
HETATM   15  C   UNL     1     -39.243 -51.255  12.881  1.00  0.00     0.001 C 
HETATM   16  C   UNL     1     -38.918 -51.439  14.360  1.00  0.00     0.000 C 
HETATM   17  C   UNL     1     -38.674 -50.112  15.070  1.00  0.00     0.001 C 
HETATM   18  C   UNL     1     -37.657 -49.235  14.337  1.00  0.00     0.014 C 
ENDBRANCH   2  13
TORSDOF 4
ENDMDL
