MODEL 1
REMARK VINA RESULT:      -5.0      0.000      0.000
REMARK  3 active torsions:
REMARK  status: ('A' for Active; 'I' for Inactive)
REMARK    1  A    between atoms: N_6  and  C_7 
REMARK    2  A    between atoms: C_7  and  C_8 
REMARK    3  A    between atoms: C_11  and  N_12 
ROOT
HETATM    1  C   UNL     1     -46.132 -48.235   8.490  1.00  0.00     0.068 C 
HETATM    2  C   UNL     1     -44.914 -47.455   8.890  1.00  0.00     0.013 A 
HETATM    3  C   UNL     1     -44.914 -46.118   8.908  1.00  0.00     0.099 A 
HETATM    4  C   UNL     1     -43.699 -45.418   9.350  1.00  0.00     0.251 A 
HETATM    5  O   UNL     1     -43.730 -44.194   9.453  1.00  0.00    -0.268 OA
HETATM    6  N   UNL     1     -42.614 -46.216   9.654  1.00  0.00    -0.288 N 
HETATM    7  C   UNL     1     -42.738 -47.591   9.615  1.00  0.00     0.160 A 
HETATM    8  N   UNL     1     -43.824 -48.207   9.245  1.00  0.00    -0.337 N 
ATOM      9  HN  UNL     1     -43.862 -49.226   9.219  1.00  0.00     0.168 HD
ENDROOT
BRANCH   6  10
HETATM   10  C   UNL     1     -41.447 -45.570  10.250  1.00  0.00     0.169 C 
BRANCH  10  11
HETATM   11  C   UNL     1     -41.496 -45.341  11.733  1.00  0.00     0.163 A 
HETATM   12  C   UNL     1     -41.478 -43.965  12.344  1.00  0.00     0.201 A 
HETATM   13  O   UNL     1     -40.324 -44.821  12.369  1.00  0.00    -0.380 OA
ENDBRANCH  10  11
ENDBRANCH   6  10
BRANCH   7  14
HETATM   14  N   UNL     1     -41.683 -48.380   9.963  1.00  0.00    -0.274 NA
HETATM   15  H   UNL     1     -41.469 -48.348  10.955  1.00  0.00     0.127 HD
HETATM   16  H   UNL     1     -40.868 -48.130   9.414  1.00  0.00     0.127 HD
ENDBRANCH   7  14
TORSDOF 3
ENDMDL
MODEL 2
REMARK VINA RESULT:      -4.8      7.941      9.295
REMARK  3 active torsions:
REMARK  status: ('A' for Active; 'I' for Inactive)
REMARK    1  A    between atoms: N_6  and  C_7 
REMARK    2  A    between atoms: C_7  and  C_8 
REMARK    3  A    between atoms: C_11  and  N_12 
ROOT
HETATM    1  C   UNL     1     -40.840 -52.673  12.219  1.00  0.00     0.068 C 
HETATM    2  C   UNL     1     -42.106 -53.288  12.739  1.00  0.00     0.013 A 
HETATM    3  C   UNL     1     -42.091 -54.195  13.721  1.00  0.00     0.099 A 
HETATM    4  C   UNL     1     -43.371 -54.726  14.211  1.00  0.00     0.251 A 
HETATM    5  O   UNL     1     -43.361 -55.491  15.174  1.00  0.00    -0.268 OA
HETATM    6  N   UNL     1     -44.503 -54.283  13.558  1.00  0.00    -0.288 N 
HETATM    7  C   UNL     1     -44.397 -53.329  12.566  1.00  0.00     0.160 A 
HETATM    8  N   UNL     1     -43.262 -52.844  12.150  1.00  0.00    -0.337 N 
ATOM      9  HN  UNL     1     -43.233 -52.150  11.403  1.00  0.00     0.168 HD
ENDROOT
BRANCH   6  10
HETATM   10  C   UNL     1     -45.798 -54.661  14.120  1.00  0.00     0.169 C 
BRANCH  10  11
HETATM   11  C   UNL     1     -46.245 -53.900  15.334  1.00  0.00     0.163 A 
HETATM   12  C   UNL     1     -47.094 -52.659  15.250  1.00  0.00     0.201 A 
HETATM   13  O   UNL     1     -45.689 -52.599  15.550  1.00  0.00    -0.380 OA
ENDBRANCH  10  11
ENDBRANCH   6  10
BRANCH   7  14
HETATM   14  N   UNL     1     -45.518 -52.853  11.954  1.00  0.00    -0.274 NA
HETATM   15  H   UNL     1     -45.531 -51.841  11.874  1.00  0.00     0.127 HD
HETATM   16  H   UNL     1     -46.344 -53.183  12.442  1.00  0.00     0.127 HD
ENDBRANCH   7  14
TORSDOF 3
ENDMDL
MODEL 3
REMARK VINA RESULT:      -4.7      5.791      7.226
REMARK  3 active torsions:
REMARK  status: ('A' for Active; 'I' for Inactive)
REMARK    1  A    between atoms: N_6  and  C_7 
REMARK    2  A    between atoms: C_7  and  C_8 
REMARK    3  A    between atoms: C_11  and  N_12 
ROOT
HETATM    1  C   UNL     1     -40.622 -48.442  11.036  1.00  0.00     0.068 C 
HETATM    2  C   UNL     1     -41.268 -49.627  11.694  1.00  0.00     0.013 A 
HETATM    3  C   UNL     1     -42.267 -49.482  12.570  1.00  0.00     0.099 A 
HETATM    4  C   UNL     1     -42.881 -50.687  13.146  1.00  0.00     0.251 A 
HETATM    5  O   UNL     1     -43.857 -50.557  13.881  1.00  0.00    -0.268 OA
HETATM    6  N   UNL     1     -42.320 -51.893  12.774  1.00  0.00    -0.288 N 
HETATM    7  C   UNL     1     -41.298 -51.920  11.845  1.00  0.00     0.160 A 
HETATM    8  N   UNL     1     -40.772 -50.850  11.321  1.00  0.00    -0.337 N 
ATOM      9  HN  UNL     1     -40.009 -50.920  10.648  1.00  0.00     0.168 HD
ENDROOT
BRANCH   6  10
HETATM   10  C   UNL     1     -43.003 -53.114  13.195  1.00  0.00     0.169 C 
BRANCH  10  11
HETATM   11  C   UNL     1     -44.274 -53.450  12.471  1.00  0.00     0.163 A 
HETATM   12  C   UNL     1     -45.623 -53.418  13.139  1.00  0.00     0.201 A 
HETATM   13  O   UNL     1     -44.954 -54.655  12.838  1.00  0.00    -0.380 OA
ENDBRANCH  10  11
ENDBRANCH   6  10
BRANCH   7  14
HETATM   14  N   UNL     1     -40.777 -53.111  11.440  1.00  0.00    -0.274 NA
HETATM   15  H   UNL     1     -40.930 -53.300  10.454  1.00  0.00     0.127 HD
HETATM   16  H   UNL     1     -41.150 -53.864  12.009  1.00  0.00     0.127 HD
ENDBRANCH   7  14
TORSDOF 3
ENDMDL
MODEL 4
REMARK VINA RESULT:      -4.7      7.585      8.365
REMARK  3 active torsions:
REMARK  status: ('A' for Active; 'I' for Inactive)
REMARK    1  A    between atoms: N_6  and  C_7 
REMARK    2  A    between atoms: C_7  and  C_8 
REMARK    3  A    between atoms: C_11  and  N_12 
ROOT
HETATM    1  C   UNL     1     -47.403 -51.606  11.375  1.00  0.00     0.068 C 
HETATM    2  C   UNL     1     -46.364 -51.883  12.422  1.00  0.00     0.013 A 
HETATM    3  C   UNL     1     -46.508 -51.458  13.681  1.00  0.00     0.099 A 
HETATM    4  C   UNL     1     -45.471 -51.800  14.665  1.00  0.00     0.251 A 
HETATM    5  O   UNL     1     -45.648 -51.486  15.840  1.00  0.00    -0.268 OA
HETATM    6  N   UNL     1     -44.379 -52.492  14.182  1.00  0.00    -0.288 N 
HETATM    7  C   UNL     1     -44.348 -52.895  12.861  1.00  0.00     0.160 A 
HETATM    8  N   UNL     1     -45.280 -52.608  11.998  1.00  0.00    -0.337 N 
ATOM      9  HN  UNL     1     -45.206 -52.916  11.028  1.00  0.00     0.168 HD
ENDROOT
BRANCH   6  10
HETATM   10  C   UNL     1     -43.410 -52.990  15.155  1.00  0.00     0.169 C 
BRANCH  10  11
HETATM   11  C   UNL     1     -43.708 -54.327  15.768  1.00  0.00     0.163 A 
HETATM   12  C   UNL     1     -42.668 -55.407  15.911  1.00  0.00     0.201 A 
HETATM   13  O   UNL     1     -43.698 -55.473  14.911  1.00  0.00    -0.380 OA
ENDBRANCH  10  11
ENDBRANCH   6  10
BRANCH   7  14
HETATM   14  N   UNL     1     -43.294 -53.622  12.394  1.00  0.00    -0.274 NA
HETATM   15  H   UNL     1     -43.575 -54.469  11.911  1.00  0.00     0.127 HD
HETATM   16  H   UNL     1     -42.660 -53.839  13.156  1.00  0.00     0.127 HD
ENDBRANCH   7  14
TORSDOF 3
ENDMDL
MODEL 5
REMARK VINA RESULT:      -4.7      1.977      2.756
REMARK  3 active torsions:
REMARK  status: ('A' for Active; 'I' for Inactive)
REMARK    1  A    between atoms: N_6  and  C_7 
REMARK    2  A    between atoms: C_7  and  C_8 
REMARK    3  A    between atoms: C_11  and  N_12 
ROOT
HETATM    1  C   UNL     1     -43.746 -48.122   7.548  1.00  0.00     0.068 C 
HETATM    2  C   UNL     1     -43.313 -47.324   8.743  1.00  0.00     0.013 A 
HETATM    3  C   UNL     1     -42.550 -47.858   9.702  1.00  0.00     0.099 A 
HETATM    4  C   UNL     1     -42.128 -47.008  10.824  1.00  0.00     0.251 A 
HETATM    5  O   UNL     1     -41.353 -47.474  11.657  1.00  0.00    -0.268 OA
HETATM    6  N   UNL     1     -42.618 -45.718  10.828  1.00  0.00    -0.288 N 
HETATM    7  C   UNL     1     -43.387 -45.270   9.771  1.00  0.00     0.160 A 
HETATM    8  N   UNL     1     -43.739 -46.021   8.767  1.00  0.00    -0.337 N 
ATOM      9  HN  UNL     1     -44.321 -45.648   8.016  1.00  0.00     0.168 HD
ENDROOT
BRANCH   6  10
HETATM   10  C   UNL     1     -42.093 -44.798  11.834  1.00  0.00     0.169 C 
BRANCH  10  11
HETATM   11  C   UNL     1     -40.814 -44.091  11.488  1.00  0.00     0.163 A 
HETATM   12  C   UNL     1     -40.588 -42.631  11.778  1.00  0.00     0.201 A 
HETATM   13  O   UNL     1     -40.854 -43.109  10.448  1.00  0.00    -0.380 OA
ENDBRANCH  10  11
ENDBRANCH   6  10
BRANCH   7  14
HETATM   14  N   UNL     1     -43.831 -43.982   9.748  1.00  0.00    -0.274 NA
HETATM   15  H   UNL     1     -43.628 -43.474  10.603  1.00  0.00     0.127 HD
HETATM   16  H   UNL     1     -44.826 -43.963   9.549  1.00  0.00     0.127 HD
ENDBRANCH   7  14
TORSDOF 3
ENDMDL
MODEL 6
REMARK VINA RESULT:      -4.5      5.817      6.560
REMARK  3 active torsions:
REMARK  status: ('A' for Active; 'I' for Inactive)
REMARK    1  A    between atoms: N_6  and  C_7 
REMARK    2  A    between atoms: C_7  and  C_8 
REMARK    3  A    between atoms: C_11  and  N_12 
ROOT
HETATM    1  C   UNL     1     -44.538 -54.343  13.642  1.00  0.00     0.068 C 
HETATM    2  C   UNL     1     -43.614 -53.269  13.148  1.00  0.00     0.013 A 
HETATM    3  C   UNL     1     -43.861 -51.975  13.375  1.00  0.00     0.099 A 
HETATM    4  C   UNL     1     -42.893 -50.977  12.899  1.00  0.00     0.251 A 
HETATM    5  O   UNL     1     -43.074 -49.796  13.187  1.00  0.00    -0.268 OA
HETATM    6  N   UNL     1     -41.818 -51.465  12.184  1.00  0.00    -0.288 N 
HETATM    7  C   UNL     1     -41.657 -52.828  12.026  1.00  0.00     0.160 A 
HETATM    8  N   UNL     1     -42.507 -53.710  12.470  1.00  0.00    -0.337 N 
ATOM      9  HN  UNL     1     -42.352 -54.707  12.316  1.00  0.00     0.168 HD
ENDROOT
BRANCH   6  10
HETATM   10  C   UNL     1     -40.755 -50.525  11.836  1.00  0.00     0.169 C 
BRANCH  10  11
HETATM   11  C   UNL     1     -39.600 -50.441  12.792  1.00  0.00     0.163 A 
HETATM   12  C   UNL     1     -38.188 -50.176  12.341  1.00  0.00     0.201 A 
HETATM   13  O   UNL     1     -38.621 -51.484  12.751  1.00  0.00    -0.380 OA
ENDBRANCH  10  11
ENDBRANCH   6  10
BRANCH   7  14
HETATM   14  N   UNL     1     -40.571 -53.315  11.363  1.00  0.00    -0.274 NA
HETATM   15  H   UNL     1     -40.239 -52.696  10.630  1.00  0.00     0.127 HD
HETATM   16  H   UNL     1     -40.778 -54.234  10.988  1.00  0.00     0.127 HD
ENDBRANCH   7  14
TORSDOF 3
ENDMDL
MODEL 7
REMARK VINA RESULT:      -4.5      7.328      8.210
REMARK  3 active torsions:
REMARK  status: ('A' for Active; 'I' for Inactive)
REMARK    1  A    between atoms: N_6  and  C_7 
REMARK    2  A    between atoms: C_7  and  C_8 
REMARK    3  A    between atoms: C_11  and  N_12 
ROOT
HETATM    1  C   UNL     1     -46.412 -51.621  13.210  1.00  0.00     0.068 C 
HETATM    2  C   UNL     1     -45.093 -52.333  13.273  1.00  0.00     0.013 A 
HETATM    3  C   UNL     1     -44.930 -53.442  14.003  1.00  0.00     0.099 A 
HETATM    4  C   UNL     1     -43.622 -54.112  13.987  1.00  0.00     0.251 A 
HETATM    5  O   UNL     1     -43.500 -55.179  14.584  1.00  0.00    -0.268 OA
HETATM    6  N   UNL     1     -42.629 -53.491  13.255  1.00  0.00    -0.288 N 
HETATM    7  C   UNL     1     -42.920 -52.355  12.525  1.00  0.00     0.160 A 
HETATM    8  N   UNL     1     -44.087 -51.777  12.525  1.00  0.00    -0.337 N 
ATOM      9  HN  UNL     1     -44.250 -50.930  11.980  1.00  0.00     0.168 HD
ENDROOT
BRANCH   6  10
HETATM   10  C   UNL     1     -41.368 -54.208  13.083  1.00  0.00     0.169 C 
BRANCH  10  11
HETATM   11  C   UNL     1     -40.308 -53.949  14.114  1.00  0.00     0.163 A 
HETATM   12  C   UNL     1     -39.339 -52.801  14.013  1.00  0.00     0.201 A 
HETATM   13  O   UNL     1     -38.943 -54.155  13.736  1.00  0.00    -0.380 OA
ENDBRANCH  10  11
ENDBRANCH   6  10
BRANCH   7  14
HETATM   14  N   UNL     1     -41.954 -51.768  11.763  1.00  0.00    -0.274 NA
HETATM   15  H   UNL     1     -42.069 -50.764  11.676  1.00  0.00     0.127 HD
HETATM   16  H   UNL     1     -41.925 -52.205  10.847  1.00  0.00     0.127 HD
ENDBRANCH   7  14
TORSDOF 3
ENDMDL
MODEL 8
REMARK VINA RESULT:      -4.4      6.654      8.153
REMARK  3 active torsions:
REMARK  status: ('A' for Active; 'I' for Inactive)
REMARK    1  A    between atoms: N_6  and  C_7 
REMARK    2  A    between atoms: C_7  and  C_8 
REMARK    3  A    between atoms: C_11  and  N_12 
ROOT
HETATM    1  C   UNL     1     -40.743 -48.945  11.496  1.00  0.00     0.068 C 
HETATM    2  C   UNL     1     -40.774 -50.371  11.963  1.00  0.00     0.013 A 
HETATM    3  C   UNL     1     -39.718 -50.937  12.554  1.00  0.00     0.099 A 
HETATM    4  C   UNL     1     -39.831 -52.325  13.024  1.00  0.00     0.251 A 
HETATM    5  O   UNL     1     -38.891 -52.815  13.647  1.00  0.00    -0.268 OA
HETATM    6  N   UNL     1     -41.025 -52.964  12.753  1.00  0.00    -0.288 N 
HETATM    7  C   UNL     1     -42.055 -52.270  12.150  1.00  0.00     0.160 A 
HETATM    8  N   UNL     1     -41.957 -51.033  11.755  1.00  0.00    -0.337 N 
ATOM      9  HN  UNL     1     -42.743 -50.566  11.300  1.00  0.00     0.168 HD
ENDROOT
BRANCH   6  10
HETATM   10  C   UNL     1     -41.235 -54.283  13.345  1.00  0.00     0.169 C 
BRANCH  10  11
HETATM   11  C   UNL     1     -41.793 -54.306  14.738  1.00  0.00     0.163 A 
HETATM   12  C   UNL     1     -42.960 -55.173  15.132  1.00  0.00     0.201 A 
HETATM   13  O   UNL     1     -43.098 -53.754  14.945  1.00  0.00    -0.380 OA
ENDBRANCH  10  11
ENDBRANCH   6  10
BRANCH   7  14
HETATM   14  N   UNL     1     -43.251 -52.883  11.926  1.00  0.00    -0.274 NA
HETATM   15  H   UNL     1     -43.953 -52.656  12.623  1.00  0.00     0.127 HD
HETATM   16  H   UNL     1     -43.119 -53.888  11.866  1.00  0.00     0.127 HD
ENDBRANCH   7  14
TORSDOF 3
ENDMDL
MODEL 9
REMARK VINA RESULT:      -4.4      7.827      9.248
REMARK  3 active torsions:
REMARK  status: ('A' for Active; 'I' for Inactive)
REMARK    1  A    between atoms: N_6  and  C_7 
REMARK    2  A    between atoms: C_7  and  C_8 
REMARK    3  A    between atoms: C_11  and  N_12 
ROOT
HETATM    1  C   UNL     1     -39.994 -54.474  15.320  1.00  0.00     0.068 C 
HETATM    2  C   UNL     1     -41.342 -54.358  14.671  1.00  0.00     0.013 A 
HETATM    3  C   UNL     1     -42.415 -54.979  15.170  1.00  0.00     0.099 A 
HETATM    4  C   UNL     1     -43.713 -54.789  14.508  1.00  0.00     0.251 A 
HETATM    5  O   UNL     1     -44.714 -55.287  15.020  1.00  0.00    -0.268 OA
HETATM    6  N   UNL     1     -43.705 -54.020  13.362  1.00  0.00    -0.288 N 
HETATM    7  C   UNL     1     -42.535 -53.412  12.949  1.00  0.00     0.160 A 
HETATM    8  N   UNL     1     -41.391 -53.565  13.553  1.00  0.00    -0.337 N 
ATOM      9  HN  UNL     1     -40.550 -53.106  13.201  1.00  0.00     0.168 HD
ENDROOT
BRANCH   6  10
HETATM   10  C   UNL     1     -44.995 -53.675  12.770  1.00  0.00     0.169 C 
BRANCH  10  11
HETATM   11  C   UNL     1     -45.711 -52.500  13.371  1.00  0.00     0.163 A 
HETATM   12  C   UNL     1     -46.555 -51.558  12.554  1.00  0.00     0.201 A 
HETATM   13  O   UNL     1     -45.249 -51.189  13.028  1.00  0.00    -0.380 OA
ENDBRANCH  10  11
ENDBRANCH   6  10
BRANCH   7  14
HETATM   14  N   UNL     1     -42.535 -52.611  11.847  1.00  0.00    -0.274 NA
HETATM   15  H   UNL     1     -42.813 -51.656  12.046  1.00  0.00     0.127 HD
HETATM   16  H   UNL     1     -43.128 -53.013  11.128  1.00  0.00     0.127 HD
ENDBRANCH   7  14
TORSDOF 3
ENDMDL
