MODEL 1
REMARK VINA RESULT:      -6.3      0.000      0.000
REMARK  3 active torsions:
REMARK  status: ('A' for Active; 'I' for Inactive)
REMARK    1  A    between atoms: C_10  and  N_11 
REMARK    2  A    between atoms: N_11  and  C_12 
REMARK    3  A    between atoms: C_12  and  C_13 
ROOT
HETATM    1  N   UNL     1     -37.140 -51.424  12.382  1.00  0.00    -0.190 NA
HETATM    2  C   UNL     1     -38.088 -50.791  12.134  1.00  0.00     0.121 C 
HETATM    3  C   UNL     1     -39.261 -50.002  11.867  1.00  0.00     0.152 A 
HETATM    4  N   UNL     1     -39.027 -48.662  11.999  1.00  0.00    -0.353 N 
ATOM      5  HN  UNL     1     -38.126 -48.297  12.308  1.00  0.00     0.166 HD
HETATM    6  C   UNL     1     -40.058 -47.855  11.696  1.00  0.00     0.106 A 
HETATM    7  C   UNL     1     -41.278 -48.354  11.285  1.00  0.00     0.106 A 
HETATM    8  N   UNL     1     -41.537 -49.685  11.192  1.00  0.00    -0.353 N 
ATOM      9  HN  UNL     1     -42.453 -50.030  10.907  1.00  0.00     0.166 HD
HETATM   10  C   UNL     1     -40.523 -50.534  11.495  1.00  0.00     0.118 A 
ENDROOT
BRANCH  10  11
HETATM   11  N   UNL     1     -40.869 -51.901  11.390  1.00  0.00    -0.274 NA
HETATM   12  H   UNL     1     -41.104 -52.054  10.406  1.00  0.00     0.129 HD
BRANCH  11  13
HETATM   13  C   UNL     1     -41.964 -52.265  12.290  1.00  0.00     0.127 C 
BRANCH  13  14
HETATM   14  C   UNL     1     -41.626 -52.551  13.775  1.00  0.00     0.163 C 
HETATM   15  C   UNL     1     -42.583 -51.659  14.608  1.00  0.00     0.306 C 
HETATM   16  N   UNL     1     -43.937 -52.035  14.187  1.00  0.00     0.097 N 
HETATM   17  C   UNL     1     -44.969 -51.046  14.431  1.00  0.00     0.273 C 
HETATM   18  C   UNL     1     -44.231 -53.412  14.612  1.00  0.00     0.246 C 
HETATM   19  C   UNL     1     -46.265 -51.495  13.756  1.00  0.00     0.030 C 
HETATM   20  C   UNL     1     -46.694 -52.865  14.266  1.00  0.00     0.004 C 
HETATM   21  C   UNL     1     -45.582 -53.883  14.047  1.00  0.00     0.038 C 
HETATM   22  C   UNL     1     -43.124 -54.401  14.126  1.00  0.00     0.204 C 
HETATM   23  O   UNL     1     -41.776 -53.916  14.202  1.00  0.00    -0.381 OA
ENDBRANCH  13  14
ENDBRANCH  11  13
ENDBRANCH  10  11
TORSDOF 3
ENDMDL
MODEL 2
REMARK VINA RESULT:      -6.3      1.501      2.777
REMARK  3 active torsions:
REMARK  status: ('A' for Active; 'I' for Inactive)
REMARK    1  A    between atoms: C_10  and  N_11 
REMARK    2  A    between atoms: N_11  and  C_12 
REMARK    3  A    between atoms: C_12  and  C_13 
ROOT
HETATM    1  N   UNL     1     -42.258 -47.853  10.172  1.00  0.00    -0.190 NA
HETATM    2  C   UNL     1     -41.499 -48.575  10.684  1.00  0.00     0.121 C 
HETATM    3  C   UNL     1     -40.546 -49.474  11.279  1.00  0.00     0.152 A 
HETATM    4  N   UNL     1     -39.286 -48.946  11.315  1.00  0.00    -0.353 N 
ATOM      5  HN  UNL     1     -39.067 -48.037  10.908  1.00  0.00     0.166 HD
HETATM    6  C   UNL     1     -38.352 -49.699  11.922  1.00  0.00     0.106 A 
HETATM    7  C   UNL     1     -38.651 -50.932  12.466  1.00  0.00     0.106 A 
HETATM    8  N   UNL     1     -39.890 -51.488  12.397  1.00  0.00    -0.353 N 
ATOM      9  HN  UNL     1     -40.082 -52.410  12.788  1.00  0.00     0.166 HD
HETATM   10  C   UNL     1     -40.860 -50.761  11.787  1.00  0.00     0.118 A 
ENDROOT
BRANCH  10  11
HETATM   11  N   UNL     1     -42.117 -51.407  11.741  1.00  0.00    -0.274 NA
HETATM   12  H   UNL     1     -42.785 -50.696  11.433  1.00  0.00     0.129 HD
BRANCH  11  13
HETATM   13  C   UNL     1     -42.483 -51.997  13.029  1.00  0.00     0.127 C 
BRANCH  13  14
HETATM   14  C   UNL     1     -43.084 -53.426  13.035  1.00  0.00     0.163 C 
HETATM   15  C   UNL     1     -43.519 -53.698  14.498  1.00  0.00     0.306 C 
HETATM   16  N   UNL     1     -44.455 -52.619  14.836  1.00  0.00     0.097 N 
HETATM   17  C   UNL     1     -44.624 -52.354  16.252  1.00  0.00     0.273 C 
HETATM   18  C   UNL     1     -45.685 -52.754  14.041  1.00  0.00     0.246 C 
HETATM   19  C   UNL     1     -45.457 -51.085  16.430  1.00  0.00     0.030 C 
HETATM   20  C   UNL     1     -46.808 -51.222  15.738  1.00  0.00     0.004 C 
HETATM   21  C   UNL     1     -46.615 -51.549  14.262  1.00  0.00     0.038 C 
HETATM   22  C   UNL     1     -45.362 -52.851  12.516  1.00  0.00     0.204 C 
HETATM   23  O   UNL     1     -44.212 -53.636  12.169  1.00  0.00    -0.381 OA
ENDBRANCH  13  14
ENDBRANCH  11  13
ENDBRANCH  10  11
TORSDOF 3
ENDMDL
MODEL 3
REMARK VINA RESULT:      -6.3      1.455      1.908
REMARK  3 active torsions:
REMARK  status: ('A' for Active; 'I' for Inactive)
REMARK    1  A    between atoms: C_10  and  N_11 
REMARK    2  A    between atoms: N_11  and  C_12 
REMARK    3  A    between atoms: C_12  and  C_13 
ROOT
HETATM    1  N   UNL     1     -38.220 -51.888  13.239  1.00  0.00    -0.190 NA
HETATM    2  C   UNL     1     -38.990 -51.122  12.815  1.00  0.00     0.121 C 
HETATM    3  C   UNL     1     -39.949 -50.166  12.329  1.00  0.00     0.152 A 
HETATM    4  N   UNL     1     -39.496 -48.880  12.429  1.00  0.00    -0.353 N 
ATOM      5  HN  UNL     1     -38.598 -48.653  12.855  1.00  0.00     0.166 HD
HETATM    6  C   UNL     1     -40.308 -47.933  11.929  1.00  0.00     0.106 A 
HETATM    7  C   UNL     1     -41.527 -48.244  11.358  1.00  0.00     0.106 A 
HETATM    8  N   UNL     1     -42.007 -49.514  11.293  1.00  0.00    -0.353 N 
ATOM      9  HN  UNL     1     -42.920 -49.717  10.887  1.00  0.00     0.166 HD
HETATM   10  C   UNL     1     -41.220 -50.499  11.793  1.00  0.00     0.118 A 
ENDROOT
BRANCH  10  11
HETATM   11  N   UNL     1     -41.790 -51.790  11.704  1.00  0.00    -0.274 NA
HETATM   12  H   UNL     1     -42.188 -51.855  10.764  1.00  0.00     0.129 HD
BRANCH  11  13
HETATM   13  C   UNL     1     -42.785 -52.027  12.750  1.00  0.00     0.127 C 
BRANCH  13  14
HETATM   14  C   UNL     1     -43.406 -53.444  12.862  1.00  0.00     0.163 C 
HETATM   15  C   UNL     1     -43.656 -53.680  14.374  1.00  0.00     0.306 C 
HETATM   16  N   UNL     1     -44.522 -52.577  14.806  1.00  0.00     0.097 N 
HETATM   17  C   UNL     1     -44.504 -52.282  16.226  1.00  0.00     0.273 C 
HETATM   18  C   UNL     1     -45.845 -52.701  14.176  1.00  0.00     0.246 C 
HETATM   19  C   UNL     1     -45.285 -50.993  16.482  1.00  0.00     0.030 C 
HETATM   20  C   UNL     1     -46.715 -51.116  15.970  1.00  0.00     0.004 C 
HETATM   21  C   UNL     1     -46.718 -51.474  14.489  1.00  0.00     0.038 C 
HETATM   22  C   UNL     1     -45.721 -52.832  12.625  1.00  0.00     0.204 C 
HETATM   23  O   UNL     1     -44.639 -53.647  12.152  1.00  0.00    -0.381 OA
ENDBRANCH  13  14
ENDBRANCH  11  13
ENDBRANCH  10  11
TORSDOF 3
ENDMDL
MODEL 4
REMARK VINA RESULT:      -6.3      2.354      3.503
REMARK  3 active torsions:
REMARK  status: ('A' for Active; 'I' for Inactive)
REMARK    1  A    between atoms: C_10  and  N_11 
REMARK    2  A    between atoms: N_11  and  C_12 
REMARK    3  A    between atoms: C_12  and  C_13 
ROOT
HETATM    1  N   UNL     1     -38.936 -55.331  15.037  1.00  0.00    -0.190 NA
HETATM    2  C   UNL     1     -39.310 -54.411  14.426  1.00  0.00     0.121 C 
HETATM    3  C   UNL     1     -39.778 -53.256  13.706  1.00  0.00     0.152 A 
HETATM    4  N   UNL     1     -38.875 -52.231  13.726  1.00  0.00    -0.353 N 
ATOM      5  HN  UNL     1     -38.001 -52.289  14.248  1.00  0.00     0.166 HD
HETATM    6  C   UNL     1     -39.211 -51.141  13.014  1.00  0.00     0.106 A 
HETATM    7  C   UNL     1     -40.398 -51.065  12.315  1.00  0.00     0.106 A 
HETATM    8  N   UNL     1     -41.324 -52.060  12.323  1.00  0.00    -0.353 N 
ATOM      9  HN  UNL     1     -42.205 -51.972  11.816  1.00  0.00     0.166 HD
HETATM   10  C   UNL     1     -41.026 -53.175  13.035  1.00  0.00     0.118 A 
ENDROOT
BRANCH  10  11
HETATM   11  N   UNL     1     -42.040 -54.161  13.010  1.00  0.00    -0.274 NA
HETATM   12  H   UNL     1     -42.055 -54.520  12.052  1.00  0.00     0.129 HD
BRANCH  11  13
HETATM   13  C   UNL     1     -43.337 -53.628  13.427  1.00  0.00     0.127 C 
BRANCH  13  14
HETATM   14  C   UNL     1     -44.613 -54.195  12.752  1.00  0.00     0.163 C 
HETATM   15  C   UNL     1     -45.486 -54.763  13.900  1.00  0.00     0.306 C 
HETATM   16  N   UNL     1     -45.706 -53.640  14.819  1.00  0.00     0.097 N 
HETATM   17  C   UNL     1     -46.056 -53.999  16.180  1.00  0.00     0.273 C 
HETATM   18  C   UNL     1     -46.543 -52.619  14.172  1.00  0.00     0.246 C 
HETATM   19  C   UNL     1     -46.046 -52.743  17.050  1.00  0.00     0.030 C 
HETATM   20  C   UNL     1     -47.007 -51.696  16.500  1.00  0.00     0.004 C 
HETATM   21  C   UNL     1     -46.658 -51.364  15.055  1.00  0.00     0.038 C 
HETATM   22  C   UNL     1     -45.949 -52.194  12.791  1.00  0.00     0.204 C 
HETATM   23  O   UNL     1     -45.395 -53.254  11.997  1.00  0.00    -0.381 OA
ENDBRANCH  13  14
ENDBRANCH  11  13
ENDBRANCH  10  11
TORSDOF 3
ENDMDL
MODEL 5
REMARK VINA RESULT:      -6.1      2.657      4.009
REMARK  3 active torsions:
REMARK  status: ('A' for Active; 'I' for Inactive)
REMARK    1  A    between atoms: C_10  and  N_11 
REMARK    2  A    between atoms: N_11  and  C_12 
REMARK    3  A    between atoms: C_12  and  C_13 
ROOT
HETATM    1  N   UNL     1     -41.679 -44.637  12.493  1.00  0.00    -0.190 NA
HETATM    2  C   UNL     1     -42.059 -45.297  11.610  1.00  0.00     0.121 C 
HETATM    3  C   UNL     1     -42.562 -46.119  10.541  1.00  0.00     0.152 A 
HETATM    4  N   UNL     1     -43.576 -45.512   9.853  1.00  0.00    -0.353 N 
ATOM      5  HN  UNL     1     -43.948 -44.603  10.126  1.00  0.00     0.166 HD
HETATM    6  C   UNL     1     -44.051 -46.189   8.794  1.00  0.00     0.106 A 
HETATM    7  C   UNL     1     -43.548 -47.423   8.432  1.00  0.00     0.106 A 
HETATM    8  N   UNL     1     -42.572 -48.056   9.134  1.00  0.00    -0.353 N 
ATOM      9  HN  UNL     1     -42.231 -48.978   8.860  1.00  0.00     0.166 HD
HETATM   10  C   UNL     1     -42.069 -47.408  10.215  1.00  0.00     0.118 A 
ENDROOT
BRANCH  10  11
HETATM   11  N   UNL     1     -41.068 -48.132  10.903  1.00  0.00    -0.274 NA
HETATM   12  H   UNL     1     -40.300 -48.249  10.237  1.00  0.00     0.129 HD
BRANCH  11  13
HETATM   13  C   UNL     1     -41.563 -49.410  11.414  1.00  0.00     0.127 C 
BRANCH  13  14
HETATM   14  C   UNL     1     -40.776 -50.095  12.561  1.00  0.00     0.163 C 
HETATM   15  C   UNL     1     -41.754 -50.172  13.762  1.00  0.00     0.306 C 
HETATM   16  N   UNL     1     -42.922 -50.912  13.270  1.00  0.00     0.097 N 
HETATM   17  C   UNL     1     -44.154 -50.703  14.007  1.00  0.00     0.273 C 
HETATM   18  C   UNL     1     -42.551 -52.307  12.990  1.00  0.00     0.246 C 
HETATM   19  C   UNL     1     -45.307 -51.369  13.256  1.00  0.00     0.030 C 
HETATM   20  C   UNL     1     -45.037 -52.856  13.058  1.00  0.00     0.004 C 
HETATM   21  C   UNL     1     -43.716 -53.062  12.327  1.00  0.00     0.038 C 
HETATM   22  C   UNL     1     -41.314 -52.382  12.039  1.00  0.00     0.204 C 
HETATM   23  O   UNL     1     -40.281 -51.416  12.281  1.00  0.00    -0.381 OA
ENDBRANCH  13  14
ENDBRANCH  11  13
ENDBRANCH  10  11
TORSDOF 3
ENDMDL
MODEL 6
REMARK VINA RESULT:      -6.0      2.180      3.704
REMARK  3 active torsions:
REMARK  status: ('A' for Active; 'I' for Inactive)
REMARK    1  A    between atoms: C_10  and  N_11 
REMARK    2  A    between atoms: N_11  and  C_12 
REMARK    3  A    between atoms: C_12  and  C_13 
ROOT
HETATM    1  N   UNL     1     -40.190 -49.381  12.970  1.00  0.00    -0.190 NA
HETATM    2  C   UNL     1     -40.173 -50.540  13.096  1.00  0.00     0.121 C 
HETATM    3  C   UNL     1     -40.122 -51.973  13.226  1.00  0.00     0.152 A 
HETATM    4  N   UNL     1     -39.039 -52.390  13.948  1.00  0.00    -0.353 N 
ATOM      5  HN  UNL     1     -38.335 -51.739  14.295  1.00  0.00     0.166 HD
HETATM    6  C   UNL     1     -38.960 -53.713  14.173  1.00  0.00     0.106 A 
HETATM    7  C   UNL     1     -39.912 -54.592  13.696  1.00  0.00     0.106 A 
HETATM    8  N   UNL     1     -40.969 -54.194  12.940  1.00  0.00    -0.353 N 
ATOM      9  HN  UNL     1     -41.648 -54.865  12.580  1.00  0.00     0.166 HD
HETATM   10  C   UNL     1     -41.082 -52.866  12.685  1.00  0.00     0.118 A 
ENDROOT
BRANCH  10  11
HETATM   11  N   UNL     1     -42.196 -52.529  11.882  1.00  0.00    -0.274 NA
HETATM   12  H   UNL     1     -41.959 -51.639  11.436  1.00  0.00     0.129 HD
BRANCH  11  13
HETATM   13  C   UNL     1     -43.434 -52.451  12.659  1.00  0.00     0.127 C 
BRANCH  13  14
HETATM   14  C   UNL     1     -44.512 -53.541  12.428  1.00  0.00     0.163 C 
HETATM   15  C   UNL     1     -44.775 -54.180  13.816  1.00  0.00     0.306 C 
HETATM   16  N   UNL     1     -45.176 -53.072  14.690  1.00  0.00     0.097 N 
HETATM   17  C   UNL     1     -45.003 -53.298  16.112  1.00  0.00     0.273 C 
HETATM   18  C   UNL     1     -46.479 -52.541  14.262  1.00  0.00     0.246 C 
HETATM   19  C   UNL     1     -45.265 -51.993  16.864  1.00  0.00     0.030 C 
HETATM   20  C   UNL     1     -46.663 -51.467  16.564  1.00  0.00     0.004 C 
HETATM   21  C   UNL     1     -46.847 -51.281  15.063  1.00  0.00     0.038 C 
HETATM   22  C   UNL     1     -46.466 -52.172  12.744  1.00  0.00     0.204 C 
HETATM   23  O   UNL     1     -45.762 -53.081  11.886  1.00  0.00    -0.381 OA
ENDBRANCH  13  14
ENDBRANCH  11  13
ENDBRANCH  10  11
TORSDOF 3
ENDMDL
MODEL 7
REMARK VINA RESULT:      -6.0      2.399      5.635
REMARK  3 active torsions:
REMARK  status: ('A' for Active; 'I' for Inactive)
REMARK    1  A    between atoms: C_10  and  N_11 
REMARK    2  A    between atoms: N_11  and  C_12 
REMARK    3  A    between atoms: C_12  and  C_13 
ROOT
HETATM    1  N   UNL     1     -44.569 -53.905  12.436  1.00  0.00    -0.190 NA
HETATM    2  C   UNL     1     -43.542 -54.036  12.973  1.00  0.00     0.121 C 
HETATM    3  C   UNL     1     -42.282 -54.164  13.657  1.00  0.00     0.152 A 
HETATM    4  N   UNL     1     -42.431 -54.615  14.939  1.00  0.00    -0.353 N 
ATOM      5  HN  UNL     1     -43.349 -54.780  15.352  1.00  0.00     0.166 HD
HETATM    6  C   UNL     1     -41.293 -54.828  15.621  1.00  0.00     0.106 A 
HETATM    7  C   UNL     1     -40.053 -54.597  15.059  1.00  0.00     0.106 A 
HETATM    8  N   UNL     1     -39.893 -54.106  13.802  1.00  0.00    -0.353 N 
ATOM      9  HN  UNL     1     -38.966 -53.923  13.416  1.00  0.00     0.166 HD
HETATM   10  C   UNL     1     -41.019 -53.872  13.082  1.00  0.00     0.118 A 
ENDROOT
BRANCH  10  11
HETATM   11  N   UNL     1     -40.775 -53.350  11.790  1.00  0.00    -0.274 NA
HETATM   12  H   UNL     1     -39.839 -53.671  11.532  1.00  0.00     0.129 HD
BRANCH  11  13
HETATM   13  C   UNL     1     -40.896 -51.892  11.752  1.00  0.00     0.127 C 
BRANCH  13  14
HETATM   14  C   UNL     1     -39.707 -51.045  12.272  1.00  0.00     0.163 C 
HETATM   15  C   UNL     1     -39.733 -49.728  11.454  1.00  0.00     0.306 C 
HETATM   16  N   UNL     1     -41.063 -49.151  11.681  1.00  0.00     0.097 N 
HETATM   17  C   UNL     1     -41.519 -48.210  10.676  1.00  0.00     0.273 C 
HETATM   18  C   UNL     1     -41.196 -48.732  13.083  1.00  0.00     0.246 C 
HETATM   19  C   UNL     1     -42.984 -47.864  10.940  1.00  0.00     0.030 C 
HETATM   20  C   UNL     1     -43.161 -47.291  12.341  1.00  0.00     0.004 C 
HETATM   21  C   UNL     1     -42.632 -48.269  13.383  1.00  0.00     0.038 C 
HETATM   22  C   UNL     1     -40.844 -49.901  14.058  1.00  0.00     0.204 C 
HETATM   23  O   UNL     1     -39.731 -50.721  13.673  1.00  0.00    -0.381 OA
ENDBRANCH  13  14
ENDBRANCH  11  13
ENDBRANCH  10  11
TORSDOF 3
ENDMDL
MODEL 8
REMARK VINA RESULT:      -5.5      2.658      5.174
REMARK  3 active torsions:
REMARK  status: ('A' for Active; 'I' for Inactive)
REMARK    1  A    between atoms: C_10  and  N_11 
REMARK    2  A    between atoms: N_11  and  C_12 
REMARK    3  A    between atoms: C_12  and  C_13 
ROOT
HETATM    1  N   UNL     1     -43.956 -47.520   8.378  1.00  0.00    -0.190 NA
HETATM    2  C   UNL     1     -43.174 -47.399   9.234  1.00  0.00     0.121 C 
HETATM    3  C   UNL     1     -42.180 -47.266  10.267  1.00  0.00     0.152 A 
HETATM    4  N   UNL     1     -41.280 -46.274   9.997  1.00  0.00    -0.353 N 
ATOM      5  HN  UNL     1     -41.303 -45.743   9.127  1.00  0.00     0.166 HD
HETATM    6  C   UNL     1     -40.361 -46.042  10.951  1.00  0.00     0.106 A 
HETATM    7  C   UNL     1     -40.329 -46.769  12.124  1.00  0.00     0.106 A 
HETATM    8  N   UNL     1     -41.191 -47.786  12.385  1.00  0.00    -0.353 N 
ATOM      9  HN  UNL     1     -41.134 -48.323  13.251  1.00  0.00     0.166 HD
HETATM   10  C   UNL     1     -42.131 -48.057  11.444  1.00  0.00     0.118 A 
ENDROOT
BRANCH  10  11
HETATM   11  N   UNL     1     -42.982 -49.136  11.777  1.00  0.00    -0.274 NA
HETATM   12  H   UNL     1     -43.890 -48.717  11.998  1.00  0.00     0.129 HD
BRANCH  11  13
HETATM   13  C   UNL     1     -42.454 -49.936  12.883  1.00  0.00     0.127 C 
BRANCH  13  14
HETATM   14  C   UNL     1     -42.225 -51.450  12.645  1.00  0.00     0.163 C 
HETATM   15  C   UNL     1     -40.887 -51.562  11.869  1.00  0.00     0.306 C 
HETATM   16  N   UNL     1     -39.887 -50.899  12.714  1.00  0.00     0.097 N 
HETATM   17  C   UNL     1     -38.695 -50.435  12.029  1.00  0.00     0.273 C 
HETATM   18  C   UNL     1     -39.679 -51.672  13.947  1.00  0.00     0.246 C 
HETATM   19  C   UNL     1     -37.858 -49.593  12.992  1.00  0.00     0.030 C 
HETATM   20  C   UNL     1     -37.494 -50.396  14.236  1.00  0.00     0.004 C 
HETATM   21  C   UNL     1     -38.753 -50.918  14.917  1.00  0.00     0.038 C 
HETATM   22  C   UNL     1     -41.032 -51.948  14.676  1.00  0.00     0.204 C 
HETATM   23  O   UNL     1     -42.145 -52.266  13.827  1.00  0.00    -0.381 OA
ENDBRANCH  13  14
ENDBRANCH  11  13
ENDBRANCH  10  11
TORSDOF 3
ENDMDL
MODEL 9
REMARK VINA RESULT:      -5.5      3.317      5.763
REMARK  3 active torsions:
REMARK  status: ('A' for Active; 'I' for Inactive)
REMARK    1  A    between atoms: C_10  and  N_11 
REMARK    2  A    between atoms: N_11  and  C_12 
REMARK    3  A    between atoms: C_12  and  C_13 
ROOT
HETATM    1  N   UNL     1     -41.709 -44.869  12.389  1.00  0.00    -0.190 NA
HETATM    2  C   UNL     1     -42.122 -45.505  11.504  1.00  0.00     0.121 C 
HETATM    3  C   UNL     1     -42.664 -46.301  10.434  1.00  0.00     0.152 A 
HETATM    4  N   UNL     1     -43.740 -45.705   9.837  1.00  0.00    -0.353 N 
ATOM      5  HN  UNL     1     -44.124 -44.822  10.172  1.00  0.00     0.166 HD
HETATM    6  C   UNL     1     -44.258 -46.355   8.782  1.00  0.00     0.106 A 
HETATM    7  C   UNL     1     -43.738 -47.554   8.336  1.00  0.00     0.106 A 
HETATM    8  N   UNL     1     -42.697 -48.179   8.948  1.00  0.00    -0.353 N 
ATOM      9  HN  UNL     1     -42.343 -49.075   8.614  1.00  0.00     0.166 HD
HETATM   10  C   UNL     1     -42.148 -47.557  10.022  1.00  0.00     0.118 A 
ENDROOT
BRANCH  10  11
HETATM   11  N   UNL     1     -41.081 -48.271  10.615  1.00  0.00    -0.274 NA
HETATM   12  H   UNL     1     -40.683 -48.847   9.869  1.00  0.00     0.129 HD
BRANCH  11  13
HETATM   13  C   UNL     1     -41.518 -49.066  11.763  1.00  0.00     0.127 C 
BRANCH  13  14
HETATM   14  C   UNL     1     -41.030 -50.534  11.865  1.00  0.00     0.163 C 
HETATM   15  C   UNL     1     -39.484 -50.461  11.971  1.00  0.00     0.306 C 
HETATM   16  N   UNL     1     -39.210 -49.623  13.144  1.00  0.00     0.097 N 
HETATM   17  C   UNL     1     -37.900 -49.001  13.180  1.00  0.00     0.273 C 
HETATM   18  C   UNL     1     -39.645 -50.313  14.367  1.00  0.00     0.246 C 
HETATM   19  C   UNL     1     -37.847 -48.008  14.341  1.00  0.00     0.030 C 
HETATM   20  C   UNL     1     -38.156 -48.703  15.662  1.00  0.00     0.004 C 
HETATM   21  C   UNL     1     -39.512 -49.393  15.593  1.00  0.00     0.038 C 
HETATM   22  C   UNL     1     -41.133 -50.773  14.257  1.00  0.00     0.204 C 
HETATM   23  O   UNL     1     -41.535 -51.288  12.980  1.00  0.00    -0.381 OA
ENDBRANCH  13  14
ENDBRANCH  11  13
ENDBRANCH  10  11
TORSDOF 3
ENDMDL
