MODEL 1
REMARK VINA RESULT:      -6.2      0.000      0.000
REMARK  7 active torsions:
REMARK  status: ('A' for Active; 'I' for Inactive)
REMARK    1  A    between atoms: O_1  and  C_2 
REMARK    2  A    between atoms: C_2  and  C_3 
REMARK    3  A    between atoms: C_2  and  C_11 
REMARK    4  A    between atoms: C_3  and  O_4 
REMARK    5  A    between atoms: O_4  and  C_5 
REMARK    6  A    between atoms: C_5  and  C_6 
REMARK    7  A    between atoms: C_11  and  N_12 
ROOT
HETATM    1  N   UNL     1     -42.135 -51.515  12.485  1.00  0.00    -0.339 N 
HETATM    2  C   UNL     1     -41.414 -52.657  12.275  1.00  0.00     0.184 A 
HETATM    3  N   UNL     1     -42.111 -53.736  12.544  1.00  0.00    -0.350 N 
ATOM      4  HN  UNL     1     -41.808 -54.707  12.462  1.00  0.00     0.166 HD
HETATM    5  C   UNL     1     -43.334 -53.278  12.958  1.00  0.00     0.063 A 
HETATM    6  C   UNL     1     -44.456 -54.011  13.369  1.00  0.00     0.077 A 
HETATM    7  C   UNL     1     -45.584 -53.305  13.781  1.00  0.00     0.157 A 
HETATM    8  F   UNL     1     -46.664 -53.987  14.187  1.00  0.00    -0.203 F 
HETATM    9  C   UNL     1     -45.606 -51.912  13.782  1.00  0.00     0.157 A 
HETATM   10  F   UNL     1     -46.705 -51.266  14.196  1.00  0.00    -0.203 F 
HETATM   11  C   UNL     1     -44.505 -51.160  13.362  1.00  0.00     0.077 A 
HETATM   12  C   UNL     1     -43.376 -51.882  12.952  1.00  0.00     0.065 A 
ENDROOT
BRANCH   1  13
HETATM   13  C   UNL     1     -41.624 -50.173  12.319  1.00  0.00     0.164 C 
BRANCH  13  14
HETATM   14  C   UNL     1     -40.253 -50.058  11.631  1.00  0.00     0.160 C 
BRANCH  14  15
HETATM   15  O   UNL     1     -40.482 -50.089  10.213  1.00  0.00    -0.392 OA
HETATM   16  H   UNL     1     -41.310 -50.574  10.052  1.00  0.00     0.210 HD
ENDBRANCH  14  15
BRANCH  14  17
HETATM   17  C   UNL     1     -39.499 -48.767  11.983  1.00  0.00     0.201 C 
BRANCH  17  18
HETATM   18  O   UNL     1     -40.410 -47.689  12.133  1.00  0.00    -0.382 OA
BRANCH  18  19
HETATM   19  C   UNL     1     -40.304 -46.741  11.069  1.00  0.00     0.232 C 
BRANCH  19  20
HETATM   20  C   UNL     1     -41.636 -46.621  10.428  1.00  0.00     0.076 A 
HETATM   21  C   UNL     1     -42.545 -45.594  10.275  1.00  0.00     0.037 A 
HETATM   22  C   UNL     1     -43.638 -46.129   9.553  1.00  0.00     0.027 A 
HETATM   23  C   UNL     1     -43.334 -47.450   9.320  1.00  0.00     0.142 A 
HETATM   24  O   UNL     1     -42.118 -47.756   9.840  1.00  0.00    -0.325 OA
ENDBRANCH  19  20
ENDBRANCH  18  19
ENDBRANCH  17  18
ENDBRANCH  14  17
ENDBRANCH  13  14
ENDBRANCH   1  13
TORSDOF 7
ENDMDL
MODEL 2
REMARK VINA RESULT:      -6.1      2.334      4.479
REMARK  7 active torsions:
REMARK  status: ('A' for Active; 'I' for Inactive)
REMARK    1  A    between atoms: O_1  and  C_2 
REMARK    2  A    between atoms: C_2  and  C_3 
REMARK    3  A    between atoms: C_2  and  C_11 
REMARK    4  A    between atoms: C_3  and  O_4 
REMARK    5  A    between atoms: O_4  and  C_5 
REMARK    6  A    between atoms: C_5  and  C_6 
REMARK    7  A    between atoms: C_11  and  N_12 
ROOT
HETATM    1  N   UNL     1     -42.493 -51.656  12.453  1.00  0.00    -0.339 N 
HETATM    2  C   UNL     1     -41.865 -52.857  12.280  1.00  0.00     0.184 A 
HETATM    3  N   UNL     1     -42.630 -53.867  12.626  1.00  0.00    -0.350 N 
ATOM      4  HN  UNL     1     -42.402 -54.861  12.585  1.00  0.00     0.166 HD
HETATM    5  C   UNL     1     -43.800 -53.298  13.054  1.00  0.00     0.063 A 
HETATM    6  C   UNL     1     -44.958 -53.923  13.537  1.00  0.00     0.077 A 
HETATM    7  C   UNL     1     -46.016 -53.115  13.947  1.00  0.00     0.157 A 
HETATM    8  F   UNL     1     -47.128 -53.693  14.422  1.00  0.00    -0.203 F 
HETATM    9  C   UNL     1     -45.935 -51.726  13.876  1.00  0.00     0.157 A 
HETATM   10  F   UNL     1     -46.968 -50.980  14.291  1.00  0.00    -0.203 F 
HETATM   11  C   UNL     1     -44.798 -51.081  13.384  1.00  0.00     0.077 A 
HETATM   12  C   UNL     1     -43.740 -51.904  12.976  1.00  0.00     0.065 A 
ENDROOT
BRANCH   1  13
HETATM   13  C   UNL     1     -41.890 -50.366  12.200  1.00  0.00     0.164 C 
BRANCH  13  14
HETATM   14  C   UNL     1     -40.463 -50.392  11.628  1.00  0.00     0.160 C 
BRANCH  14  15
HETATM   15  O   UNL     1     -40.541 -49.943  10.265  1.00  0.00    -0.392 OA
HETATM   16  H   UNL     1     -40.479 -50.723   9.686  1.00  0.00     0.210 HD
ENDBRANCH  14  15
BRANCH  14  17
HETATM   17  C   UNL     1     -39.481 -49.491  12.391  1.00  0.00     0.201 C 
BRANCH  17  18
HETATM   18  O   UNL     1     -39.089 -50.109  13.608  1.00  0.00    -0.382 OA
BRANCH  18  19
HETATM   19  C   UNL     1     -38.256 -51.249  13.389  1.00  0.00     0.232 C 
BRANCH  19  20
HETATM   20  C   UNL     1     -38.851 -52.397  14.117  1.00  0.00     0.076 A 
HETATM   21  C   UNL     1     -39.600 -52.527  15.268  1.00  0.00     0.037 A 
HETATM   22  C   UNL     1     -39.862 -53.909  15.424  1.00  0.00     0.027 A 
HETATM   23  C   UNL     1     -39.250 -54.536  14.365  1.00  0.00     0.142 A 
HETATM   24  O   UNL     1     -38.640 -53.627  13.562  1.00  0.00    -0.325 OA
ENDBRANCH  19  20
ENDBRANCH  18  19
ENDBRANCH  17  18
ENDBRANCH  14  17
ENDBRANCH  13  14
ENDBRANCH   1  13
TORSDOF 7
ENDMDL
MODEL 3
REMARK VINA RESULT:      -6.0      3.666      4.568
REMARK  7 active torsions:
REMARK  status: ('A' for Active; 'I' for Inactive)
REMARK    1  A    between atoms: O_1  and  C_2 
REMARK    2  A    between atoms: C_2  and  C_3 
REMARK    3  A    between atoms: C_2  and  C_11 
REMARK    4  A    between atoms: C_3  and  O_4 
REMARK    5  A    between atoms: O_4  and  C_5 
REMARK    6  A    between atoms: C_5  and  C_6 
REMARK    7  A    between atoms: C_11  and  N_12 
ROOT
HETATM    1  N   UNL     1     -43.583 -52.769  13.230  1.00  0.00    -0.339 N 
HETATM    2  C   UNL     1     -44.271 -53.742  12.560  1.00  0.00     0.184 A 
HETATM    3  N   UNL     1     -45.533 -53.790  12.921  1.00  0.00    -0.350 N 
ATOM      4  HN  UNL     1     -46.256 -54.417  12.568  1.00  0.00     0.166 HD
HETATM    5  C   UNL     1     -45.668 -52.815  13.875  1.00  0.00     0.063 A 
HETATM    6  C   UNL     1     -46.811 -52.441  14.595  1.00  0.00     0.077 A 
HETATM    7  C   UNL     1     -46.684 -51.432  15.546  1.00  0.00     0.157 A 
HETATM    8  F   UNL     1     -47.763 -51.067  16.253  1.00  0.00    -0.203 F 
HETATM    9  C   UNL     1     -45.463 -50.803  15.776  1.00  0.00     0.157 A 
HETATM   10  F   UNL     1     -45.375 -49.844  16.708  1.00  0.00    -0.203 F 
HETATM   11  C   UNL     1     -44.313 -51.148  15.059  1.00  0.00     0.077 A 
HETATM   12  C   UNL     1     -44.453 -52.166  14.107  1.00  0.00     0.065 A 
ENDROOT
BRANCH   1  13
HETATM   13  C   UNL     1     -42.169 -52.506  13.079  1.00  0.00     0.164 C 
BRANCH  13  14
HETATM   14  C   UNL     1     -41.292 -53.724  12.746  1.00  0.00     0.160 C 
BRANCH  14  15
HETATM   15  O   UNL     1     -40.581 -53.420  11.535  1.00  0.00    -0.392 OA
HETATM   16  H   UNL     1     -39.641 -53.627  11.677  1.00  0.00     0.210 HD
ENDBRANCH  14  15
BRANCH  14  17
HETATM   17  C   UNL     1     -40.274 -54.063  13.845  1.00  0.00     0.201 C 
BRANCH  17  18
HETATM   18  O   UNL     1     -39.024 -53.450  13.565  1.00  0.00    -0.382 OA
BRANCH  18  19
HETATM   19  C   UNL     1     -38.788 -52.307  14.388  1.00  0.00     0.232 C 
BRANCH  19  20
HETATM   20  C   UNL     1     -38.372 -51.187  13.509  1.00  0.00     0.076 A 
HETATM   21  C   UNL     1     -38.467 -49.813  13.586  1.00  0.00     0.037 A 
HETATM   22  C   UNL     1     -37.868 -49.302  12.410  1.00  0.00     0.027 A 
HETATM   23  C   UNL     1     -37.456 -50.395  11.685  1.00  0.00     0.142 A 
HETATM   24  O   UNL     1     -37.751 -51.543  12.346  1.00  0.00    -0.325 OA
ENDBRANCH  19  20
ENDBRANCH  18  19
ENDBRANCH  17  18
ENDBRANCH  14  17
ENDBRANCH  13  14
ENDBRANCH   1  13
TORSDOF 7
ENDMDL
MODEL 4
REMARK VINA RESULT:      -5.9      3.322      4.499
REMARK  7 active torsions:
REMARK  status: ('A' for Active; 'I' for Inactive)
REMARK    1  A    between atoms: O_1  and  C_2 
REMARK    2  A    between atoms: C_2  and  C_3 
REMARK    3  A    between atoms: C_2  and  C_11 
REMARK    4  A    between atoms: C_3  and  O_4 
REMARK    5  A    between atoms: O_4  and  C_5 
REMARK    6  A    between atoms: C_5  and  C_6 
REMARK    7  A    between atoms: C_11  and  N_12 
ROOT
HETATM    1  N   UNL     1     -41.749 -53.048  12.827  1.00  0.00    -0.339 N 
HETATM    2  C   UNL     1     -41.377 -51.964  12.084  1.00  0.00     0.184 A 
HETATM    3  N   UNL     1     -42.276 -51.009  12.120  1.00  0.00    -0.350 N 
ATOM      4  HN  UNL     1     -42.235 -50.099  11.659  1.00  0.00     0.166 HD
HETATM    5  C   UNL     1     -43.283 -51.497  12.911  1.00  0.00     0.063 A 
HETATM    6  C   UNL     1     -44.489 -50.884  13.279  1.00  0.00     0.077 A 
HETATM    7  C   UNL     1     -45.375 -51.609  14.073  1.00  0.00     0.157 A 
HETATM    8  F   UNL     1     -46.538 -51.045  14.428  1.00  0.00    -0.203 F 
HETATM    9  C   UNL     1     -45.075 -52.901  14.499  1.00  0.00     0.157 A 
HETATM   10  F   UNL     1     -45.957 -53.572  15.253  1.00  0.00    -0.203 F 
HETATM   11  C   UNL     1     -43.873 -53.526  14.158  1.00  0.00     0.077 A 
HETATM   12  C   UNL     1     -42.991 -52.788  13.357  1.00  0.00     0.065 A 
ENDROOT
BRANCH   1  13
HETATM   13  C   UNL     1     -40.986 -54.271  12.943  1.00  0.00     0.164 C 
BRANCH  13  14
HETATM   14  C   UNL     1     -39.907 -54.287  14.039  1.00  0.00     0.160 C 
BRANCH  14  15
HETATM   15  O   UNL     1     -38.630 -54.244  13.383  1.00  0.00    -0.392 OA
HETATM   16  H   UNL     1     -38.707 -54.730  12.543  1.00  0.00     0.210 HD
ENDBRANCH  14  15
BRANCH  14  17
HETATM   17  C   UNL     1     -40.004 -53.101  15.010  1.00  0.00     0.201 C 
BRANCH  17  18
HETATM   18  O   UNL     1     -38.771 -52.398  15.054  1.00  0.00    -0.382 OA
BRANCH  18  19
HETATM   19  C   UNL     1     -38.952 -50.985  14.946  1.00  0.00     0.232 C 
BRANCH  19  20
HETATM   20  C   UNL     1     -38.399 -50.550  13.641  1.00  0.00     0.076 A 
HETATM   21  C   UNL     1     -38.434 -49.374  12.920  1.00  0.00     0.037 A 
HETATM   22  C   UNL     1     -37.699 -49.607  11.733  1.00  0.00     0.027 A 
HETATM   23  C   UNL     1     -37.270 -50.912  11.799  1.00  0.00     0.142 A 
HETATM   24  O   UNL     1     -37.683 -51.490  12.955  1.00  0.00    -0.325 OA
ENDBRANCH  19  20
ENDBRANCH  18  19
ENDBRANCH  17  18
ENDBRANCH  14  17
ENDBRANCH  13  14
ENDBRANCH   1  13
TORSDOF 7
ENDMDL
MODEL 5
REMARK VINA RESULT:      -5.9      1.972      3.076
REMARK  7 active torsions:
REMARK  status: ('A' for Active; 'I' for Inactive)
REMARK    1  A    between atoms: O_1  and  C_2 
REMARK    2  A    between atoms: C_2  and  C_3 
REMARK    3  A    between atoms: C_2  and  C_11 
REMARK    4  A    between atoms: C_3  and  O_4 
REMARK    5  A    between atoms: O_4  and  C_5 
REMARK    6  A    between atoms: C_5  and  C_6 
REMARK    7  A    between atoms: C_11  and  N_12 
ROOT
HETATM    1  N   UNL     1     -41.376 -49.290  12.032  1.00  0.00    -0.339 N 
HETATM    2  C   UNL     1     -40.406 -50.053  11.445  1.00  0.00     0.184 A 
HETATM    3  N   UNL     1     -40.691 -51.333  11.490  1.00  0.00    -0.350 N 
ATOM      4  HN  UNL     1     -40.138 -52.105  11.117  1.00  0.00     0.166 HD
HETATM    5  C   UNL     1     -41.893 -51.408  12.143  1.00  0.00     0.063 A 
HETATM    6  C   UNL     1     -42.652 -52.542  12.463  1.00  0.00     0.077 A 
HETATM    7  C   UNL     1     -43.837 -52.359  13.171  1.00  0.00     0.157 A 
HETATM    8  F   UNL     1     -44.573 -53.431  13.495  1.00  0.00    -0.203 F 
HETATM    9  C   UNL     1     -44.266 -51.088  13.548  1.00  0.00     0.157 A 
HETATM   10  F   UNL     1     -45.406 -50.950  14.238  1.00  0.00    -0.203 F 
HETATM   11  C   UNL     1     -43.534 -49.941  13.227  1.00  0.00     0.077 A 
HETATM   12  C   UNL     1     -42.343 -50.139  12.516  1.00  0.00     0.065 A 
ENDROOT
BRANCH   1  13
HETATM   13  C   UNL     1     -41.321 -47.852  12.176  1.00  0.00     0.164 C 
BRANCH  13  14
HETATM   14  C   UNL     1     -41.664 -47.038  10.917  1.00  0.00     0.160 C 
BRANCH  14  15
HETATM   15  O   UNL     1     -40.422 -46.648  10.310  1.00  0.00    -0.392 OA
HETATM   16  H   UNL     1     -39.700 -46.893  10.915  1.00  0.00     0.210 HD
ENDBRANCH  14  15
BRANCH  14  17
HETATM   17  C   UNL     1     -42.493 -47.821   9.889  1.00  0.00     0.201 C 
BRANCH  17  18
HETATM   18  O   UNL     1     -42.840 -46.984   8.795  1.00  0.00    -0.382 OA
BRANCH  18  19
HETATM   19  C   UNL     1     -43.982 -46.174   9.078  1.00  0.00     0.232 C 
BRANCH  19  20
HETATM   20  C   UNL     1     -45.193 -47.014   8.914  1.00  0.00     0.076 A 
HETATM   21  C   UNL     1     -46.476 -46.969   9.419  1.00  0.00     0.037 A 
HETATM   22  C   UNL     1     -47.166 -48.074   8.865  1.00  0.00     0.027 A 
HETATM   23  C   UNL     1     -46.259 -48.730   8.066  1.00  0.00     0.142 A 
HETATM   24  O   UNL     1     -45.062 -48.091   8.083  1.00  0.00    -0.325 OA
ENDBRANCH  19  20
ENDBRANCH  18  19
ENDBRANCH  17  18
ENDBRANCH  14  17
ENDBRANCH  13  14
ENDBRANCH   1  13
TORSDOF 7
ENDMDL
MODEL 6
REMARK VINA RESULT:      -5.8      3.162      6.728
REMARK  7 active torsions:
REMARK  status: ('A' for Active; 'I' for Inactive)
REMARK    1  A    between atoms: O_1  and  C_2 
REMARK    2  A    between atoms: C_2  and  C_3 
REMARK    3  A    between atoms: C_2  and  C_11 
REMARK    4  A    between atoms: C_3  and  O_4 
REMARK    5  A    between atoms: O_4  and  C_5 
REMARK    6  A    between atoms: C_5  and  C_6 
REMARK    7  A    between atoms: C_11  and  N_12 
ROOT
HETATM    1  N   UNL     1     -41.300 -47.645  11.360  1.00  0.00    -0.339 N 
HETATM    2  C   UNL     1     -40.412 -46.667  11.010  1.00  0.00     0.184 A 
HETATM    3  N   UNL     1     -40.949 -45.779  10.206  1.00  0.00    -0.350 N 
ATOM      4  HN  UNL     1     -40.503 -44.951   9.810  1.00  0.00     0.166 HD
HETATM    5  C   UNL     1     -42.237 -46.203  10.014  1.00  0.00     0.063 A 
HETATM    6  C   UNL     1     -43.250 -45.622   9.239  1.00  0.00     0.077 A 
HETATM    7  C   UNL     1     -44.481 -46.270   9.176  1.00  0.00     0.157 A 
HETATM    8  F   UNL     1     -45.459 -45.736   8.432  1.00  0.00    -0.203 F 
HETATM    9  C   UNL     1     -44.709 -47.458   9.867  1.00  0.00     0.157 A 
HETATM   10  F   UNL     1     -45.902 -48.061   9.774  1.00  0.00    -0.203 F 
HETATM   11  C   UNL     1     -43.720 -48.049  10.659  1.00  0.00     0.077 A 
HETATM   12  C   UNL     1     -42.485 -47.388  10.712  1.00  0.00     0.065 A 
ENDROOT
BRANCH   1  13
HETATM   13  C   UNL     1     -40.989 -48.782  12.197  1.00  0.00     0.164 C 
BRANCH  13  14
HETATM   14  C   UNL     1     -41.107 -50.161  11.527  1.00  0.00     0.160 C 
BRANCH  14  15
HETATM   15  O   UNL     1     -40.426 -50.083  10.264  1.00  0.00    -0.392 OA
HETATM   16  H   UNL     1     -39.521 -49.763  10.429  1.00  0.00     0.210 HD
ENDBRANCH  14  15
BRANCH  14  17
HETATM   17  C   UNL     1     -40.489 -51.299  12.353  1.00  0.00     0.201 C 
BRANCH  17  18
HETATM   18  O   UNL     1     -40.920 -52.558  11.859  1.00  0.00    -0.382 OA
BRANCH  18  19
HETATM   19  C   UNL     1     -40.986 -53.547  12.888  1.00  0.00     0.232 C 
BRANCH  19  20
HETATM   20  C   UNL     1     -42.417 -53.825  13.164  1.00  0.00     0.076 A 
HETATM   21  C   UNL     1     -43.598 -53.551  12.506  1.00  0.00     0.037 A 
HETATM   22  C   UNL     1     -44.636 -54.095  13.301  1.00  0.00     0.027 A 
HETATM   23  C   UNL     1     -44.025 -54.658  14.396  1.00  0.00     0.142 A 
HETATM   24  O   UNL     1     -42.678 -54.506  14.319  1.00  0.00    -0.325 OA
ENDBRANCH  19  20
ENDBRANCH  18  19
ENDBRANCH  17  18
ENDBRANCH  14  17
ENDBRANCH  13  14
ENDBRANCH   1  13
TORSDOF 7
ENDMDL
MODEL 7
REMARK VINA RESULT:      -5.7      3.176      6.123
REMARK  7 active torsions:
REMARK  status: ('A' for Active; 'I' for Inactive)
REMARK    1  A    between atoms: O_1  and  C_2 
REMARK    2  A    between atoms: C_2  and  C_3 
REMARK    3  A    between atoms: C_2  and  C_11 
REMARK    4  A    between atoms: C_3  and  O_4 
REMARK    5  A    between atoms: O_4  and  C_5 
REMARK    6  A    between atoms: C_5  and  C_6 
REMARK    7  A    between atoms: C_11  and  N_12 
ROOT
HETATM    1  N   UNL     1     -40.031 -50.817  12.999  1.00  0.00    -0.339 N 
HETATM    2  C   UNL     1     -38.707 -50.500  12.882  1.00  0.00     0.184 A 
HETATM    3  N   UNL     1     -38.529 -49.339  12.295  1.00  0.00    -0.350 N 
ATOM      4  HN  UNL     1     -37.643 -48.874  12.096  1.00  0.00     0.166 HD
HETATM    5  C   UNL     1     -39.790 -48.887  12.007  1.00  0.00     0.063 A 
HETATM    6  C   UNL     1     -40.176 -47.696  11.377  1.00  0.00     0.077 A 
HETATM    7  C   UNL     1     -41.535 -47.478  11.165  1.00  0.00     0.157 A 
HETATM    8  F   UNL     1     -41.924 -46.350  10.555  1.00  0.00    -0.203 F 
HETATM    9  C   UNL     1     -42.489 -48.408  11.571  1.00  0.00     0.157 A 
HETATM   10  F   UNL     1     -43.788 -48.171  11.340  1.00  0.00    -0.203 F 
HETATM   11  C   UNL     1     -42.129 -49.596  12.215  1.00  0.00     0.077 A 
HETATM   12  C   UNL     1     -40.759 -49.804  12.420  1.00  0.00     0.065 A 
ENDROOT
BRANCH   1  13
HETATM   13  C   UNL     1     -40.538 -52.049  13.561  1.00  0.00     0.164 C 
BRANCH  13  14
HETATM   14  C   UNL     1     -41.353 -52.937  12.606  1.00  0.00     0.160 C 
BRANCH  14  15
HETATM   15  O   UNL     1     -40.498 -53.271  11.500  1.00  0.00    -0.392 OA
HETATM   16  H   UNL     1     -40.011 -54.082  11.729  1.00  0.00     0.210 HD
ENDBRANCH  14  15
BRANCH  14  17
HETATM   17  C   UNL     1     -41.852 -54.237  13.255  1.00  0.00     0.201 C 
BRANCH  17  18
HETATM   18  O   UNL     1     -43.145 -54.045  13.811  1.00  0.00    -0.382 OA
BRANCH  18  19
HETATM   19  C   UNL     1     -44.178 -54.200  12.837  1.00  0.00     0.232 C 
BRANCH  19  20
HETATM   20  C   UNL     1     -45.153 -53.097  13.024  1.00  0.00     0.076 A 
HETATM   21  C   UNL     1     -45.463 -52.249  14.068  1.00  0.00     0.037 A 
HETATM   22  C   UNL     1     -46.500 -51.405  13.606  1.00  0.00     0.027 A 
HETATM   23  C   UNL     1     -46.765 -51.796  12.314  1.00  0.00     0.142 A 
HETATM   24  O   UNL     1     -45.948 -52.817  11.950  1.00  0.00    -0.325 OA
ENDBRANCH  19  20
ENDBRANCH  18  19
ENDBRANCH  17  18
ENDBRANCH  14  17
ENDBRANCH  13  14
ENDBRANCH   1  13
TORSDOF 7
ENDMDL
MODEL 8
REMARK VINA RESULT:      -5.6      2.445      4.294
REMARK  7 active torsions:
REMARK  status: ('A' for Active; 'I' for Inactive)
REMARK    1  A    between atoms: O_1  and  C_2 
REMARK    2  A    between atoms: C_2  and  C_3 
REMARK    3  A    between atoms: C_2  and  C_11 
REMARK    4  A    between atoms: C_3  and  O_4 
REMARK    5  A    between atoms: O_4  and  C_5 
REMARK    6  A    between atoms: C_5  and  C_6 
REMARK    7  A    between atoms: C_11  and  N_12 
ROOT
HETATM    1  N   UNL     1     -42.261 -51.410  12.450  1.00  0.00    -0.339 N 
HETATM    2  C   UNL     1     -41.543 -52.559  12.270  1.00  0.00     0.184 A 
HETATM    3  N   UNL     1     -42.236 -53.628  12.587  1.00  0.00    -0.350 N 
ATOM      4  HN  UNL     1     -41.934 -54.601  12.536  1.00  0.00     0.166 HD
HETATM    5  C   UNL     1     -43.453 -53.154  13.002  1.00  0.00     0.063 A 
HETATM    6  C   UNL     1     -44.569 -53.871  13.455  1.00  0.00     0.077 A 
HETATM    7  C   UNL     1     -45.691 -53.150  13.857  1.00  0.00     0.157 A 
HETATM    8  F   UNL     1     -46.765 -53.816  14.303  1.00  0.00    -0.203 F 
HETATM    9  C   UNL     1     -45.713 -51.758  13.809  1.00  0.00     0.157 A 
HETATM   10  F   UNL     1     -46.805 -51.097  14.216  1.00  0.00    -0.203 F 
HETATM   11  C   UNL     1     -44.618 -51.022  13.347  1.00  0.00     0.077 A 
HETATM   12  C   UNL     1     -43.495 -51.759  12.946  1.00  0.00     0.065 A 
ENDROOT
BRANCH   1  13
HETATM   13  C   UNL     1     -41.751 -50.076  12.228  1.00  0.00     0.164 C 
BRANCH  13  14
HETATM   14  C   UNL     1     -40.328 -49.988  11.653  1.00  0.00     0.160 C 
BRANCH  14  15
HETATM   15  O   UNL     1     -40.439 -50.063  10.223  1.00  0.00    -0.392 OA
HETATM   16  H   UNL     1     -41.359 -49.857   9.981  1.00  0.00     0.210 HD
ENDBRANCH  14  15
BRANCH  14  17
HETATM   17  C   UNL     1     -39.597 -48.689  12.025  1.00  0.00     0.201 C 
BRANCH  17  18
HETATM   18  O   UNL     1     -38.303 -48.979  12.533  1.00  0.00    -0.382 OA
BRANCH  18  19
HETATM   19  C   UNL     1     -38.355 -49.797  13.703  1.00  0.00     0.232 C 
BRANCH  19  20
HETATM   20  C   UNL     1     -37.415 -49.230  14.701  1.00  0.00     0.076 A 
HETATM   21  C   UNL     1     -37.054 -47.950  15.069  1.00  0.00     0.037 A 
HETATM   22  C   UNL     1     -36.096 -48.084  16.102  1.00  0.00     0.027 A 
HETATM   23  C   UNL     1     -35.924 -49.434  16.292  1.00  0.00     0.142 A 
HETATM   24  O   UNL     1     -36.725 -50.138  15.452  1.00  0.00    -0.325 OA
ENDBRANCH  19  20
ENDBRANCH  18  19
ENDBRANCH  17  18
ENDBRANCH  14  17
ENDBRANCH  13  14
ENDBRANCH   1  13
TORSDOF 7
ENDMDL
MODEL 9
REMARK VINA RESULT:      -5.6      1.742      2.029
REMARK  7 active torsions:
REMARK  status: ('A' for Active; 'I' for Inactive)
REMARK    1  A    between atoms: O_1  and  C_2 
REMARK    2  A    between atoms: C_2  and  C_3 
REMARK    3  A    between atoms: C_2  and  C_11 
REMARK    4  A    between atoms: C_3  and  O_4 
REMARK    5  A    between atoms: O_4  and  C_5 
REMARK    6  A    between atoms: C_5  and  C_6 
REMARK    7  A    between atoms: C_11  and  N_12 
ROOT
HETATM    1  N   UNL     1     -42.183 -51.437  12.453  1.00  0.00    -0.339 N 
HETATM    2  C   UNL     1     -41.504 -52.604  12.241  1.00  0.00     0.184 A 
HETATM    3  N   UNL     1     -42.237 -53.658  12.517  1.00  0.00    -0.350 N 
ATOM      4  HN  UNL     1     -41.968 -54.639  12.435  1.00  0.00     0.166 HD
HETATM    5  C   UNL     1     -43.440 -53.156  12.937  1.00  0.00     0.063 A 
HETATM    6  C   UNL     1     -44.585 -53.848  13.356  1.00  0.00     0.077 A 
HETATM    7  C   UNL     1     -45.684 -53.102  13.774  1.00  0.00     0.157 A 
HETATM    8  F   UNL     1     -46.785 -53.744  14.188  1.00  0.00    -0.203 F 
HETATM    9  C   UNL     1     -45.657 -51.709  13.772  1.00  0.00     0.157 A 
HETATM   10  F   UNL     1     -46.730 -51.024  14.192  1.00  0.00    -0.203 F 
HETATM   11  C   UNL     1     -44.533 -50.997  13.344  1.00  0.00     0.077 A 
HETATM   12  C   UNL     1     -43.432 -51.759  12.928  1.00  0.00     0.065 A 
ENDROOT
BRANCH   1  13
HETATM   13  C   UNL     1     -41.625 -50.115  12.280  1.00  0.00     0.164 C 
BRANCH  13  14
HETATM   14  C   UNL     1     -40.268 -50.047  11.561  1.00  0.00     0.160 C 
BRANCH  14  15
HETATM   15  O   UNL     1     -40.535 -49.938  10.154  1.00  0.00    -0.392 OA
HETATM   16  H   UNL     1     -40.171 -49.090   9.842  1.00  0.00     0.210 HD
ENDBRANCH  14  15
BRANCH  14  17
HETATM   17  C   UNL     1     -39.404 -48.854  11.995  1.00  0.00     0.201 C 
BRANCH  17  18
HETATM   18  O   UNL     1     -40.122 -47.640  11.831  1.00  0.00    -0.382 OA
BRANCH  18  19
HETATM   19  C   UNL     1     -39.695 -46.632  12.749  1.00  0.00     0.232 C 
BRANCH  19  20
HETATM   20  C   UNL     1     -40.081 -45.313  12.193  1.00  0.00     0.076 A 
HETATM   21  C   UNL     1     -39.724 -44.596  11.069  1.00  0.00     0.037 A 
HETATM   22  C   UNL     1     -40.461 -43.389  11.111  1.00  0.00     0.027 A 
HETATM   23  C   UNL     1     -41.214 -43.440  12.260  1.00  0.00     0.142 A 
HETATM   24  O   UNL     1     -40.996 -44.606  12.920  1.00  0.00    -0.325 OA
ENDBRANCH  19  20
ENDBRANCH  18  19
ENDBRANCH  17  18
ENDBRANCH  14  17
ENDBRANCH  13  14
ENDBRANCH   1  13
TORSDOF 7
ENDMDL
