MODEL 1
REMARK VINA RESULT:      -7.0      0.000      0.000
REMARK  4 active torsions:
REMARK  status: ('A' for Active; 'I' for Inactive)
REMARK    1  A    between atoms: C_4  and  N_5 
REMARK       I    between atoms: N_5  and  C_6 
REMARK       I    between atoms: C_6  and  N_8 
REMARK    2  A    between atoms: N_8  and  C_9 
REMARK    3  A    between atoms: C_10  and  C_11 
REMARK    4  A    between atoms: C_11  and  O_12 
ROOT
HETATM    1  N   UNL     1     -41.776 -47.459  10.145  1.00  0.00    -0.287 N 
HETATM    2  C   UNL     1     -41.342 -48.494  10.941  1.00  0.00     0.322 C 
HETATM    3  O   UNL     1     -42.054 -49.393  11.353  1.00  0.00    -0.247 OA
HETATM    4  N   UNL     1     -39.985 -48.462  11.206  1.00  0.00    -0.337 N 
HETATM    5  H   UNL     1     -41.303 -46.571  10.180  1.00  0.00     0.172 HD
HETATM    6  H   UNL     1     -39.464 -47.926  10.522  1.00  0.00     0.164 HD
ENDROOT
BRANCH   4   7
HETATM    7  C   UNL     1     -39.358 -49.716  11.621  1.00  0.00     0.096 C 
HETATM    8  C   UNL     1     -39.875 -50.429  12.914  1.00  0.00     0.036 C 
HETATM    9  C   UNL     1     -38.537 -50.873  13.595  1.00  0.00    -0.006 C 
HETATM   10  C   UNL     1     -37.942 -49.676  14.339  1.00  0.00     0.005 C 
HETATM   11  C   UNL     1     -37.557 -50.983  12.423  1.00  0.00     0.012 C 
HETATM   12  C   UNL     1     -37.608 -48.715  13.192  1.00  0.00     0.007 C 
HETATM   13  C   UNL     1     -37.850 -49.568  11.923  1.00  0.00     0.009 C 
BRANCH   8  14
HETATM   14  C   UNL     1     -40.765 -51.650  12.651  1.00  0.00     0.171 C 
BRANCH  14  15
HETATM   15  O   UNL     1     -40.811 -51.932  11.248  1.00  0.00    -0.400 OA
HETATM   16  H   UNL     1     -41.025 -52.874  11.145  1.00  0.00     0.209 HD
ENDBRANCH  14  15
ENDBRANCH   8  14
ENDBRANCH   4   7
BRANCH   1  17
HETATM   17  C   UNL     1     -43.041 -47.533   9.594  1.00  0.00     0.176 A 
HETATM   18  C   UNL     1     -44.292 -47.291  10.108  1.00  0.00     0.085 A 
HETATM   19  C   UNL     1     -45.174 -47.560   9.028  1.00  0.00     0.033 A 
HETATM   20  C   UNL     1     -46.651 -47.523   8.983  1.00  0.00     0.070 C 
HETATM   21  N   UNL     1     -44.502 -47.886   7.920  1.00  0.00    -0.264 N 
HETATM   22  O   UNL     1     -43.171 -47.867   8.278  1.00  0.00    -0.220 OA
ATOM     23  HN  UNL     1     -44.892 -48.104   7.004  1.00  0.00     0.194 HD
ENDBRANCH   1  17
TORSDOF 4
ENDMDL
MODEL 2
REMARK VINA RESULT:      -6.8      3.371      5.098
REMARK  4 active torsions:
REMARK  status: ('A' for Active; 'I' for Inactive)
REMARK    1  A    between atoms: C_4  and  N_5 
REMARK       I    between atoms: N_5  and  C_6 
REMARK       I    between atoms: C_6  and  N_8 
REMARK    2  A    between atoms: N_8  and  C_9 
REMARK    3  A    between atoms: C_10  and  C_11 
REMARK    4  A    between atoms: C_11  and  O_12 
ROOT
HETATM    1  N   UNL     1     -42.831 -49.264  11.862  1.00  0.00    -0.287 N 
HETATM    2  C   UNL     1     -42.245 -50.423  12.313  1.00  0.00     0.322 C 
HETATM    3  O   UNL     1     -41.043 -50.625  12.340  1.00  0.00    -0.247 OA
HETATM    4  N   UNL     1     -43.149 -51.353  12.795  1.00  0.00    -0.337 N 
HETATM    5  H   UNL     1     -43.759 -49.291  11.475  1.00  0.00     0.172 HD
HETATM    6  H   UNL     1     -44.030 -50.937  13.074  1.00  0.00     0.164 HD
ENDROOT
BRANCH   4   7
HETATM    7  C   UNL     1     -42.632 -52.377  13.701  1.00  0.00     0.096 C 
HETATM    8  C   UNL     1     -42.407 -53.826  13.157  1.00  0.00     0.036 C 
HETATM    9  C   UNL     1     -42.956 -54.702  14.333  1.00  0.00    -0.006 C 
HETATM   10  C   UNL     1     -44.482 -54.763  14.230  1.00  0.00     0.005 C 
HETATM   11  C   UNL     1     -42.800 -53.796  15.558  1.00  0.00     0.012 C 
HETATM   12  C   UNL     1     -44.883 -53.304  14.482  1.00  0.00     0.007 C 
HETATM   13  C   UNL     1     -43.555 -52.635  14.914  1.00  0.00     0.009 C 
BRANCH   8  14
HETATM   14  C   UNL     1     -40.941 -54.177  12.877  1.00  0.00     0.171 C 
BRANCH  14  15
HETATM   15  O   UNL     1     -40.500 -53.527  11.680  1.00  0.00    -0.400 OA
HETATM   16  H   UNL     1     -40.902 -53.991  10.928  1.00  0.00     0.209 HD
ENDBRANCH  14  15
ENDBRANCH   8  14
ENDBRANCH   4   7
BRANCH   1  17
HETATM   17  C   UNL     1     -42.025 -48.168  11.614  1.00  0.00     0.176 A 
HETATM   18  C   UNL     1     -41.530 -47.178  12.429  1.00  0.00     0.085 A 
HETATM   19  C   UNL     1     -40.779 -46.348  11.555  1.00  0.00     0.033 A 
HETATM   20  C   UNL     1     -40.050 -45.093  11.840  1.00  0.00     0.070 C 
HETATM   21  N   UNL     1     -40.772 -46.831  10.310  1.00  0.00    -0.264 N 
HETATM   22  O   UNL     1     -41.551 -47.968  10.352  1.00  0.00    -0.220 OA
ATOM     23  HN  UNL     1     -40.292 -46.441   9.500  1.00  0.00     0.194 HD
ENDBRANCH   1  17
TORSDOF 4
ENDMDL
MODEL 3
REMARK VINA RESULT:      -6.7      4.001      5.861
REMARK  4 active torsions:
REMARK  status: ('A' for Active; 'I' for Inactive)
REMARK    1  A    between atoms: C_4  and  N_5 
REMARK       I    between atoms: N_5  and  C_6 
REMARK       I    between atoms: C_6  and  N_8 
REMARK    2  A    between atoms: N_8  and  C_9 
REMARK    3  A    between atoms: C_10  and  C_11 
REMARK    4  A    between atoms: C_11  and  O_12 
ROOT
HETATM    1  N   UNL     1     -42.062 -49.485  11.448  1.00  0.00    -0.287 N 
HETATM    2  C   UNL     1     -42.815 -49.567  12.595  1.00  0.00     0.322 C 
HETATM    3  O   UNL     1     -42.986 -48.647  13.376  1.00  0.00    -0.247 OA
HETATM    4  N   UNL     1     -43.421 -50.797  12.778  1.00  0.00    -0.337 N 
HETATM    5  H   UNL     1     -41.616 -50.311  11.083  1.00  0.00     0.172 HD
HETATM    6  H   UNL     1     -43.523 -51.317  11.914  1.00  0.00     0.164 HD
ENDROOT
BRANCH   4   7
HETATM    7  C   UNL     1     -44.578 -50.843  13.670  1.00  0.00     0.096 C 
HETATM    8  C   UNL     1     -44.505 -51.725  14.960  1.00  0.00     0.036 C 
HETATM    9  C   UNL     1     -45.918 -52.398  14.974  1.00  0.00    -0.006 C 
HETATM   10  C   UNL     1     -45.906 -53.585  14.008  1.00  0.00     0.005 C 
HETATM   11  C   UNL     1     -46.791 -51.414  14.188  1.00  0.00     0.012 C 
HETATM   12  C   UNL     1     -45.708 -52.898  12.651  1.00  0.00     0.007 C 
HETATM   13  C   UNL     1     -45.850 -51.393  12.985  1.00  0.00     0.009 C 
BRANCH   8  14
HETATM   14  C   UNL     1     -44.284 -50.933  16.255  1.00  0.00     0.171 C 
BRANCH  14  15
HETATM   15  O   UNL     1     -43.683 -49.667  15.962  1.00  0.00    -0.400 OA
HETATM   16  H   UNL     1     -44.363 -48.984  16.084  1.00  0.00     0.209 HD
ENDBRANCH  14  15
ENDBRANCH   8  14
ENDBRANCH   4   7
BRANCH   1  17
HETATM   17  C   UNL     1     -41.637 -48.241  11.022  1.00  0.00     0.176 A 
HETATM   18  C   UNL     1     -40.526 -47.489  11.319  1.00  0.00     0.085 A 
HETATM   19  C   UNL     1     -40.690 -46.303  10.556  1.00  0.00     0.033 A 
HETATM   20  C   UNL     1     -39.841 -45.093  10.495  1.00  0.00     0.070 C 
HETATM   21  N   UNL     1     -41.794 -46.355   9.806  1.00  0.00    -0.264 N 
HETATM   22  O   UNL     1     -42.381 -47.567  10.099  1.00  0.00    -0.220 OA
ATOM     23  HN  UNL     1     -42.131 -45.647   9.154  1.00  0.00     0.194 HD
ENDBRANCH   1  17
TORSDOF 4
ENDMDL
MODEL 4
REMARK VINA RESULT:      -6.7      3.650      5.352
REMARK  4 active torsions:
REMARK  status: ('A' for Active; 'I' for Inactive)
REMARK    1  A    between atoms: C_4  and  N_5 
REMARK       I    between atoms: N_5  and  C_6 
REMARK       I    between atoms: C_6  and  N_8 
REMARK    2  A    between atoms: N_8  and  C_9 
REMARK    3  A    between atoms: C_10  and  C_11 
REMARK    4  A    between atoms: C_11  and  O_12 
ROOT
HETATM    1  N   UNL     1     -42.251 -53.446  12.606  1.00  0.00    -0.287 N 
HETATM    2  C   UNL     1     -41.939 -52.115  12.457  1.00  0.00     0.322 C 
HETATM    3  O   UNL     1     -42.726 -51.199  12.621  1.00  0.00    -0.247 OA
HETATM    4  N   UNL     1     -40.611 -51.886  12.143  1.00  0.00    -0.337 N 
HETATM    5  H   UNL     1     -41.744 -54.140  12.081  1.00  0.00     0.172 HD
HETATM    6  H   UNL     1     -40.006 -52.653  12.411  1.00  0.00     0.164 HD
ENDROOT
BRANCH   4   7
HETATM    7  C   UNL     1     -40.083 -50.552  12.423  1.00  0.00     0.096 C 
HETATM    8  C   UNL     1     -39.815 -49.578  11.228  1.00  0.00     0.036 C 
HETATM    9  C   UNL     1     -38.438 -48.949  11.625  1.00  0.00    -0.006 C 
HETATM   10  C   UNL     1     -37.323 -49.926  11.245  1.00  0.00     0.005 C 
HETATM   11  C   UNL     1     -38.410 -49.081  13.151  1.00  0.00     0.012 C 
HETATM   12  C   UNL     1     -37.601 -51.114  12.175  1.00  0.00     0.007 C 
HETATM   13  C   UNL     1     -38.704 -50.580  13.121  1.00  0.00     0.009 C 
BRANCH   8  14
HETATM   14  C   UNL     1     -40.870 -48.477  11.060  1.00  0.00     0.171 C 
BRANCH  14  15
HETATM   15  O   UNL     1     -42.169 -49.060  10.911  1.00  0.00    -0.400 OA
HETATM   16  H   UNL     1     -42.684 -48.838  11.705  1.00  0.00     0.209 HD
ENDBRANCH  14  15
ENDBRANCH   8  14
ENDBRANCH   4   7
BRANCH   1  17
HETATM   17  C   UNL     1     -43.463 -53.783  13.178  1.00  0.00     0.176 A 
HETATM   18  C   UNL     1     -43.934 -53.703  14.467  1.00  0.00     0.085 A 
HETATM   19  C   UNL     1     -45.255 -54.218  14.390  1.00  0.00     0.033 A 
HETATM   20  C   UNL     1     -46.249 -54.433  15.464  1.00  0.00     0.070 C 
HETATM   21  N   UNL     1     -45.583 -54.535  13.135  1.00  0.00    -0.264 N 
HETATM   22  O   UNL     1     -44.462 -54.261  12.381  1.00  0.00    -0.220 OA
ATOM     23  HN  UNL     1     -46.474 -54.903  12.804  1.00  0.00     0.194 HD
ENDBRANCH   1  17
TORSDOF 4
ENDMDL
MODEL 5
REMARK VINA RESULT:      -6.6      4.385      6.864
REMARK  4 active torsions:
REMARK  status: ('A' for Active; 'I' for Inactive)
REMARK    1  A    between atoms: C_4  and  N_5 
REMARK       I    between atoms: N_5  and  C_6 
REMARK       I    between atoms: C_6  and  N_8 
REMARK    2  A    between atoms: N_8  and  C_9 
REMARK    3  A    between atoms: C_10  and  C_11 
REMARK    4  A    between atoms: C_11  and  O_12 
ROOT
HETATM    1  N   UNL     1     -41.886 -49.655  13.226  1.00  0.00    -0.287 N 
HETATM    2  C   UNL     1     -42.863 -50.615  13.108  1.00  0.00     0.322 C 
HETATM    3  O   UNL     1     -42.785 -51.594  12.386  1.00  0.00    -0.247 OA
HETATM    4  N   UNL     1     -43.954 -50.405  13.933  1.00  0.00    -0.337 N 
HETATM    5  H   UNL     1     -42.140 -48.713  13.474  1.00  0.00     0.172 HD
HETATM    6  H   UNL     1     -43.737 -49.815  14.727  1.00  0.00     0.164 HD
ENDROOT
BRANCH   4   7
HETATM    7  C   UNL     1     -44.795 -51.563  14.231  1.00  0.00     0.096 C 
HETATM    8  C   UNL     1     -46.301 -51.533  13.808  1.00  0.00     0.036 C 
HETATM    9  C   UNL     1     -47.003 -52.149  15.064  1.00  0.00    -0.006 C 
HETATM   10  C   UNL     1     -47.148 -51.061  16.129  1.00  0.00     0.005 C 
HETATM   11  C   UNL     1     -45.907 -53.011  15.700  1.00  0.00     0.012 C 
HETATM   12  C   UNL     1     -45.688 -50.759  16.487  1.00  0.00     0.007 C 
HETATM   13  C   UNL     1     -44.899 -51.863  15.743  1.00  0.00     0.009 C 
BRANCH   8  14
HETATM   14  C   UNL     1     -46.625 -52.365  12.560  1.00  0.00     0.171 C 
BRANCH  14  15
HETATM   15  O   UNL     1     -45.414 -52.769  11.911  1.00  0.00    -0.400 OA
HETATM   16  H   UNL     1     -45.649 -53.424  11.233  1.00  0.00     0.209 HD
ENDBRANCH  14  15
ENDBRANCH   8  14
ENDBRANCH   4   7
BRANCH   1  17
HETATM   17  C   UNL     1     -40.647 -49.897  12.664  1.00  0.00     0.176 A 
HETATM   18  C   UNL     1     -39.505 -50.484  13.153  1.00  0.00     0.085 A 
HETATM   19  C   UNL     1     -38.584 -50.415  12.075  1.00  0.00     0.033 A 
HETATM   20  C   UNL     1     -37.170 -50.841  12.012  1.00  0.00     0.070 C 
HETATM   21  N   UNL     1     -39.145 -49.876  10.989  1.00  0.00    -0.264 N 
HETATM   22  O   UNL     1     -40.433 -49.555  11.361  1.00  0.00    -0.220 OA
ATOM     23  HN  UNL     1     -38.712 -49.733  10.077  1.00  0.00     0.194 HD
ENDBRANCH   1  17
TORSDOF 4
ENDMDL
MODEL 6
REMARK VINA RESULT:      -6.2      4.304      7.255
REMARK  4 active torsions:
REMARK  status: ('A' for Active; 'I' for Inactive)
REMARK    1  A    between atoms: C_4  and  N_5 
REMARK       I    between atoms: N_5  and  C_6 
REMARK       I    between atoms: C_6  and  N_8 
REMARK    2  A    between atoms: N_8  and  C_9 
REMARK    3  A    between atoms: C_10  and  C_11 
REMARK    4  A    between atoms: C_11  and  O_12 
ROOT
HETATM    1  N   UNL     1     -40.895 -51.824  12.343  1.00  0.00    -0.287 N 
HETATM    2  C   UNL     1     -41.711 -52.364  13.309  1.00  0.00     0.322 C 
HETATM    3  O   UNL     1     -41.439 -52.407  14.497  1.00  0.00    -0.247 OA
HETATM    4  N   UNL     1     -42.921 -52.826  12.823  1.00  0.00    -0.337 N 
HETATM    5  H   UNL     1     -40.945 -52.168  11.398  1.00  0.00     0.172 HD
HETATM    6  H   UNL     1     -43.179 -52.398  11.942  1.00  0.00     0.164 HD
ENDROOT
BRANCH   4   7
HETATM    7  C   UNL     1     -44.012 -52.974  13.785  1.00  0.00     0.096 C 
HETATM    8  C   UNL     1     -45.297 -53.756  13.357  1.00  0.00     0.036 C 
HETATM    9  C   UNL     1     -46.434 -52.859  13.949  1.00  0.00    -0.006 C 
HETATM   10  C   UNL     1     -46.679 -51.684  13.000  1.00  0.00     0.005 C 
HETATM   11  C   UNL     1     -45.751 -52.134  15.112  1.00  0.00     0.012 C 
HETATM   12  C   UNL     1     -45.356 -50.914  13.089  1.00  0.00     0.007 C 
HETATM   13  C   UNL     1     -44.604 -51.622  14.242  1.00  0.00     0.009 C 
BRANCH   8  14
HETATM   14  C   UNL     1     -45.393 -55.177  13.928  1.00  0.00     0.171 C 
BRANCH  14  15
HETATM   15  O   UNL     1     -46.717 -55.424  14.413  1.00  0.00    -0.400 OA
HETATM   16  H   UNL     1     -46.849 -56.386  14.430  1.00  0.00     0.209 HD
ENDBRANCH  14  15
ENDBRANCH   8  14
ENDBRANCH   4   7
BRANCH   1  17
HETATM   17  C   UNL     1     -39.792 -51.092  12.741  1.00  0.00     0.176 A 
HETATM   18  C   UNL     1     -39.650 -49.807  13.207  1.00  0.00     0.085 A 
HETATM   19  C   UNL     1     -38.255 -49.666  13.426  1.00  0.00     0.033 A 
HETATM   20  C   UNL     1     -37.485 -48.487  13.879  1.00  0.00     0.070 C 
HETATM   21  N   UNL     1     -37.602 -50.802  13.165  1.00  0.00    -0.264 N 
HETATM   22  O   UNL     1     -38.566 -51.690  12.738  1.00  0.00    -0.220 OA
ATOM     23  HN  UNL     1     -36.602 -50.975  13.261  1.00  0.00     0.194 HD
ENDBRANCH   1  17
TORSDOF 4
ENDMDL
MODEL 7
REMARK VINA RESULT:      -6.2      4.339      6.785
REMARK  4 active torsions:
REMARK  status: ('A' for Active; 'I' for Inactive)
REMARK    1  A    between atoms: C_4  and  N_5 
REMARK       I    between atoms: N_5  and  C_6 
REMARK       I    between atoms: C_6  and  N_8 
REMARK    2  A    between atoms: N_8  and  C_9 
REMARK    3  A    between atoms: C_10  and  C_11 
REMARK    4  A    between atoms: C_11  and  O_12 
ROOT
HETATM    1  N   UNL     1     -41.574 -52.562  11.680  1.00  0.00    -0.287 N 
HETATM    2  C   UNL     1     -42.583 -52.813  12.580  1.00  0.00     0.322 C 
HETATM    3  O   UNL     1     -42.769 -52.178  13.604  1.00  0.00    -0.247 OA
HETATM    4  N   UNL     1     -43.427 -53.841  12.200  1.00  0.00    -0.337 N 
HETATM    5  H   UNL     1     -41.210 -53.313  11.116  1.00  0.00     0.172 HD
HETATM    6  H   UNL     1     -43.410 -54.014  11.201  1.00  0.00     0.164 HD
ENDROOT
BRANCH   4   7
HETATM    7  C   UNL     1     -44.754 -53.875  12.813  1.00  0.00     0.096 C 
HETATM    8  C   UNL     1     -45.268 -52.610  13.575  1.00  0.00     0.036 C 
HETATM    9  C   UNL     1     -45.930 -53.243  14.844  1.00  0.00    -0.006 C 
HETATM   10  C   UNL     1     -44.834 -53.567  15.861  1.00  0.00     0.005 C 
HETATM   11  C   UNL     1     -46.306 -54.656  14.386  1.00  0.00     0.012 C 
HETATM   12  C   UNL     1     -44.031 -54.655  15.137  1.00  0.00     0.007 C 
HETATM   13  C   UNL     1     -44.895 -54.972  13.892  1.00  0.00     0.009 C 
BRANCH   8  14
HETATM   14  C   UNL     1     -46.298 -51.779  12.799  1.00  0.00     0.171 C 
BRANCH  14  15
HETATM   15  O   UNL     1     -46.624 -52.427  11.565  1.00  0.00    -0.400 OA
HETATM   16  H   UNL     1     -47.593 -52.452  11.493  1.00  0.00     0.209 HD
ENDBRANCH  14  15
ENDBRANCH   8  14
ENDBRANCH   4   7
BRANCH   1  17
HETATM   17  C   UNL     1     -40.842 -51.398  11.813  1.00  0.00     0.176 A 
HETATM   18  C   UNL     1     -41.151 -50.077  11.592  1.00  0.00     0.085 A 
HETATM   19  C   UNL     1     -39.956 -49.379  11.908  1.00  0.00     0.033 A 
HETATM   20  C   UNL     1     -39.655 -47.934  11.818  1.00  0.00     0.070 C 
HETATM   21  N   UNL     1     -39.007 -50.211  12.344  1.00  0.00    -0.264 N 
HETATM   22  O   UNL     1     -39.564 -51.470  12.284  1.00  0.00    -0.220 OA
ATOM     23  HN  UNL     1     -38.067 -49.966  12.656  1.00  0.00     0.194 HD
ENDBRANCH   1  17
TORSDOF 4
ENDMDL
MODEL 8
REMARK VINA RESULT:      -6.1      3.775      5.363
REMARK  4 active torsions:
REMARK  status: ('A' for Active; 'I' for Inactive)
REMARK    1  A    between atoms: C_4  and  N_5 
REMARK       I    between atoms: N_5  and  C_6 
REMARK       I    between atoms: C_6  and  N_8 
REMARK    2  A    between atoms: N_8  and  C_9 
REMARK    3  A    between atoms: C_10  and  C_11 
REMARK    4  A    between atoms: C_11  and  O_12 
ROOT
HETATM    1  N   UNL     1     -44.022 -50.582  13.949  1.00  0.00    -0.287 N 
HETATM    2  C   UNL     1     -42.964 -50.271  13.128  1.00  0.00     0.322 C 
HETATM    3  O   UNL     1     -42.417 -51.061  12.377  1.00  0.00    -0.247 OA
HETATM    4  N   UNL     1     -42.586 -48.941  13.184  1.00  0.00    -0.337 N 
HETATM    5  H   UNL     1     -44.157 -50.069  14.805  1.00  0.00     0.172 HD
HETATM    6  H   UNL     1     -43.326 -48.337  13.521  1.00  0.00     0.164 HD
ENDROOT
BRANCH   4   7
HETATM    7  C   UNL     1     -41.824 -48.417  12.052  1.00  0.00     0.096 C 
HETATM    8  C   UNL     1     -40.264 -48.355  12.152  1.00  0.00     0.036 C 
HETATM    9  C   UNL     1     -39.955 -46.954  11.527  1.00  0.00    -0.006 C 
HETATM   10  C   UNL     1     -40.194 -45.878  12.588  1.00  0.00     0.005 C 
HETATM   11  C   UNL     1     -41.152 -46.700  10.605  1.00  0.00     0.012 C 
HETATM   12  C   UNL     1     -41.706 -45.983  12.822  1.00  0.00     0.007 C 
HETATM   13  C   UNL     1     -42.176 -46.952  11.711  1.00  0.00     0.009 C 
BRANCH   8  14
HETATM   14  C   UNL     1     -39.536 -49.456  11.371  1.00  0.00     0.171 C 
BRANCH  14  15
HETATM   15  O   UNL     1     -40.411 -50.027  10.393  1.00  0.00    -0.400 OA
HETATM   16  H   UNL     1     -40.392 -49.453   9.609  1.00  0.00     0.209 HD
ENDBRANCH  14  15
ENDBRANCH   8  14
ENDBRANCH   4   7
BRANCH   1  17
HETATM   17  C   UNL     1     -44.657 -51.798  13.780  1.00  0.00     0.176 A 
HETATM   18  C   UNL     1     -44.402 -53.054  14.273  1.00  0.00     0.085 A 
HETATM   19  C   UNL     1     -45.421 -53.866  13.711  1.00  0.00     0.033 A 
HETATM   20  C   UNL     1     -45.645 -55.323  13.836  1.00  0.00     0.070 C 
HETATM   21  N   UNL     1     -46.269 -53.144  12.975  1.00  0.00    -0.264 N 
HETATM   22  O   UNL     1     -45.789 -51.853  13.021  1.00  0.00    -0.220 OA
ATOM     23  HN  UNL     1     -47.097 -53.477  12.482  1.00  0.00     0.194 HD
ENDBRANCH   1  17
TORSDOF 4
ENDMDL
MODEL 9
REMARK VINA RESULT:      -6.1      2.503      6.473
REMARK  4 active torsions:
REMARK  status: ('A' for Active; 'I' for Inactive)
REMARK    1  A    between atoms: C_4  and  N_5 
REMARK       I    between atoms: N_5  and  C_6 
REMARK       I    between atoms: C_6  and  N_8 
REMARK    2  A    between atoms: N_8  and  C_9 
REMARK    3  A    between atoms: C_10  and  C_11 
REMARK    4  A    between atoms: C_11  and  O_12 
ROOT
HETATM    1  N   UNL     1     -40.345 -51.256  11.627  1.00  0.00    -0.287 N 
HETATM    2  C   UNL     1     -41.407 -50.396  11.776  1.00  0.00     0.322 C 
HETATM    3  O   UNL     1     -42.279 -50.515  12.619  1.00  0.00    -0.247 OA
HETATM    4  N   UNL     1     -41.385 -49.325  10.900  1.00  0.00    -0.337 N 
HETATM    5  H   UNL     1     -39.919 -51.371  10.722  1.00  0.00     0.172 HD
HETATM    6  H   UNL     1     -40.457 -49.132  10.540  1.00  0.00     0.164 HD
ENDROOT
BRANCH   4   7
HETATM    7  C   UNL     1     -42.165 -48.146  11.271  1.00  0.00     0.096 C 
HETATM    8  C   UNL     1     -42.744 -47.234  10.139  1.00  0.00     0.036 C 
HETATM    9  C   UNL     1     -42.461 -45.801  10.700  1.00  0.00    -0.006 C 
HETATM   10  C   UNL     1     -41.001 -45.441  10.419  1.00  0.00     0.005 C 
HETATM   11  C   UNL     1     -42.403 -46.015  12.216  1.00  0.00     0.012 C 
HETATM   12  C   UNL     1     -40.244 -46.460  11.281  1.00  0.00     0.007 C 
HETATM   13  C   UNL     1     -41.363 -47.129  12.115  1.00  0.00     0.009 C 
BRANCH   8  14
HETATM   14  C   UNL     1     -44.245 -47.416   9.885  1.00  0.00     0.171 C 
BRANCH  14  15
HETATM   15  O   UNL     1     -44.460 -47.980   8.587  1.00  0.00    -0.400 OA
HETATM   16  H   UNL     1     -43.684 -48.522   8.369  1.00  0.00     0.209 HD
ENDBRANCH  14  15
ENDBRANCH   8  14
ENDBRANCH   4   7
BRANCH   1  17
HETATM   17  C   UNL     1     -40.114 -52.200  12.609  1.00  0.00     0.176 A 
HETATM   18  C   UNL     1     -39.527 -52.124  13.849  1.00  0.00     0.085 A 
HETATM   19  C   UNL     1     -39.594 -53.450  14.352  1.00  0.00     0.033 A 
HETATM   20  C   UNL     1     -39.080 -54.005  15.623  1.00  0.00     0.070 C 
HETATM   21  N   UNL     1     -40.227 -54.262  13.502  1.00  0.00    -0.264 N 
HETATM   22  O   UNL     1     -40.551 -53.478  12.416  1.00  0.00    -0.220 OA
ATOM     23  HN  UNL     1     -40.429 -55.253  13.630  1.00  0.00     0.194 HD
ENDBRANCH   1  17
TORSDOF 4
ENDMDL
