MODEL 1
REMARK VINA RESULT:      -6.2      0.000      0.000
REMARK  4 active torsions:
REMARK  status: ('A' for Active; 'I' for Inactive)
REMARK       I    between atoms: C_2  and  N_3 
REMARK       I    between atoms: C_2  and  N_13 
REMARK    1  A    between atoms: N_3  and  C_4 
REMARK    2  A    between atoms: C_4  and  C_5 
REMARK    3  A    between atoms: C_5  and  C_6 
REMARK    4  A    between atoms: C_18  and  N_20 
ROOT
HETATM    1  O   UNL     1     -40.395 -52.302  12.108  1.00  0.00    -0.247 OA
HETATM    2  C   UNL     1     -41.297 -51.464  12.090  1.00  0.00     0.318 C 
HETATM    3  N   UNL     1     -42.580 -51.808  12.442  1.00  0.00    -0.343 N 
HETATM    4  N   UNL     1     -41.109 -50.140  11.707  1.00  0.00    -0.332 N 
HETATM    5  C   UNL     1     -42.121 -49.082  11.751  1.00  0.00     0.127 C 
HETATM    6  C   UNL     1     -41.911 -48.130  12.919  1.00  0.00     0.020 C 
HETATM    7  C   UNL     1     -40.975 -46.970  12.605  1.00  0.00     0.004 C 
HETATM    8  C   UNL     1     -39.641 -47.282  11.925  1.00  0.00     0.037 C 
HETATM    9  C   UNL     1     -39.007 -48.679  12.117  1.00  0.00     0.241 C 
HETATM   10  C   UNL     1     -39.771 -49.741  11.258  1.00  0.00     0.163 C 
HETATM   11  H   UNL     1     -43.294 -51.359  11.896  1.00  0.00     0.164 HD
ENDROOT
BRANCH   3  12
HETATM   12  C   UNL     1     -42.889 -53.175  12.829  1.00  0.00     0.129 C 
BRANCH  12  13
HETATM   13  C   UNL     1     -44.324 -53.575  12.481  1.00  0.00     0.060 C 
BRANCH  13  14
HETATM   14  C   UNL     1     -45.287 -53.087  13.529  1.00  0.00    -0.041 A 
HETATM   15  C   UNL     1     -45.949 -51.865  13.389  1.00  0.00     0.010 A 
HETATM   16  C   UNL     1     -46.793 -51.418  14.401  1.00  0.00     0.018 A 
HETATM   17  C   UNL     1     -46.943 -52.210  15.527  1.00  0.00     0.087 A 
HETATM   18  N   UNL     1     -46.319 -53.394  15.701  1.00  0.00    -0.375 N 
HETATM   19  C   UNL     1     -45.508 -53.804  14.700  1.00  0.00     0.094 A 
ATOM     20  HN  UNL     1     -46.452 -53.950  16.546  1.00  0.00     0.164 HD
ENDBRANCH  13  14
ENDBRANCH  12  13
ENDBRANCH   3  12
BRANCH   9  21
HETATM   21  N   UNL     1     -38.748 -49.032  13.532  1.00  0.00     0.094 N 
HETATM   22  C   UNL     1     -37.961 -48.020  14.258  1.00  0.00     0.273 C 
HETATM   23  C   UNL     1     -37.109 -48.778  15.276  1.00  0.00     0.032 C 
HETATM   24  C   UNL     1     -37.481 -50.234  15.096  1.00  0.00     0.032 C 
HETATM   25  C   UNL     1     -37.994 -50.286  13.674  1.00  0.00     0.273 C 
ENDBRANCH   9  21
TORSDOF 4
ENDMDL
MODEL 2
REMARK VINA RESULT:      -6.1      2.094      7.453
REMARK  4 active torsions:
REMARK  status: ('A' for Active; 'I' for Inactive)
REMARK       I    between atoms: C_2  and  N_3 
REMARK       I    between atoms: C_2  and  N_13 
REMARK    1  A    between atoms: N_3  and  C_4 
REMARK    2  A    between atoms: C_4  and  C_5 
REMARK    3  A    between atoms: C_5  and  C_6 
REMARK    4  A    between atoms: C_18  and  N_20 
ROOT
HETATM    1  O   UNL     1     -43.175 -50.457  12.593  1.00  0.00    -0.247 OA
HETATM    2  C   UNL     1     -42.435 -51.408  12.846  1.00  0.00     0.318 C 
HETATM    3  N   UNL     1     -41.094 -51.212  13.072  1.00  0.00    -0.343 N 
HETATM    4  N   UNL     1     -42.873 -52.727  12.904  1.00  0.00    -0.332 N 
HETATM    5  C   UNL     1     -42.060 -53.885  13.286  1.00  0.00     0.127 C 
HETATM    6  C   UNL     1     -42.367 -54.366  14.696  1.00  0.00     0.020 C 
HETATM    7  C   UNL     1     -43.507 -55.374  14.767  1.00  0.00     0.004 C 
HETATM    8  C   UNL     1     -44.802 -55.052  14.020  1.00  0.00     0.037 C 
HETATM    9  C   UNL     1     -45.171 -53.574  13.755  1.00  0.00     0.241 C 
HETATM   10  C   UNL     1     -44.283 -52.994  12.603  1.00  0.00     0.163 C 
HETATM   11  H   UNL     1     -40.502 -51.933  12.699  1.00  0.00     0.164 HD
ENDROOT
BRANCH   3  12
HETATM   12  C   UNL     1     -40.529 -49.874  13.003  1.00  0.00     0.129 C 
BRANCH  12  13
HETATM   13  C   UNL     1     -39.989 -49.534  11.613  1.00  0.00     0.060 C 
BRANCH  13  14
HETATM   14  C   UNL     1     -40.519 -48.208  11.140  1.00  0.00    -0.041 A 
HETATM   15  C   UNL     1     -39.919 -47.009  11.531  1.00  0.00     0.010 A 
HETATM   16  C   UNL     1     -40.465 -45.798  11.119  1.00  0.00     0.018 A 
HETATM   17  C   UNL     1     -41.602 -45.826  10.329  1.00  0.00     0.087 A 
HETATM   18  N   UNL     1     -42.213 -46.963   9.933  1.00  0.00    -0.375 N 
HETATM   19  C   UNL     1     -41.658 -48.125  10.346  1.00  0.00     0.094 A 
ATOM     20  HN  UNL     1     -43.052 -46.946   9.352  1.00  0.00     0.164 HD
ENDBRANCH  13  14
ENDBRANCH  12  13
ENDBRANCH   3  12
BRANCH   9  21
HETATM   21  N   UNL     1     -45.283 -52.753  14.983  1.00  0.00     0.094 N 
HETATM   22  C   UNL     1     -46.167 -53.340  16.006  1.00  0.00     0.273 C 
HETATM   23  C   UNL     1     -46.829 -52.170  16.734  1.00  0.00     0.032 C 
HETATM   24  C   UNL     1     -46.254 -50.928  16.089  1.00  0.00     0.032 C 
HETATM   25  C   UNL     1     -45.829 -51.414  14.721  1.00  0.00     0.273 C 
ENDBRANCH   9  21
TORSDOF 4
ENDMDL
MODEL 3
REMARK VINA RESULT:      -6.1      4.505      7.284
REMARK  4 active torsions:
REMARK  status: ('A' for Active; 'I' for Inactive)
REMARK       I    between atoms: C_2  and  N_3 
REMARK       I    between atoms: C_2  and  N_13 
REMARK    1  A    between atoms: N_3  and  C_4 
REMARK    2  A    between atoms: C_4  and  C_5 
REMARK    3  A    between atoms: C_5  and  C_6 
REMARK    4  A    between atoms: C_18  and  N_20 
ROOT
HETATM    1  O   UNL     1     -45.204 -54.952  17.214  1.00  0.00    -0.247 OA
HETATM    2  C   UNL     1     -45.853 -53.919  17.048  1.00  0.00     0.318 C 
HETATM    3  N   UNL     1     -46.143 -53.096  18.110  1.00  0.00    -0.343 N 
HETATM    4  N   UNL     1     -46.351 -53.514  15.815  1.00  0.00    -0.332 N 
HETATM    5  C   UNL     1     -47.051 -52.256  15.543  1.00  0.00     0.127 C 
HETATM    6  C   UNL     1     -46.166 -51.247  14.826  1.00  0.00     0.020 C 
HETATM    7  C   UNL     1     -46.191 -51.376  13.308  1.00  0.00     0.004 C 
HETATM    8  C   UNL     1     -46.013 -52.768  12.700  1.00  0.00     0.037 C 
HETATM    9  C   UNL     1     -45.239 -53.844  13.496  1.00  0.00     0.241 C 
HETATM   10  C   UNL     1     -46.126 -54.394  14.663  1.00  0.00     0.163 C 
HETATM   11  H   UNL     1     -47.056 -52.678  18.073  1.00  0.00     0.164 HD
ENDROOT
BRANCH   3  12
HETATM   12  C   UNL     1     -45.694 -53.444  19.448  1.00  0.00     0.129 C 
BRANCH  12  13
HETATM   13  C   UNL     1     -46.786 -54.125  20.276  1.00  0.00     0.060 C 
BRANCH  13  14
HETATM   14  C   UNL     1     -46.683 -55.623  20.173  1.00  0.00    -0.041 A 
HETATM   15  C   UNL     1     -45.471 -56.281  20.397  1.00  0.00     0.010 A 
HETATM   16  C   UNL     1     -45.398 -57.661  20.242  1.00  0.00     0.018 A 
HETATM   17  C   UNL     1     -46.543 -58.340  19.862  1.00  0.00     0.087 A 
HETATM   18  N   UNL     1     -47.730 -57.741  19.633  1.00  0.00    -0.375 N 
HETATM   19  C   UNL     1     -47.773 -56.399  19.795  1.00  0.00     0.094 A 
ATOM     20  HN  UNL     1     -48.554 -58.273  19.353  1.00  0.00     0.164 HD
ENDBRANCH  13  14
ENDBRANCH  12  13
ENDBRANCH   3  12
BRANCH   9  21
HETATM   21  N   UNL     1     -43.853 -53.454  13.843  1.00  0.00     0.094 N 
HETATM   22  C   UNL     1     -43.046 -53.046  12.679  1.00  0.00     0.273 C 
HETATM   23  C   UNL     1     -41.608 -53.474  12.974  1.00  0.00     0.032 C 
HETATM   24  C   UNL     1     -41.658 -54.104  14.349  1.00  0.00     0.032 C 
HETATM   25  C   UNL     1     -43.099 -54.547  14.475  1.00  0.00     0.273 C 
ENDBRANCH   9  21
TORSDOF 4
ENDMDL
MODEL 4
REMARK VINA RESULT:      -6.1      2.168      7.036
REMARK  4 active torsions:
REMARK  status: ('A' for Active; 'I' for Inactive)
REMARK       I    between atoms: C_2  and  N_3 
REMARK       I    between atoms: C_2  and  N_13 
REMARK    1  A    between atoms: N_3  and  C_4 
REMARK    2  A    between atoms: C_4  and  C_5 
REMARK    3  A    between atoms: C_5  and  C_6 
REMARK    4  A    between atoms: C_18  and  N_20 
ROOT
HETATM    1  O   UNL     1     -41.513 -52.095  11.448  1.00  0.00    -0.247 OA
HETATM    2  C   UNL     1     -40.870 -52.159  12.496  1.00  0.00     0.318 C 
HETATM    3  N   UNL     1     -39.860 -51.263  12.753  1.00  0.00    -0.343 N 
HETATM    4  N   UNL     1     -41.088 -53.123  13.474  1.00  0.00    -0.332 N 
HETATM    5  C   UNL     1     -40.416 -53.193  14.774  1.00  0.00     0.127 C 
HETATM    6  C   UNL     1     -41.310 -52.721  15.912  1.00  0.00     0.020 C 
HETATM    7  C   UNL     1     -42.180 -53.821  16.507  1.00  0.00     0.004 C 
HETATM    8  C   UNL     1     -42.965 -54.718  15.548  1.00  0.00     0.037 C 
HETATM    9  C   UNL     1     -43.359 -54.170  14.157  1.00  0.00     0.241 C 
HETATM   10  C   UNL     1     -42.109 -54.142  13.215  1.00  0.00     0.163 C 
HETATM   11  H   UNL     1     -39.066 -51.659  13.225  1.00  0.00     0.164 HD
ENDROOT
BRANCH   3  12
HETATM   12  C   UNL     1     -39.531 -50.233  11.781  1.00  0.00     0.129 C 
BRANCH  12  13
HETATM   13  C   UNL     1     -39.704 -48.820  12.339  1.00  0.00     0.060 C 
BRANCH  13  14
HETATM   14  C   UNL     1     -40.669 -48.025  11.501  1.00  0.00    -0.041 A 
HETATM   15  C   UNL     1     -41.886 -48.572  11.088  1.00  0.00     0.010 A 
HETATM   16  C   UNL     1     -42.732 -47.830  10.271  1.00  0.00     0.018 A 
HETATM   17  C   UNL     1     -42.329 -46.562   9.887  1.00  0.00     0.087 A 
HETATM   18  N   UNL     1     -41.160 -46.001  10.263  1.00  0.00    -0.375 N 
HETATM   19  C   UNL     1     -40.359 -46.743  11.060  1.00  0.00     0.094 A 
ATOM     20  HN  UNL     1     -40.894 -45.063   9.959  1.00  0.00     0.164 HD
ENDBRANCH  13  14
ENDBRANCH  12  13
ENDBRANCH   3  12
BRANCH   9  21
HETATM   21  N   UNL     1     -44.180 -52.937  14.207  1.00  0.00     0.094 N 
HETATM   22  C   UNL     1     -45.361 -53.051  15.081  1.00  0.00     0.273 C 
HETATM   23  C   UNL     1     -46.454 -52.188  14.449  1.00  0.00     0.032 C 
HETATM   24  C   UNL     1     -45.817 -51.582  13.218  1.00  0.00     0.032 C 
HETATM   25  C   UNL     1     -44.706 -52.555  12.889  1.00  0.00     0.273 C 
ENDBRANCH   9  21
TORSDOF 4
ENDMDL
MODEL 5
REMARK VINA RESULT:      -6.1      2.433      3.805
REMARK  4 active torsions:
REMARK  status: ('A' for Active; 'I' for Inactive)
REMARK       I    between atoms: C_2  and  N_3 
REMARK       I    between atoms: C_2  and  N_13 
REMARK    1  A    between atoms: N_3  and  C_4 
REMARK    2  A    between atoms: C_4  and  C_5 
REMARK    3  A    between atoms: C_5  and  C_6 
REMARK    4  A    between atoms: C_18  and  N_20 
ROOT
HETATM    1  O   UNL     1     -43.671 -53.990  12.603  1.00  0.00    -0.247 OA
HETATM    2  C   UNL     1     -43.490 -52.774  12.536  1.00  0.00     0.318 C 
HETATM    3  N   UNL     1     -44.556 -51.906  12.519  1.00  0.00    -0.343 N 
HETATM    4  N   UNL     1     -42.231 -52.188  12.455  1.00  0.00    -0.332 N 
HETATM    5  C   UNL     1     -41.952 -50.749  12.462  1.00  0.00     0.127 C 
HETATM    6  C   UNL     1     -41.410 -50.273  13.801  1.00  0.00     0.020 C 
HETATM    7  C   UNL     1     -39.896 -50.382  13.925  1.00  0.00     0.004 C 
HETATM    8  C   UNL     1     -39.232 -51.698  13.519  1.00  0.00     0.037 C 
HETATM    9  C   UNL     1     -40.050 -53.008  13.590  1.00  0.00     0.241 C 
HETATM   10  C   UNL     1     -41.065 -53.075  12.400  1.00  0.00     0.163 C 
HETATM   11  H   UNL     1     -44.433 -51.111  11.918  1.00  0.00     0.164 HD
ENDROOT
BRANCH   3  12
HETATM   12  C   UNL     1     -45.916 -52.419  12.569  1.00  0.00     0.129 C 
BRANCH  12  13
HETATM   13  C   UNL     1     -46.817 -51.606  13.499  1.00  0.00     0.060 C 
BRANCH  13  14
HETATM   14  C   UNL     1     -46.679 -52.072  14.923  1.00  0.00    -0.041 A 
HETATM   15  C   UNL     1     -46.989 -51.229  15.993  1.00  0.00     0.010 A 
HETATM   16  C   UNL     1     -46.801 -51.673  17.298  1.00  0.00     0.018 A 
HETATM   17  C   UNL     1     -46.302 -52.950  17.491  1.00  0.00     0.087 A 
HETATM   18  N   UNL     1     -45.987 -53.793  16.484  1.00  0.00    -0.375 N 
HETATM   19  C   UNL     1     -46.183 -53.336  15.227  1.00  0.00     0.094 A 
ATOM     20  HN  UNL     1     -45.619 -54.727  16.664  1.00  0.00     0.164 HD
ENDBRANCH  13  14
ENDBRANCH  12  13
ENDBRANCH   3  12
BRANCH   9  21
HETATM   21  N   UNL     1     -40.586 -53.309  14.938  1.00  0.00     0.094 N 
HETATM   22  C   UNL     1     -39.548 -53.390  15.981  1.00  0.00     0.273 C 
HETATM   23  C   UNL     1     -40.024 -54.437  16.989  1.00  0.00     0.032 C 
HETATM   24  C   UNL     1     -41.368 -54.901  16.471  1.00  0.00     0.032 C 
HETATM   25  C   UNL     1     -41.292 -54.597  14.991  1.00  0.00     0.273 C 
ENDBRANCH   9  21
TORSDOF 4
ENDMDL
MODEL 6
REMARK VINA RESULT:      -5.9      1.970      3.793
REMARK  4 active torsions:
REMARK  status: ('A' for Active; 'I' for Inactive)
REMARK       I    between atoms: C_2  and  N_3 
REMARK       I    between atoms: C_2  and  N_13 
REMARK    1  A    between atoms: N_3  and  C_4 
REMARK    2  A    between atoms: C_4  and  C_5 
REMARK    3  A    between atoms: C_5  and  C_6 
REMARK    4  A    between atoms: C_18  and  N_20 
ROOT
HETATM    1  O   UNL     1     -42.005 -50.209  12.899  1.00  0.00    -0.247 OA
HETATM    2  C   UNL     1     -40.860 -50.444  13.286  1.00  0.00     0.318 C 
HETATM    3  N   UNL     1     -40.235 -51.622  12.952  1.00  0.00    -0.343 N 
HETATM    4  N   UNL     1     -40.125 -49.574  14.085  1.00  0.00    -0.332 N 
HETATM    5  C   UNL     1     -38.732 -49.760  14.500  1.00  0.00     0.127 C 
HETATM    6  C   UNL     1     -37.775 -48.872  13.720  1.00  0.00     0.020 C 
HETATM    7  C   UNL     1     -37.582 -47.490  14.332  1.00  0.00     0.004 C 
HETATM    8  C   UNL     1     -38.827 -46.702  14.741  1.00  0.00     0.037 C 
HETATM    9  C   UNL     1     -40.166 -46.983  14.022  1.00  0.00     0.241 C 
HETATM   10  C   UNL     1     -40.775 -48.335  14.525  1.00  0.00     0.163 C 
HETATM   11  H   UNL     1     -39.660 -52.007  13.680  1.00  0.00     0.164 HD
ENDROOT
BRANCH   3  12
HETATM   12  C   UNL     1     -40.928 -52.613  12.144  1.00  0.00     0.129 C 
BRANCH  12  13
HETATM   13  C   UNL     1     -41.280 -53.874  12.935  1.00  0.00     0.060 C 
BRANCH  13  14
HETATM   14  C   UNL     1     -42.757 -53.933  13.220  1.00  0.00    -0.041 A 
HETATM   15  C   UNL     1     -43.260 -54.703  14.271  1.00  0.00     0.010 A 
HETATM   16  C   UNL     1     -44.633 -54.779  14.475  1.00  0.00     0.018 A 
HETATM   17  C   UNL     1     -45.464 -54.082  13.613  1.00  0.00     0.087 A 
HETATM   18  N   UNL     1     -45.017 -53.331  12.584  1.00  0.00    -0.375 N 
HETATM   19  C   UNL     1     -43.678 -53.273  12.412  1.00  0.00     0.094 A 
ATOM     20  HN  UNL     1     -45.659 -52.832  11.968  1.00  0.00     0.164 HD
ENDBRANCH  13  14
ENDBRANCH  12  13
ENDBRANCH   3  12
BRANCH   9  21
HETATM   21  N   UNL     1     -40.114 -46.783  12.555  1.00  0.00     0.094 N 
HETATM   22  C   UNL     1     -39.661 -45.439  12.159  1.00  0.00     0.273 C 
HETATM   23  C   UNL     1     -40.399 -45.094  10.864  1.00  0.00     0.032 C 
HETATM   24  C   UNL     1     -41.247 -46.309  10.558  1.00  0.00     0.032 C 
HETATM   25  C   UNL     1     -41.425 -46.956  11.914  1.00  0.00     0.273 C 
ENDBRANCH   9  21
TORSDOF 4
ENDMDL
MODEL 7
REMARK VINA RESULT:      -5.8      2.243      4.318
REMARK  4 active torsions:
REMARK  status: ('A' for Active; 'I' for Inactive)
REMARK       I    between atoms: C_2  and  N_3 
REMARK       I    between atoms: C_2  and  N_13 
REMARK    1  A    between atoms: N_3  and  C_4 
REMARK    2  A    between atoms: C_4  and  C_5 
REMARK    3  A    between atoms: C_5  and  C_6 
REMARK    4  A    between atoms: C_18  and  N_20 
ROOT
HETATM    1  O   UNL     1     -43.729 -50.296  12.695  1.00  0.00    -0.247 OA
HETATM    2  C   UNL     1     -42.504 -50.217  12.787  1.00  0.00     0.318 C 
HETATM    3  N   UNL     1     -41.719 -51.339  12.669  1.00  0.00    -0.343 N 
HETATM    4  N   UNL     1     -41.826 -49.027  13.029  1.00  0.00    -0.332 N 
HETATM    5  C   UNL     1     -40.372 -48.859  13.060  1.00  0.00     0.127 C 
HETATM    6  C   UNL     1     -39.841 -48.189  11.801  1.00  0.00     0.020 C 
HETATM    7  C   UNL     1     -39.835 -46.667  11.870  1.00  0.00     0.004 C 
HETATM    8  C   UNL     1     -41.103 -45.962  12.356  1.00  0.00     0.037 C 
HETATM    9  C   UNL     1     -42.469 -46.663  12.179  1.00  0.00     0.241 C 
HETATM   10  C   UNL     1     -42.625 -47.814  13.230  1.00  0.00     0.163 C 
HETATM   11  H   UNL     1     -40.923 -51.354  13.283  1.00  0.00     0.164 HD
ENDROOT
BRANCH   3  12
HETATM   12  C   UNL     1     -42.331 -52.639  12.446  1.00  0.00     0.129 C 
BRANCH  12  13
HETATM   13  C   UNL     1     -42.279 -53.534  13.685  1.00  0.00     0.060 C 
BRANCH  13  14
HETATM   14  C   UNL     1     -43.663 -53.807  14.209  1.00  0.00    -0.041 A 
HETATM   15  C   UNL     1     -44.501 -54.736  13.586  1.00  0.00     0.010 A 
HETATM   16  C   UNL     1     -45.793 -54.926  14.064  1.00  0.00     0.018 A 
HETATM   17  C   UNL     1     -46.209 -54.176  15.150  1.00  0.00     0.087 A 
HETATM   18  N   UNL     1     -45.431 -53.267  15.776  1.00  0.00    -0.375 N 
HETATM   19  C   UNL     1     -44.179 -53.105  15.293  1.00  0.00     0.094 A 
ATOM     20  HN  UNL     1     -45.772 -52.730  16.574  1.00  0.00     0.164 HD
ENDBRANCH  13  14
ENDBRANCH  12  13
ENDBRANCH   3  12
BRANCH   9  21
HETATM   21  N   UNL     1     -42.794 -47.000  10.773  1.00  0.00     0.094 N 
HETATM   22  C   UNL     1     -42.748 -45.842   9.864  1.00  0.00     0.273 C 
HETATM   23  C   UNL     1     -43.815 -46.083   8.796  1.00  0.00     0.032 C 
HETATM   24  C   UNL     1     -44.424 -47.424   9.142  1.00  0.00     0.032 C 
HETATM   25  C   UNL     1     -44.146 -47.558  10.624  1.00  0.00     0.273 C 
ENDBRANCH   9  21
TORSDOF 4
ENDMDL
MODEL 8
REMARK VINA RESULT:      -5.7      2.049      7.169
REMARK  4 active torsions:
REMARK  status: ('A' for Active; 'I' for Inactive)
REMARK       I    between atoms: C_2  and  N_3 
REMARK       I    between atoms: C_2  and  N_13 
REMARK    1  A    between atoms: N_3  and  C_4 
REMARK    2  A    between atoms: C_4  and  C_5 
REMARK    3  A    between atoms: C_5  and  C_6 
REMARK    4  A    between atoms: C_18  and  N_20 
ROOT
HETATM    1  O   UNL     1     -41.969 -50.443  11.937  1.00  0.00    -0.247 OA
HETATM    2  C   UNL     1     -41.342 -51.474  12.181  1.00  0.00     0.318 C 
HETATM    3  N   UNL     1     -39.968 -51.489  12.125  1.00  0.00    -0.343 N 
HETATM    4  N   UNL     1     -41.947 -52.683  12.507  1.00  0.00    -0.332 N 
HETATM    5  C   UNL     1     -41.253 -53.914  12.892  1.00  0.00     0.127 C 
HETATM    6  C   UNL     1     -41.332 -54.177  14.389  1.00  0.00     0.020 C 
HETATM    7  C   UNL     1     -42.569 -54.959  14.812  1.00  0.00     0.004 C 
HETATM    8  C   UNL     1     -43.928 -54.503  14.278  1.00  0.00     0.037 C 
HETATM    9  C   UNL     1     -44.121 -53.022  13.879  1.00  0.00     0.241 C 
HETATM   10  C   UNL     1     -43.413 -52.735  12.512  1.00  0.00     0.163 C 
HETATM   11  H   UNL     1     -39.578 -52.338  11.756  1.00  0.00     0.164 HD
ENDROOT
BRANCH   3  12
HETATM   12  C   UNL     1     -39.239 -50.284  11.764  1.00  0.00     0.129 C 
BRANCH  12  13
HETATM   13  C   UNL     1     -37.780 -50.321  12.222  1.00  0.00     0.060 C 
BRANCH  13  14
HETATM   14  C   UNL     1     -37.611 -49.603  13.534  1.00  0.00    -0.041 A 
HETATM   15  C   UNL     1     -37.825 -48.227  13.638  1.00  0.00     0.010 A 
HETATM   16  C   UNL     1     -37.609 -47.586  14.853  1.00  0.00     0.018 A 
HETATM   17  C   UNL     1     -37.180 -48.345  15.928  1.00  0.00     0.087 A 
HETATM   18  N   UNL     1     -36.958 -49.675  15.867  1.00  0.00    -0.375 N 
HETATM   19  C   UNL     1     -37.179 -50.272  14.675  1.00  0.00     0.094 A 
ATOM     20  HN  UNL     1     -36.640 -50.203  16.680  1.00  0.00     0.164 HD
ENDBRANCH  13  14
ENDBRANCH  12  13
ENDBRANCH   3  12
BRANCH   9  21
HETATM   21  N   UNL     1     -43.857 -52.063  14.977  1.00  0.00     0.094 N 
HETATM   22  C   UNL     1     -44.661 -52.316  16.186  1.00  0.00     0.273 C 
HETATM   23  C   UNL     1     -44.937 -50.951  16.818  1.00  0.00     0.032 C 
HETATM   24  C   UNL     1     -44.233 -49.953  15.926  1.00  0.00     0.032 C 
HETATM   25  C   UNL     1     -44.150 -50.674  14.598  1.00  0.00     0.273 C 
ENDBRANCH   9  21
TORSDOF 4
ENDMDL
MODEL 9
REMARK VINA RESULT:      -5.7      1.966      3.547
REMARK  4 active torsions:
REMARK  status: ('A' for Active; 'I' for Inactive)
REMARK       I    between atoms: C_2  and  N_3 
REMARK       I    between atoms: C_2  and  N_13 
REMARK    1  A    between atoms: N_3  and  C_4 
REMARK    2  A    between atoms: C_4  and  C_5 
REMARK    3  A    between atoms: C_5  and  C_6 
REMARK    4  A    between atoms: C_18  and  N_20 
ROOT
HETATM    1  O   UNL     1     -42.272 -51.513  14.038  1.00  0.00    -0.247 OA
HETATM    2  C   UNL     1     -41.106 -51.875  13.879  1.00  0.00     0.318 C 
HETATM    3  N   UNL     1     -40.818 -53.167  13.508  1.00  0.00    -0.343 N 
HETATM    4  N   UNL     1     -40.009 -51.042  14.072  1.00  0.00    -0.332 N 
HETATM    5  C   UNL     1     -38.610 -51.391  13.812  1.00  0.00     0.127 C 
HETATM    6  C   UNL     1     -38.087 -50.760  12.530  1.00  0.00     0.020 C 
HETATM    7  C   UNL     1     -37.512 -49.362  12.722  1.00  0.00     0.004 C 
HETATM    8  C   UNL     1     -38.334 -48.348  13.519  1.00  0.00     0.037 C 
HETATM    9  C   UNL     1     -39.871 -48.501  13.573  1.00  0.00     0.241 C 
HETATM   10  C   UNL     1     -40.263 -49.673  14.534  1.00  0.00     0.163 C 
HETATM   11  H   UNL     1     -39.994 -53.547  13.938  1.00  0.00     0.164 HD
ENDROOT
BRANCH   3  12
HETATM   12  C   UNL     1     -41.892 -54.127  13.310  1.00  0.00     0.129 C 
BRANCH  12  13
HETATM   13  C   UNL     1     -42.379 -54.743  14.623  1.00  0.00     0.060 C 
BRANCH  13  14
HETATM   14  C   UNL     1     -43.863 -54.555  14.786  1.00  0.00    -0.041 A 
HETATM   15  C   UNL     1     -44.396 -53.982  15.943  1.00  0.00     0.010 A 
HETATM   16  C   UNL     1     -45.775 -53.870  16.085  1.00  0.00     0.018 A 
HETATM   17  C   UNL     1     -46.580 -54.341  15.062  1.00  0.00     0.087 A 
HETATM   18  N   UNL     1     -46.104 -54.903  13.931  1.00  0.00    -0.375 N 
HETATM   19  C   UNL     1     -44.760 -54.996  13.819  1.00  0.00     0.094 A 
ATOM     20  HN  UNL     1     -46.728 -55.241  13.197  1.00  0.00     0.164 HD
ENDBRANCH  13  14
ENDBRANCH  12  13
ENDBRANCH   3  12
BRANCH   9  21
HETATM   21  N   UNL     1     -40.525 -48.487  12.243  1.00  0.00     0.094 N 
HETATM   22  C   UNL     1     -40.210 -47.290  11.445  1.00  0.00     0.273 C 
HETATM   23  C   UNL     1     -41.453 -46.986  10.608  1.00  0.00     0.032 C 
HETATM   24  C   UNL     1     -42.442 -48.075  10.960  1.00  0.00     0.032 C 
HETATM   25  C   UNL     1     -41.991 -48.521  12.333  1.00  0.00     0.273 C 
ENDBRANCH   9  21
TORSDOF 4
ENDMDL
