MODEL 1
REMARK VINA RESULT:      -6.3      0.000      0.000
REMARK  4 active torsions:
REMARK  status: ('A' for Active; 'I' for Inactive)
REMARK       I    between atoms: N_1  and  C_2 
REMARK    1  A    between atoms: C_2  and  C_4 
REMARK    2  A    between atoms: C_4  and  N_5 
REMARK    3  A    between atoms: C_8  and  N_11 
REMARK       I    between atoms: N_11  and  C_12 
REMARK       I    between atoms: C_12  and  N_14 
REMARK    4  A    between atoms: N_14  and  C_15 
ROOT
HETATM    1  N   UNL     1     -43.392 -49.705  12.202  1.00  0.00    -0.338 N 
HETATM    2  C   UNL     1     -43.994 -50.516  13.146  1.00  0.00     0.321 C 
HETATM    3  O   UNL     1     -43.899 -50.276  14.343  1.00  0.00    -0.247 OA
HETATM    4  N   UNL     1     -44.656 -51.587  12.587  1.00  0.00    -0.309 N 
HETATM    5  H   UNL     1     -43.706 -49.762  11.246  1.00  0.00     0.164 HD
HETATM    6  H   UNL     1     -44.661 -51.649  11.581  1.00  0.00     0.170 HD
ENDROOT
BRANCH   1   7
HETATM    7  C   UNL     1     -42.727 -48.478  12.650  1.00  0.00     0.089 C 
HETATM    8  C   UNL     1     -43.140 -47.269  11.802  1.00  0.00     0.055 C 
HETATM    9  C   UNL     1     -42.335 -47.151  10.508  1.00  0.00     0.275 C 
HETATM   10  N   UNL     1     -40.874 -47.205  10.683  1.00  0.00     0.097 N 
HETATM   11  C   UNL     1     -40.504 -48.440  11.394  1.00  0.00     0.275 C 
HETATM   12  C   UNL     1     -41.210 -48.642  12.734  1.00  0.00     0.055 C 
BRANCH  10  13
HETATM   13  C   UNL     1     -40.330 -46.005  11.377  1.00  0.00     0.374 C 
BRANCH  13  14
HETATM   14  C   UNL     1     -39.989 -44.863  10.412  1.00  0.00     0.243 C 
HETATM   15  N   UNL     1     -39.086 -45.160   9.433  1.00  0.00    -0.369 N 
HETATM   16  H   UNL     1     -38.831 -44.444   8.769  1.00  0.00     0.159 HD
HETATM   17  H   UNL     1     -38.763 -46.112   9.318  1.00  0.00     0.159 HD
HETATM   18  O   UNL     1     -40.427 -43.724  10.539  1.00  0.00    -0.272 OA
ENDBRANCH  13  14
ENDBRANCH  10  13
ENDBRANCH   1   7
BRANCH   4  19
HETATM   19  C   UNL     1     -45.337 -52.607  13.297  1.00  0.00     0.038 A 
HETATM   20  C   UNL     1     -46.461 -52.381  14.088  1.00  0.00     0.046 A 
HETATM   21  C   UNL     1     -47.056 -53.450  14.735  1.00  0.00     0.090 A 
HETATM   22  N   UNL     1     -46.607 -54.720  14.652  1.00  0.00    -0.375 N 
HETATM   23  C   UNL     1     -45.516 -54.921  13.888  1.00  0.00     0.090 A 
ATOM     24  HN  UNL     1     -47.069 -55.487  15.141  1.00  0.00     0.164 HD
HETATM   25  C   UNL     1     -44.851 -53.912  13.202  1.00  0.00     0.046 A 
ENDBRANCH   4  19
TORSDOF 4
ENDMDL
MODEL 2
REMARK VINA RESULT:      -5.6      3.942      7.833
REMARK  4 active torsions:
REMARK  status: ('A' for Active; 'I' for Inactive)
REMARK       I    between atoms: N_1  and  C_2 
REMARK    1  A    between atoms: C_2  and  C_4 
REMARK    2  A    between atoms: C_4  and  N_5 
REMARK    3  A    between atoms: C_8  and  N_11 
REMARK       I    between atoms: N_11  and  C_12 
REMARK       I    between atoms: C_12  and  N_14 
REMARK    4  A    between atoms: N_14  and  C_15 
ROOT
HETATM    1  N   UNL     1     -41.879 -50.799  11.975  1.00  0.00    -0.338 N 
HETATM    2  C   UNL     1     -42.467 -49.548  11.917  1.00  0.00     0.321 C 
HETATM    3  O   UNL     1     -43.177 -49.137  12.826  1.00  0.00    -0.247 OA
HETATM    4  N   UNL     1     -42.183 -48.876  10.749  1.00  0.00    -0.309 N 
HETATM    5  H   UNL     1     -41.102 -50.994  11.364  1.00  0.00     0.164 HD
HETATM    6  H   UNL     1     -41.569 -49.336  10.094  1.00  0.00     0.170 HD
ENDROOT
BRANCH   1   7
HETATM    7  C   UNL     1     -42.026 -51.588  13.201  1.00  0.00     0.089 C 
HETATM    8  C   UNL     1     -40.867 -51.340  14.175  1.00  0.00     0.055 C 
HETATM    9  C   UNL     1     -39.635 -52.187  13.857  1.00  0.00     0.275 C 
HETATM   10  N   UNL     1     -39.900 -53.627  13.701  1.00  0.00     0.097 N 
HETATM   11  C   UNL     1     -40.930 -53.833  12.669  1.00  0.00     0.275 C 
HETATM   12  C   UNL     1     -42.235 -53.074  12.909  1.00  0.00     0.055 C 
BRANCH  10  13
HETATM   13  C   UNL     1     -40.283 -54.287  14.979  1.00  0.00     0.374 C 
BRANCH  13  14
HETATM   14  C   UNL     1     -39.081 -54.873  15.729  1.00  0.00     0.243 C 
HETATM   15  N   UNL     1     -38.602 -54.124  16.764  1.00  0.00    -0.369 N 
HETATM   16  H   UNL     1     -37.814 -54.468  17.294  1.00  0.00     0.159 HD
HETATM   17  H   UNL     1     -39.098 -53.292  17.056  1.00  0.00     0.159 HD
HETATM   18  O   UNL     1     -38.519 -55.910  15.390  1.00  0.00    -0.272 OA
ENDBRANCH  13  14
ENDBRANCH  10  13
ENDBRANCH   1   7
BRANCH   4  19
HETATM   19  C   UNL     1     -42.667 -47.595  10.386  1.00  0.00     0.038 A 
HETATM   20  C   UNL     1     -42.180 -46.404  10.920  1.00  0.00     0.046 A 
HETATM   21  C   UNL     1     -42.719 -45.204  10.492  1.00  0.00     0.090 A 
HETATM   22  N   UNL     1     -43.707 -45.110   9.577  1.00  0.00    -0.375 N 
HETATM   23  C   UNL     1     -44.170 -46.270   9.075  1.00  0.00     0.090 A 
ATOM     24  HN  UNL     1     -44.083 -44.209   9.282  1.00  0.00     0.164 HD
HETATM   25  C   UNL     1     -43.694 -47.522   9.444  1.00  0.00     0.046 A 
ENDBRANCH   4  19
TORSDOF 4
ENDMDL
MODEL 3
REMARK VINA RESULT:      -5.3      4.559      6.367
REMARK  4 active torsions:
REMARK  status: ('A' for Active; 'I' for Inactive)
REMARK       I    between atoms: N_1  and  C_2 
REMARK    1  A    between atoms: C_2  and  C_4 
REMARK    2  A    between atoms: C_4  and  N_5 
REMARK    3  A    between atoms: C_8  and  N_11 
REMARK       I    between atoms: N_11  and  C_12 
REMARK       I    between atoms: C_12  and  N_14 
REMARK    4  A    between atoms: N_14  and  C_15 
ROOT
HETATM    1  N   UNL     1     -41.131 -49.522  11.334  1.00  0.00    -0.338 N 
HETATM    2  C   UNL     1     -42.228 -48.681  11.274  1.00  0.00     0.321 C 
HETATM    3  O   UNL     1     -42.843 -48.366  12.285  1.00  0.00    -0.247 OA
HETATM    4  N   UNL     1     -42.534 -48.292   9.989  1.00  0.00    -0.309 N 
HETATM    5  H   UNL     1     -40.497 -49.543  10.552  1.00  0.00     0.164 HD
HETATM    6  H   UNL     1     -41.928 -48.621   9.254  1.00  0.00     0.170 HD
ENDROOT
BRANCH   1   7
HETATM    7  C   UNL     1     -40.640 -49.944  12.649  1.00  0.00     0.089 C 
HETATM    8  C   UNL     1     -40.198 -48.746  13.498  1.00  0.00     0.055 C 
HETATM    9  C   UNL     1     -38.771 -48.293  13.185  1.00  0.00     0.275 C 
HETATM   10  N   UNL     1     -37.764 -49.368  13.213  1.00  0.00     0.097 N 
HETATM   11  C   UNL     1     -38.162 -50.446  12.293  1.00  0.00     0.275 C 
HETATM   12  C   UNL     1     -39.557 -51.017  12.544  1.00  0.00     0.055 C 
BRANCH  10  13
HETATM   13  C   UNL     1     -37.520 -49.896  14.583  1.00  0.00     0.374 C 
BRANCH  13  14
HETATM   14  C   UNL     1     -37.086 -48.808  15.572  1.00  0.00     0.243 C 
HETATM   15  N   UNL     1     -37.880 -48.651  16.671  1.00  0.00    -0.369 N 
HETATM   16  H   UNL     1     -37.636 -47.951  17.356  1.00  0.00     0.159 HD
HETATM   17  H   UNL     1     -38.638 -49.300  16.842  1.00  0.00     0.159 HD
HETATM   18  O   UNL     1     -36.135 -48.059  15.372  1.00  0.00    -0.272 OA
ENDBRANCH  13  14
ENDBRANCH  10  13
ENDBRANCH   1   7
BRANCH   4  19
HETATM   19  C   UNL     1     -43.618 -47.464   9.606  1.00  0.00     0.038 A 
HETATM   20  C   UNL     1     -44.931 -47.913   9.490  1.00  0.00     0.046 A 
HETATM   21  C   UNL     1     -45.919 -47.020   9.114  1.00  0.00     0.090 A 
HETATM   22  N   UNL     1     -45.687 -45.718   8.842  1.00  0.00    -0.375 N 
HETATM   23  C   UNL     1     -44.412 -45.301   8.952  1.00  0.00     0.090 A 
ATOM     24  HN  UNL     1     -46.438 -45.085   8.567  1.00  0.00     0.164 HD
HETATM   25  C   UNL     1     -43.354 -46.123   9.322  1.00  0.00     0.046 A 
ENDBRANCH   4  19
TORSDOF 4
ENDMDL
MODEL 4
REMARK VINA RESULT:      -5.3      2.006      8.476
REMARK  4 active torsions:
REMARK  status: ('A' for Active; 'I' for Inactive)
REMARK       I    between atoms: N_1  and  C_2 
REMARK    1  A    between atoms: C_2  and  C_4 
REMARK    2  A    between atoms: C_4  and  N_5 
REMARK    3  A    between atoms: C_8  and  N_11 
REMARK       I    between atoms: N_11  and  C_12 
REMARK       I    between atoms: C_12  and  N_14 
REMARK    4  A    between atoms: N_14  and  C_15 
ROOT
HETATM    1  N   UNL     1     -43.340 -49.551  12.389  1.00  0.00    -0.338 N 
HETATM    2  C   UNL     1     -42.569 -48.411  12.525  1.00  0.00     0.321 C 
HETATM    3  O   UNL     1     -42.026 -48.133  13.586  1.00  0.00    -0.247 OA
HETATM    4  N   UNL     1     -42.522 -47.657  11.373  1.00  0.00    -0.309 N 
HETATM    5  H   UNL     1     -43.540 -49.890  11.462  1.00  0.00     0.164 HD
HETATM    6  H   UNL     1     -43.009 -48.019  10.568  1.00  0.00     0.170 HD
ENDROOT
BRANCH   1   7
HETATM    7  C   UNL     1     -43.407 -50.492  13.512  1.00  0.00     0.089 C 
HETATM    8  C   UNL     1     -42.353 -51.598  13.384  1.00  0.00     0.055 C 
HETATM    9  C   UNL     1     -42.806 -52.747  12.483  1.00  0.00     0.275 C 
HETATM   10  N   UNL     1     -44.128 -53.305  12.814  1.00  0.00     0.097 N 
HETATM   11  C   UNL     1     -45.136 -52.232  12.806  1.00  0.00     0.275 C 
HETATM   12  C   UNL     1     -44.815 -51.047  13.716  1.00  0.00     0.055 C 
BRANCH  10  13
HETATM   13  C   UNL     1     -44.138 -54.040  14.109  1.00  0.00     0.374 C 
BRANCH  13  14
HETATM   14  C   UNL     1     -45.463 -54.765  14.372  1.00  0.00     0.243 C 
HETATM   15  N   UNL     1     -46.219 -54.271  15.395  1.00  0.00    -0.369 N 
HETATM   16  H   UNL     1     -47.103 -54.710  15.606  1.00  0.00     0.159 HD
HETATM   17  H   UNL     1     -45.941 -53.416  15.860  1.00  0.00     0.159 HD
HETATM   18  O   UNL     1     -45.807 -55.775  13.766  1.00  0.00    -0.272 OA
ENDBRANCH  13  14
ENDBRANCH  10  13
ENDBRANCH   1   7
BRANCH   4  19
HETATM   19  C   UNL     1     -41.844 -46.423  11.212  1.00  0.00     0.038 A 
HETATM   20  C   UNL     1     -42.424 -45.183  11.467  1.00  0.00     0.046 A 
HETATM   21  C   UNL     1     -41.671 -44.036  11.283  1.00  0.00     0.090 A 
HETATM   22  N   UNL     1     -40.389 -44.041  10.862  1.00  0.00    -0.375 N 
HETATM   23  C   UNL     1     -39.845 -45.248  10.614  1.00  0.00     0.090 A 
ATOM     24  HN  UNL     1     -39.861 -43.178  10.737  1.00  0.00     0.164 HD
HETATM   25  C   UNL     1     -40.521 -46.452  10.767  1.00  0.00     0.046 A 
ENDBRANCH   4  19
TORSDOF 4
ENDMDL
MODEL 5
REMARK VINA RESULT:      -5.2      2.012      2.382
REMARK  4 active torsions:
REMARK  status: ('A' for Active; 'I' for Inactive)
REMARK       I    between atoms: N_1  and  C_2 
REMARK    1  A    between atoms: C_2  and  C_4 
REMARK    2  A    between atoms: C_4  and  N_5 
REMARK    3  A    between atoms: C_8  and  N_11 
REMARK       I    between atoms: N_11  and  C_12 
REMARK       I    between atoms: C_12  and  N_14 
REMARK    4  A    between atoms: N_14  and  C_15 
ROOT
HETATM    1  N   UNL     1     -41.913 -49.403  12.174  1.00  0.00    -0.338 N 
HETATM    2  C   UNL     1     -42.500 -50.342  13.004  1.00  0.00     0.321 C 
HETATM    3  O   UNL     1     -42.768 -50.081  14.169  1.00  0.00    -0.247 OA
HETATM    4  N   UNL     1     -42.704 -51.553  12.380  1.00  0.00    -0.309 N 
HETATM    5  H   UNL     1     -41.956 -49.546  11.178  1.00  0.00     0.164 HD
HETATM    6  H   UNL     1     -42.444 -51.617  11.408  1.00  0.00     0.170 HD
ENDROOT
BRANCH   1   7
HETATM    7  C   UNL     1     -41.719 -48.041  12.681  1.00  0.00     0.089 C 
HETATM    8  C   UNL     1     -42.930 -47.149  12.384  1.00  0.00     0.055 C 
HETATM    9  C   UNL     1     -42.898 -46.557  10.975  1.00  0.00     0.275 C 
HETATM   10  N   UNL     1     -41.638 -45.881  10.620  1.00  0.00     0.097 N 
HETATM   11  C   UNL     1     -40.509 -46.808  10.801  1.00  0.00     0.275 C 
HETATM   12  C   UNL     1     -40.407 -47.426  12.195  1.00  0.00     0.055 C 
BRANCH  10  13
HETATM   13  C   UNL     1     -41.424 -44.620  11.381  1.00  0.00     0.374 C 
BRANCH  13  14
HETATM   14  C   UNL     1     -42.584 -43.630  11.232  1.00  0.00     0.243 C 
HETATM   15  N   UNL     1     -43.143 -43.187  12.396  1.00  0.00    -0.369 N 
HETATM   16  H   UNL     1     -43.908 -42.530  12.353  1.00  0.00     0.159 HD
HETATM   17  H   UNL     1     -42.724 -43.437  13.283  1.00  0.00     0.159 HD
HETATM   18  O   UNL     1     -43.051 -43.302  10.146  1.00  0.00    -0.272 OA
ENDBRANCH  13  14
ENDBRANCH  10  13
ENDBRANCH   1   7
BRANCH   4  19
HETATM   19  C   UNL     1     -43.252 -52.715  12.977  1.00  0.00     0.038 A 
HETATM   20  C   UNL     1     -42.545 -53.550  13.838  1.00  0.00     0.046 A 
HETATM   21  C   UNL     1     -43.177 -54.659  14.373  1.00  0.00     0.090 A 
HETATM   22  N   UNL     1     -44.457 -54.992  14.106  1.00  0.00    -0.375 N 
HETATM   23  C   UNL     1     -45.125 -54.178  13.268  1.00  0.00     0.090 A 
ATOM     24  HN  UNL     1     -44.894 -55.817  14.517  1.00  0.00     0.164 HD
HETATM   25  C   UNL     1     -44.576 -53.045  12.681  1.00  0.00     0.046 A 
ENDBRANCH   4  19
TORSDOF 4
ENDMDL
MODEL 6
REMARK VINA RESULT:      -5.1      3.567      9.146
REMARK  4 active torsions:
REMARK  status: ('A' for Active; 'I' for Inactive)
REMARK       I    between atoms: N_1  and  C_2 
REMARK    1  A    between atoms: C_2  and  C_4 
REMARK    2  A    between atoms: C_4  and  N_5 
REMARK    3  A    between atoms: C_8  and  N_11 
REMARK       I    between atoms: N_11  and  C_12 
REMARK       I    between atoms: C_12  and  N_14 
REMARK    4  A    between atoms: N_14  and  C_15 
ROOT
HETATM    1  N   UNL     1     -41.170 -45.882  11.858  1.00  0.00    -0.338 N 
HETATM    2  C   UNL     1     -40.802 -44.629  11.402  1.00  0.00     0.321 C 
HETATM    3  O   UNL     1     -39.975 -44.496  10.509  1.00  0.00    -0.247 OA
HETATM    4  N   UNL     1     -41.439 -43.608  12.072  1.00  0.00    -0.309 N 
HETATM    5  H   UNL     1     -42.026 -45.972  12.381  1.00  0.00     0.164 HD
HETATM    6  H   UNL     1     -42.109 -43.870  12.778  1.00  0.00     0.170 HD
ENDROOT
BRANCH   1   7
HETATM    7  C   UNL     1     -40.635 -47.064  11.175  1.00  0.00     0.089 C 
HETATM    8  C   UNL     1     -41.757 -47.969  10.651  1.00  0.00     0.055 C 
HETATM    9  C   UNL     1     -42.302 -48.916  11.720  1.00  0.00     0.275 C 
HETATM   10  N   UNL     1     -41.275 -49.697  12.432  1.00  0.00     0.097 N 
HETATM   11  C   UNL     1     -40.283 -48.787  13.026  1.00  0.00     0.275 C 
HETATM   12  C   UNL     1     -39.628 -47.822  12.038  1.00  0.00     0.055 C 
BRANCH  10  13
HETATM   13  C   UNL     1     -40.619 -50.714  11.566  1.00  0.00     0.374 C 
BRANCH  13  14
HETATM   14  C   UNL     1     -40.997 -52.151  11.944  1.00  0.00     0.243 C 
HETATM   15  N   UNL     1     -42.273 -52.530  11.645  1.00  0.00    -0.369 N 
HETATM   16  H   UNL     1     -42.571 -53.468  11.869  1.00  0.00     0.159 HD
HETATM   17  H   UNL     1     -42.871 -51.910  11.112  1.00  0.00     0.159 HD
HETATM   18  O   UNL     1     -40.242 -52.906  12.550  1.00  0.00    -0.272 OA
ENDBRANCH  13  14
ENDBRANCH  10  13
ENDBRANCH   1   7
BRANCH   4  19
HETATM   19  C   UNL     1     -41.244 -42.221  11.854  1.00  0.00     0.038 A 
HETATM   20  C   UNL     1     -40.251 -41.471  12.479  1.00  0.00     0.046 A 
HETATM   21  C   UNL     1     -40.143 -40.122  12.192  1.00  0.00     0.090 A 
HETATM   22  N   UNL     1     -40.955 -39.472  11.332  1.00  0.00    -0.375 N 
HETATM   23  C   UNL     1     -41.914 -40.210  10.740  1.00  0.00     0.090 A 
ATOM     24  HN  UNL     1     -40.849 -38.476  11.141  1.00  0.00     0.164 HD
HETATM   25  C   UNL     1     -42.101 -41.568  10.966  1.00  0.00     0.046 A 
ENDBRANCH   4  19
TORSDOF 4
ENDMDL
MODEL 7
REMARK VINA RESULT:      -5.1      7.299     10.347
REMARK  4 active torsions:
REMARK  status: ('A' for Active; 'I' for Inactive)
REMARK       I    between atoms: N_1  and  C_2 
REMARK    1  A    between atoms: C_2  and  C_4 
REMARK    2  A    between atoms: C_4  and  N_5 
REMARK    3  A    between atoms: C_8  and  N_11 
REMARK       I    between atoms: N_11  and  C_12 
REMARK       I    between atoms: C_12  and  N_14 
REMARK    4  A    between atoms: N_14  and  C_15 
ROOT
HETATM    1  N   UNL     1     -36.926 -48.377  16.579  1.00  0.00    -0.338 N 
HETATM    2  C   UNL     1     -35.785 -47.733  17.021  1.00  0.00     0.321 C 
HETATM    3  O   UNL     1     -34.745 -47.768  16.377  1.00  0.00    -0.247 OA
HETATM    4  N   UNL     1     -35.962 -47.105  18.235  1.00  0.00    -0.309 N 
HETATM    5  H   UNL     1     -37.814 -48.110  16.974  1.00  0.00     0.164 HD
HETATM    6  H   UNL     1     -36.882 -47.150  18.644  1.00  0.00     0.170 HD
ENDROOT
BRANCH   1   7
HETATM    7  C   UNL     1     -36.907 -49.012  15.258  1.00  0.00     0.089 C 
HETATM    8  C   UNL     1     -37.442 -48.072  14.171  1.00  0.00     0.055 C 
HETATM    9  C   UNL     1     -38.968 -48.082  14.078  1.00  0.00     0.275 C 
HETATM   10  N   UNL     1     -39.570 -49.421  13.969  1.00  0.00     0.097 N 
HETATM   11  C   UNL     1     -39.130 -50.258  15.097  1.00  0.00     0.275 C 
HETATM   12  C   UNL     1     -37.614 -50.367  15.259  1.00  0.00     0.055 C 
BRANCH  10  13
HETATM   13  C   UNL     1     -39.278 -50.082  12.667  1.00  0.00     0.374 C 
BRANCH  13  14
HETATM   14  C   UNL     1     -40.526 -50.255  11.793  1.00  0.00     0.243 C 
HETATM   15  N   UNL     1     -40.356 -50.024  10.459  1.00  0.00    -0.369 N 
HETATM   16  H   UNL     1     -41.146 -50.128   9.840  1.00  0.00     0.159 HD
HETATM   17  H   UNL     1     -39.429 -49.854  10.091  1.00  0.00     0.159 HD
HETATM   18  O   UNL     1     -41.636 -50.507  12.252  1.00  0.00    -0.272 OA
ENDBRANCH  13  14
ENDBRANCH  10  13
ENDBRANCH   1   7
BRANCH   4  19
HETATM   19  C   UNL     1     -34.971 -46.395  18.957  1.00  0.00     0.038 A 
HETATM   20  C   UNL     1     -33.782 -46.966  19.406  1.00  0.00     0.046 A 
HETATM   21  C   UNL     1     -32.877 -46.182  20.099  1.00  0.00     0.090 A 
HETATM   22  N   UNL     1     -33.076 -44.877  20.377  1.00  0.00    -0.375 N 
HETATM   23  C   UNL     1     -34.232 -44.341  19.942  1.00  0.00     0.090 A 
ATOM     24  HN  UNL     1     -32.388 -44.326  20.890  1.00  0.00     0.164 HD
HETATM   25  C   UNL     1     -35.201 -45.048  19.240  1.00  0.00     0.046 A 
ENDBRANCH   4  19
TORSDOF 4
ENDMDL
MODEL 8
REMARK VINA RESULT:      -4.9      4.828      7.261
REMARK  4 active torsions:
REMARK  status: ('A' for Active; 'I' for Inactive)
REMARK       I    between atoms: N_1  and  C_2 
REMARK    1  A    between atoms: C_2  and  C_4 
REMARK    2  A    between atoms: C_4  and  N_5 
REMARK    3  A    between atoms: C_8  and  N_11 
REMARK       I    between atoms: N_11  and  C_12 
REMARK       I    between atoms: C_12  and  N_14 
REMARK    4  A    between atoms: N_14  and  C_15 
ROOT
HETATM    1  N   UNL     1     -39.288 -47.569  13.259  1.00  0.00    -0.338 N 
HETATM    2  C   UNL     1     -38.848 -47.981  14.504  1.00  0.00     0.321 C 
HETATM    3  O   UNL     1     -39.621 -48.094  15.446  1.00  0.00    -0.247 OA
HETATM    4  N   UNL     1     -37.490 -48.206  14.544  1.00  0.00    -0.309 N 
HETATM    5  H   UNL     1     -38.703 -47.745  12.458  1.00  0.00     0.164 HD
HETATM    6  H   UNL     1     -36.980 -48.084  13.683  1.00  0.00     0.170 HD
ENDROOT
BRANCH   1   7
HETATM    7  C   UNL     1     -40.727 -47.378  13.050  1.00  0.00     0.089 C 
HETATM    8  C   UNL     1     -41.390 -48.644  12.496  1.00  0.00     0.055 C 
HETATM    9  C   UNL     1     -41.254 -48.767  10.978  1.00  0.00     0.275 C 
HETATM   10  N   UNL     1     -41.670 -47.573  10.223  1.00  0.00     0.097 N 
HETATM   11  C   UNL     1     -40.923 -46.398  10.700  1.00  0.00     0.275 C 
HETATM   12  C   UNL     1     -41.027 -46.142  12.203  1.00  0.00     0.055 C 
BRANCH  10  13
HETATM   13  C   UNL     1     -43.139 -47.334  10.283  1.00  0.00     0.374 C 
BRANCH  13  14
HETATM   14  C   UNL     1     -43.833 -47.553   8.933  1.00  0.00     0.243 C 
HETATM   15  N   UNL     1     -43.037 -48.001   7.920  1.00  0.00    -0.369 N 
HETATM   16  H   UNL     1     -43.446 -48.166   7.012  1.00  0.00     0.159 HD
HETATM   17  H   UNL     1     -42.077 -48.262   8.111  1.00  0.00     0.159 HD
HETATM   18  O   UNL     1     -45.011 -47.274   8.732  1.00  0.00    -0.272 OA
ENDBRANCH  13  14
ENDBRANCH  10  13
ENDBRANCH   1   7
BRANCH   4  19
HETATM   19  C   UNL     1     -36.744 -48.601  15.682  1.00  0.00     0.038 A 
HETATM   20  C   UNL     1     -36.307 -47.717  16.665  1.00  0.00     0.046 A 
HETATM   21  C   UNL     1     -35.589 -48.208  17.742  1.00  0.00     0.090 A 
HETATM   22  N   UNL     1     -35.275 -49.511  17.901  1.00  0.00    -0.375 N 
HETATM   23  C   UNL     1     -35.699 -50.351  16.939  1.00  0.00     0.090 A 
ATOM     24  HN  UNL     1     -34.744 -49.841  18.707  1.00  0.00     0.164 HD
HETATM   25  C   UNL     1     -36.424 -49.952  15.822  1.00  0.00     0.046 A 
ENDBRANCH   4  19
TORSDOF 4
ENDMDL
MODEL 9
REMARK VINA RESULT:      -4.9      4.775      6.920
REMARK  4 active torsions:
REMARK  status: ('A' for Active; 'I' for Inactive)
REMARK       I    between atoms: N_1  and  C_2 
REMARK    1  A    between atoms: C_2  and  C_4 
REMARK    2  A    between atoms: C_4  and  N_5 
REMARK    3  A    between atoms: C_8  and  N_11 
REMARK       I    between atoms: N_11  and  C_12 
REMARK       I    between atoms: C_12  and  N_14 
REMARK    4  A    between atoms: N_14  and  C_15 
ROOT
HETATM    1  N   UNL     1     -40.459 -48.098  12.808  1.00  0.00    -0.338 N 
HETATM    2  C   UNL     1     -41.576 -47.406  12.374  1.00  0.00     0.321 C 
HETATM    3  O   UNL     1     -42.215 -46.689  13.133  1.00  0.00    -0.247 OA
HETATM    4  N   UNL     1     -41.869 -47.643  11.049  1.00  0.00    -0.309 N 
HETATM    5  H   UNL     1     -39.811 -48.448  12.121  1.00  0.00     0.164 HD
HETATM    6  H   UNL     1     -41.243 -48.248  10.542  1.00  0.00     0.170 HD
ENDROOT
BRANCH   1   7
HETATM    7  C   UNL     1     -39.980 -47.871  14.175  1.00  0.00     0.089 C 
HETATM    8  C   UNL     1     -38.724 -46.991  14.194  1.00  0.00     0.055 C 
HETATM    9  C   UNL     1     -37.441 -47.785  13.948  1.00  0.00     0.275 C 
HETATM   10  N   UNL     1     -37.276 -48.970  14.807  1.00  0.00     0.097 N 
HETATM   11  C   UNL     1     -38.446 -49.851  14.669  1.00  0.00     0.275 C 
HETATM   12  C   UNL     1     -39.790 -49.177  14.944  1.00  0.00     0.055 C 
BRANCH  10  13
HETATM   13  C   UNL     1     -37.034 -48.620  16.234  1.00  0.00     0.374 C 
BRANCH  13  14
HETATM   14  C   UNL     1     -35.608 -48.943  16.693  1.00  0.00     0.243 C 
HETATM   15  N   UNL     1     -35.245 -50.257  16.631  1.00  0.00    -0.369 N 
HETATM   16  H   UNL     1     -34.314 -50.522  16.918  1.00  0.00     0.159 HD
HETATM   17  H   UNL     1     -35.868 -50.932  16.205  1.00  0.00     0.159 HD
HETATM   18  O   UNL     1     -34.848 -48.103  17.165  1.00  0.00    -0.272 OA
ENDBRANCH  13  14
ENDBRANCH  10  13
ENDBRANCH   1   7
BRANCH   4  19
HETATM   19  C   UNL     1     -42.967 -47.107  10.331  1.00  0.00     0.038 A 
HETATM   20  C   UNL     1     -42.930 -45.890   9.655  1.00  0.00     0.046 A 
HETATM   21  C   UNL     1     -44.057 -45.460   8.978  1.00  0.00     0.090 A 
HETATM   22  N   UNL     1     -45.214 -46.154   8.933  1.00  0.00    -0.375 N 
HETATM   23  C   UNL     1     -45.236 -47.325   9.596  1.00  0.00     0.090 A 
ATOM     24  HN  UNL     1     -46.028 -45.809   8.424  1.00  0.00     0.164 HD
HETATM   25  C   UNL     1     -44.156 -47.838  10.305  1.00  0.00     0.046 A 
ENDBRANCH   4  19
TORSDOF 4
ENDMDL
