MODEL 1
REMARK VINA RESULT:      -6.7      0.000      0.000
REMARK  5 active torsions:
REMARK  status: ('A' for Active; 'I' for Inactive)
REMARK    1  A    between atoms: C_2  and  N_3 
REMARK    2  A    between atoms: C_2  and  C_17 
REMARK       I    between atoms: N_3  and  C_4 
REMARK    3  A    between atoms: C_4  and  C_6 
REMARK    4  A    between atoms: C_6  and  N_7 
REMARK    5  A    between atoms: C_9  and  N_14 
ROOT
HETATM    1  N   UNL     1     -44.744 -52.053  12.726  1.00  0.00    -0.355 N 
HETATM    2  C   UNL     1     -43.984 -53.158  12.394  1.00  0.00     0.236 C 
HETATM    3  O   UNL     1     -44.429 -54.302  12.328  1.00  0.00    -0.272 OA
HETATM    4  H   UNL     1     -44.260 -51.175  12.916  1.00  0.00     0.162 HD
ENDROOT
BRANCH   2   5
HETATM    5  C   UNL     1     -42.512 -52.866  12.124  1.00  0.00     0.234 C 
BRANCH   5   6
HETATM    6  N   UNL     1     -41.654 -53.328  13.210  1.00  0.00    -0.314 N 
HETATM    7  C   UNL     1     -42.172 -54.170  14.191  1.00  0.00     0.130 A 
HETATM    8  C   UNL     1     -41.383 -54.651  15.167  1.00  0.00     0.118 A 
HETATM    9  C   UNL     1     -39.977 -54.301  15.206  1.00  0.00     0.043 A 
HETATM   10  C   UNL     1     -39.463 -53.471  14.288  1.00  0.00     0.077 A 
HETATM   11  C   UNL     1     -40.329 -52.897  13.218  1.00  0.00     0.247 A 
HETATM   12  O   UNL     1     -39.861 -52.095  12.416  1.00  0.00    -0.268 OA
BRANCH   8  13
HETATM   13  N   UNL     1     -41.971 -55.554  16.156  1.00  0.00    -0.114 N 
HETATM   14  O   UNL     1     -41.378 -55.671  17.237  1.00  0.00    -0.532 OA
HETATM   15  O   UNL     1     -43.014 -56.155  15.861  1.00  0.00    -0.532 OA
ENDBRANCH   8  13
ENDBRANCH   5   6
ENDBRANCH   2   5
BRANCH   1  16
HETATM   16  C   UNL     1     -46.181 -52.141  12.973  1.00  0.00     0.084 C 
HETATM   17  C   UNL     1     -46.939 -51.542  11.786  1.00  0.00     0.032 C 
BRANCH  16  18
HETATM   18  C   UNL     1     -46.597 -51.457  14.296  1.00  0.00     0.012 C 
HETATM   19  C   UNL     1     -45.440 -50.804  15.092  1.00  0.00     0.011 C 
HETATM   20  C   UNL     1     -45.481 -51.537  16.440  1.00  0.00    -0.014 C 
HETATM   21  C   UNL     1     -45.067 -53.006  16.223  1.00  0.00     0.005 C 
HETATM   22  C   UNL     1     -46.986 -51.639  16.669  1.00  0.00     0.010 C 
HETATM   23  C   UNL     1     -46.330 -53.636  15.618  1.00  0.00     0.005 C 
HETATM   24  C   UNL     1     -47.223 -52.410  15.366  1.00  0.00    -0.008 C 
ENDBRANCH  16  18
ENDBRANCH   1  16
TORSDOF 5
ENDMDL
MODEL 2
REMARK VINA RESULT:      -6.5      4.670      6.197
REMARK  5 active torsions:
REMARK  status: ('A' for Active; 'I' for Inactive)
REMARK    1  A    between atoms: C_2  and  N_3 
REMARK    2  A    between atoms: C_2  and  C_17 
REMARK       I    between atoms: N_3  and  C_4 
REMARK    3  A    between atoms: C_4  and  C_6 
REMARK    4  A    between atoms: C_6  and  N_7 
REMARK    5  A    between atoms: C_9  and  N_14 
ROOT
HETATM    1  N   UNL     1     -41.816 -49.095  10.912  1.00  0.00    -0.355 N 
HETATM    2  C   UNL     1     -41.497 -49.911  11.981  1.00  0.00     0.236 C 
HETATM    3  O   UNL     1     -41.619 -49.578  13.158  1.00  0.00    -0.272 OA
HETATM    4  H   UNL     1     -41.530 -49.391   9.979  1.00  0.00     0.162 HD
ENDROOT
BRANCH   2   5
HETATM    5  C   UNL     1     -40.951 -51.283  11.600  1.00  0.00     0.234 C 
BRANCH   5   6
HETATM    6  N   UNL     1     -41.544 -52.350  12.400  1.00  0.00    -0.314 N 
HETATM    7  C   UNL     1     -42.905 -52.625  12.287  1.00  0.00     0.130 A 
HETATM    8  C   UNL     1     -43.457 -53.640  12.973  1.00  0.00     0.118 A 
HETATM    9  C   UNL     1     -42.638 -54.467  13.836  1.00  0.00     0.043 A 
HETATM   10  C   UNL     1     -41.331 -54.203  13.981  1.00  0.00     0.077 A 
HETATM   11  C   UNL     1     -40.706 -53.059  13.258  1.00  0.00     0.247 A 
HETATM   12  O   UNL     1     -39.522 -52.793  13.440  1.00  0.00    -0.268 OA
BRANCH   8  13
HETATM   13  N   UNL     1     -44.885 -53.905  12.796  1.00  0.00    -0.114 N 
HETATM   14  O   UNL     1     -45.320 -54.974  13.244  1.00  0.00    -0.532 OA
HETATM   15  O   UNL     1     -45.573 -53.059  12.207  1.00  0.00    -0.532 OA
ENDBRANCH   8  13
ENDBRANCH   5   6
ENDBRANCH   2   5
BRANCH   1  16
HETATM   16  C   UNL     1     -42.392 -47.766  11.092  1.00  0.00     0.084 C 
HETATM   17  C   UNL     1     -43.738 -47.692  10.366  1.00  0.00     0.032 C 
BRANCH  16  18
HETATM   18  C   UNL     1     -41.445 -46.641  10.613  1.00  0.00     0.012 C 
HETATM   19  C   UNL     1     -40.031 -46.656  11.246  1.00  0.00     0.011 C 
HETATM   20  C   UNL     1     -39.938 -45.288  11.935  1.00  0.00    -0.014 C 
HETATM   21  C   UNL     1     -40.929 -45.253  13.116  1.00  0.00     0.005 C 
HETATM   22  C   UNL     1     -40.615 -44.395  10.899  1.00  0.00     0.010 C 
HETATM   23  C   UNL     1     -42.282 -45.035  12.426  1.00  0.00     0.005 C 
HETATM   24  C   UNL     1     -41.925 -45.189  10.938  1.00  0.00    -0.008 C 
ENDBRANCH  16  18
ENDBRANCH   1  16
TORSDOF 5
ENDMDL
MODEL 3
REMARK VINA RESULT:      -6.4      2.954      5.123
REMARK  5 active torsions:
REMARK  status: ('A' for Active; 'I' for Inactive)
REMARK    1  A    between atoms: C_2  and  N_3 
REMARK    2  A    between atoms: C_2  and  C_17 
REMARK       I    between atoms: N_3  and  C_4 
REMARK    3  A    between atoms: C_4  and  C_6 
REMARK    4  A    between atoms: C_6  and  N_7 
REMARK    5  A    between atoms: C_9  and  N_14 
ROOT
HETATM    1  N   UNL     1     -42.568 -53.453  13.504  1.00  0.00    -0.355 N 
HETATM    2  C   UNL     1     -41.451 -52.651  13.637  1.00  0.00     0.236 C 
HETATM    3  O   UNL     1     -41.157 -52.050  14.669  1.00  0.00    -0.272 OA
HETATM    4  H   UNL     1     -42.819 -53.778  12.571  1.00  0.00     0.162 HD
ENDROOT
BRANCH   2   5
HETATM    5  C   UNL     1     -40.589 -52.539  12.384  1.00  0.00     0.234 C 
BRANCH   5   6
HETATM    6  N   UNL     1     -40.079 -51.186  12.189  1.00  0.00    -0.314 N 
HETATM    7  C   UNL     1     -40.895 -50.214  11.617  1.00  0.00     0.130 A 
HETATM    8  C   UNL     1     -40.462 -48.949  11.482  1.00  0.00     0.118 A 
HETATM    9  C   UNL     1     -39.136 -48.581  11.937  1.00  0.00     0.043 A 
HETATM   10  C   UNL     1     -38.323 -49.507  12.464  1.00  0.00     0.077 A 
HETATM   11  C   UNL     1     -38.771 -50.923  12.591  1.00  0.00     0.247 A 
HETATM   12  O   UNL     1     -37.999 -51.773  13.024  1.00  0.00    -0.268 OA
BRANCH   8  13
HETATM   13  N   UNL     1     -41.370 -47.960  10.902  1.00  0.00    -0.114 N 
HETATM   14  O   UNL     1     -40.893 -46.853  10.619  1.00  0.00    -0.532 OA
HETATM   15  O   UNL     1     -42.557 -48.275  10.734  1.00  0.00    -0.532 OA
ENDBRANCH   8  13
ENDBRANCH   5   6
ENDBRANCH   2   5
BRANCH   1  16
HETATM   16  C   UNL     1     -43.480 -53.709  14.616  1.00  0.00     0.084 C 
HETATM   17  C   UNL     1     -43.392 -55.182  15.018  1.00  0.00     0.032 C 
BRANCH  16  18
HETATM   18  C   UNL     1     -44.939 -53.312  14.288  1.00  0.00     0.012 C 
HETATM   19  C   UNL     1     -45.201 -52.931  12.810  1.00  0.00     0.011 C 
HETATM   20  C   UNL     1     -45.721 -51.490  12.905  1.00  0.00    -0.014 C 
HETATM   21  C   UNL     1     -44.575 -50.574  13.381  1.00  0.00     0.005 C 
HETATM   22  C   UNL     1     -46.614 -51.585  14.139  1.00  0.00     0.010 C 
HETATM   23  C   UNL     1     -44.508 -50.859  14.888  1.00  0.00     0.005 C 
HETATM   24  C   UNL     1     -45.467 -52.050  15.043  1.00  0.00    -0.008 C 
ENDBRANCH  16  18
ENDBRANCH   1  16
TORSDOF 5
ENDMDL
MODEL 4
REMARK VINA RESULT:      -6.3      4.916      7.326
REMARK  5 active torsions:
REMARK  status: ('A' for Active; 'I' for Inactive)
REMARK    1  A    between atoms: C_2  and  N_3 
REMARK    2  A    between atoms: C_2  and  C_17 
REMARK       I    between atoms: N_3  and  C_4 
REMARK    3  A    between atoms: C_4  and  C_6 
REMARK    4  A    between atoms: C_6  and  N_7 
REMARK    5  A    between atoms: C_9  and  N_14 
ROOT
HETATM    1  N   UNL     1     -42.999 -49.874  12.600  1.00  0.00    -0.355 N 
HETATM    2  C   UNL     1     -42.794 -48.529  12.358  1.00  0.00     0.236 C 
HETATM    3  O   UNL     1     -43.048 -47.640  13.169  1.00  0.00    -0.272 OA
HETATM    4  H   UNL     1     -42.915 -50.522  11.816  1.00  0.00     0.162 HD
ENDROOT
BRANCH   2   5
HETATM    5  C   UNL     1     -42.234 -48.203  10.977  1.00  0.00     0.234 C 
BRANCH   5   6
HETATM    6  N   UNL     1     -43.153 -47.386  10.192  1.00  0.00    -0.314 N 
HETATM    7  C   UNL     1     -44.368 -47.922   9.771  1.00  0.00     0.130 A 
HETATM    8  C   UNL     1     -45.251 -47.166   9.096  1.00  0.00     0.118 A 
HETATM    9  C   UNL     1     -44.950 -45.780   8.802  1.00  0.00     0.043 A 
HETATM   10  C   UNL     1     -43.774 -45.252   9.173  1.00  0.00     0.077 A 
HETATM   11  C   UNL     1     -42.765 -46.082   9.892  1.00  0.00     0.247 A 
HETATM   12  O   UNL     1     -41.672 -45.605  10.178  1.00  0.00    -0.268 OA
BRANCH   8  13
HETATM   13  N   UNL     1     -46.525 -47.769   8.702  1.00  0.00    -0.114 N 
HETATM   14  O   UNL     1     -46.479 -48.719   7.909  1.00  0.00    -0.532 OA
HETATM   15  O   UNL     1     -47.571 -47.297   9.170  1.00  0.00    -0.532 OA
ENDBRANCH   8  13
ENDBRANCH   5   6
ENDBRANCH   2   5
BRANCH   1  16
HETATM   16  C   UNL     1     -43.488 -50.369  13.883  1.00  0.00     0.084 C 
HETATM   17  C   UNL     1     -42.408 -50.172  14.949  1.00  0.00     0.032 C 
BRANCH  16  18
HETATM   18  C   UNL     1     -43.934 -51.849  13.816  1.00  0.00     0.012 C 
HETATM   19  C   UNL     1     -44.647 -52.263  12.505  1.00  0.00     0.011 C 
HETATM   20  C   UNL     1     -46.020 -52.749  12.989  1.00  0.00    -0.014 C 
HETATM   21  C   UNL     1     -46.812 -51.545  13.538  1.00  0.00     0.005 C 
HETATM   22  C   UNL     1     -45.630 -53.504  14.255  1.00  0.00     0.010 C 
HETATM   23  C   UNL     1     -46.185 -51.320  14.921  1.00  0.00     0.005 C 
HETATM   24  C   UNL     1     -44.979 -52.274  14.897  1.00  0.00    -0.008 C 
ENDBRANCH  16  18
ENDBRANCH   1  16
TORSDOF 5
ENDMDL
MODEL 5
REMARK VINA RESULT:      -6.1      4.073      6.323
REMARK  5 active torsions:
REMARK  status: ('A' for Active; 'I' for Inactive)
REMARK    1  A    between atoms: C_2  and  N_3 
REMARK    2  A    between atoms: C_2  and  C_17 
REMARK       I    between atoms: N_3  and  C_4 
REMARK    3  A    between atoms: C_4  and  C_6 
REMARK    4  A    between atoms: C_6  and  N_7 
REMARK    5  A    between atoms: C_9  and  N_14 
ROOT
HETATM    1  N   UNL     1     -41.337 -52.494  12.922  1.00  0.00    -0.355 N 
HETATM    2  C   UNL     1     -41.349 -51.124  12.741  1.00  0.00     0.236 C 
HETATM    3  O   UNL     1     -42.020 -50.348  13.420  1.00  0.00    -0.272 OA
HETATM    4  H   UNL     1     -40.882 -53.068  12.213  1.00  0.00     0.162 HD
ENDROOT
BRANCH   2   5
HETATM    5  C   UNL     1     -40.468 -50.619  11.603  1.00  0.00     0.234 C 
BRANCH   5   6
HETATM    6  N   UNL     1     -40.566 -49.173  11.435  1.00  0.00    -0.314 N 
HETATM    7  C   UNL     1     -41.580 -48.634  10.646  1.00  0.00     0.130 A 
HETATM    8  C   UNL     1     -41.719 -47.303  10.525  1.00  0.00     0.118 A 
HETATM    9  C   UNL     1     -40.815 -46.410  11.222  1.00  0.00     0.043 A 
HETATM   10  C   UNL     1     -39.815 -46.906  11.964  1.00  0.00     0.077 A 
HETATM   11  C   UNL     1     -39.620 -48.380  12.082  1.00  0.00     0.247 A 
HETATM   12  O   UNL     1     -38.669 -48.823  12.718  1.00  0.00    -0.268 OA
BRANCH   8  13
HETATM   13  N   UNL     1     -42.819 -46.789   9.709  1.00  0.00    -0.114 N 
HETATM   14  O   UNL     1     -42.751 -45.606   9.351  1.00  0.00    -0.532 OA
HETATM   15  O   UNL     1     -43.754 -47.553   9.429  1.00  0.00    -0.532 OA
ENDBRANCH   8  13
ENDBRANCH   5   6
ENDBRANCH   2   5
BRANCH   1  16
HETATM   16  C   UNL     1     -42.086 -53.145  13.993  1.00  0.00     0.084 C 
HETATM   17  C   UNL     1     -41.117 -53.902  14.904  1.00  0.00     0.032 C 
BRANCH  16  18
HETATM   18  C   UNL     1     -43.189 -54.086  13.455  1.00  0.00     0.012 C 
HETATM   19  C   UNL     1     -44.232 -53.417  12.527  1.00  0.00     0.011 C 
HETATM   20  C   UNL     1     -45.560 -53.656  13.257  1.00  0.00    -0.014 C 
HETATM   21  C   UNL     1     -45.569 -52.836  14.563  1.00  0.00     0.005 C 
HETATM   22  C   UNL     1     -45.363 -55.085  13.756  1.00  0.00     0.010 C 
HETATM   23  C   UNL     1     -44.677 -53.665  15.498  1.00  0.00     0.005 C 
HETATM   24  C   UNL     1     -44.101 -54.729  14.550  1.00  0.00    -0.008 C 
ENDBRANCH  16  18
ENDBRANCH   1  16
TORSDOF 5
ENDMDL
MODEL 6
REMARK VINA RESULT:      -6.0      3.063      5.497
REMARK  5 active torsions:
REMARK  status: ('A' for Active; 'I' for Inactive)
REMARK    1  A    between atoms: C_2  and  N_3 
REMARK    2  A    between atoms: C_2  and  C_17 
REMARK       I    between atoms: N_3  and  C_4 
REMARK    3  A    between atoms: C_4  and  C_6 
REMARK    4  A    between atoms: C_6  and  N_7 
REMARK    5  A    between atoms: C_9  and  N_14 
ROOT
HETATM    1  N   UNL     1     -41.921 -50.435  11.785  1.00  0.00    -0.355 N 
HETATM    2  C   UNL     1     -42.694 -50.947  12.810  1.00  0.00     0.236 C 
HETATM    3  O   UNL     1     -42.947 -50.337  13.848  1.00  0.00    -0.272 OA
HETATM    4  H   UNL     1     -41.630 -51.068  11.041  1.00  0.00     0.162 HD
ENDROOT
BRANCH   2   5
HETATM    5  C   UNL     1     -43.212 -52.362  12.578  1.00  0.00     0.234 C 
BRANCH   5   6
HETATM    6  N   UNL     1     -42.649 -53.315  13.529  1.00  0.00    -0.314 N 
HETATM    7  C   UNL     1     -41.282 -53.579  13.518  1.00  0.00     0.130 A 
HETATM    8  C   UNL     1     -40.737 -54.410  14.423  1.00  0.00     0.118 A 
HETATM    9  C   UNL     1     -41.570 -55.039  15.428  1.00  0.00     0.043 A 
HETATM   10  C   UNL     1     -42.893 -54.821  15.441  1.00  0.00     0.077 A 
HETATM   11  C   UNL     1     -43.523 -53.930  14.423  1.00  0.00     0.247 A 
HETATM   12  O   UNL     1     -44.740 -53.782  14.410  1.00  0.00    -0.268 OA
BRANCH   8  13
HETATM   13  N   UNL     1     -39.292 -54.630  14.385  1.00  0.00    -0.114 N 
HETATM   14  O   UNL     1     -38.631 -53.910  13.624  1.00  0.00    -0.532 OA
HETATM   15  O   UNL     1     -38.811 -55.520  15.100  1.00  0.00    -0.532 OA
ENDBRANCH   8  13
ENDBRANCH   5   6
ENDBRANCH   2   5
BRANCH   1  16
HETATM   16  C   UNL     1     -41.380 -49.079  11.819  1.00  0.00     0.084 C 
HETATM   17  C   UNL     1     -41.887 -48.298  10.605  1.00  0.00     0.032 C 
BRANCH  16  18
HETATM   18  C   UNL     1     -39.835 -49.060  11.883  1.00  0.00     0.012 C 
HETATM   19  C   UNL     1     -39.163 -50.452  11.983  1.00  0.00     0.011 C 
HETATM   20  C   UNL     1     -38.377 -50.369  13.299  1.00  0.00    -0.014 C 
HETATM   21  C   UNL     1     -39.374 -50.296  14.473  1.00  0.00     0.005 C 
HETATM   22  C   UNL     1     -37.836 -48.945  13.225  1.00  0.00     0.010 C 
HETATM   23  C   UNL     1     -39.847 -48.836  14.435  1.00  0.00     0.005 C 
HETATM   24  C   UNL     1     -39.233 -48.323  13.122  1.00  0.00    -0.008 C 
ENDBRANCH  16  18
ENDBRANCH   1  16
TORSDOF 5
ENDMDL
MODEL 7
REMARK VINA RESULT:      -5.9      2.689      4.374
REMARK  5 active torsions:
REMARK  status: ('A' for Active; 'I' for Inactive)
REMARK    1  A    between atoms: C_2  and  N_3 
REMARK    2  A    between atoms: C_2  and  C_17 
REMARK       I    between atoms: N_3  and  C_4 
REMARK    3  A    between atoms: C_4  and  C_6 
REMARK    4  A    between atoms: C_6  and  N_7 
REMARK    5  A    between atoms: C_9  and  N_14 
ROOT
HETATM    1  N   UNL     1     -42.239 -51.473  14.189  1.00  0.00    -0.355 N 
HETATM    2  C   UNL     1     -41.701 -52.744  14.117  1.00  0.00     0.236 C 
HETATM    3  O   UNL     1     -42.078 -53.605  13.324  1.00  0.00    -0.272 OA
HETATM    4  H   UNL     1     -41.980 -50.884  14.980  1.00  0.00     0.162 HD
ENDROOT
BRANCH   2   5
HETATM    5  C   UNL     1     -40.593 -53.029  15.125  1.00  0.00     0.234 C 
BRANCH   5   6
HETATM    6  N   UNL     1     -39.470 -52.108  14.980  1.00  0.00    -0.314 N 
HETATM    7  C   UNL     1     -38.840 -51.973  13.745  1.00  0.00     0.130 A 
HETATM    8  C   UNL     1     -37.842 -51.089  13.578  1.00  0.00     0.118 A 
HETATM    9  C   UNL     1     -37.412 -50.259  14.685  1.00  0.00     0.043 A 
HETATM   10  C   UNL     1     -37.985 -50.391  15.890  1.00  0.00     0.077 A 
HETATM   11  C   UNL     1     -39.070 -51.391  16.106  1.00  0.00     0.247 A 
HETATM   12  O   UNL     1     -39.549 -51.543  17.225  1.00  0.00    -0.268 OA
BRANCH   8  13
HETATM   13  N   UNL     1     -37.234 -50.967  12.254  1.00  0.00    -0.114 N 
HETATM   14  O   UNL     1     -37.348 -49.876  11.679  1.00  0.00    -0.532 OA
HETATM   15  O   UNL     1     -36.652 -51.952  11.778  1.00  0.00    -0.532 OA
ENDBRANCH   8  13
ENDBRANCH   5   6
ENDBRANCH   2   5
BRANCH   1  16
HETATM   16  C   UNL     1     -43.278 -51.014  13.271  1.00  0.00     0.084 C 
HETATM   17  C   UNL     1     -42.797 -49.754  12.546  1.00  0.00     0.032 C 
BRANCH  16  18
HETATM   18  C   UNL     1     -44.627 -50.760  13.983  1.00  0.00     0.012 C 
HETATM   19  C   UNL     1     -44.744 -51.360  15.406  1.00  0.00     0.011 C 
HETATM   20  C   UNL     1     -45.945 -52.308  15.291  1.00  0.00    -0.014 C 
HETATM   21  C   UNL     1     -45.569 -53.483  14.366  1.00  0.00     0.005 C 
HETATM   22  C   UNL     1     -46.886 -51.480  14.421  1.00  0.00     0.010 C 
HETATM   23  C   UNL     1     -45.670 -52.867  12.964  1.00  0.00     0.005 C 
HETATM   24  C   UNL     1     -45.876 -51.375  13.273  1.00  0.00    -0.008 C 
ENDBRANCH  16  18
ENDBRANCH   1  16
TORSDOF 5
ENDMDL
MODEL 8
REMARK VINA RESULT:      -5.9      3.550      5.805
REMARK  5 active torsions:
REMARK  status: ('A' for Active; 'I' for Inactive)
REMARK    1  A    between atoms: C_2  and  N_3 
REMARK    2  A    between atoms: C_2  and  C_17 
REMARK       I    between atoms: N_3  and  C_4 
REMARK    3  A    between atoms: C_4  and  C_6 
REMARK    4  A    between atoms: C_6  and  N_7 
REMARK    5  A    between atoms: C_9  and  N_14 
ROOT
HETATM    1  N   UNL     1     -40.635 -50.951  11.303  1.00  0.00    -0.355 N 
HETATM    2  C   UNL     1     -40.566 -51.739  12.436  1.00  0.00     0.236 C 
HETATM    3  O   UNL     1     -40.188 -51.330  13.533  1.00  0.00    -0.272 OA
HETATM    4  H   UNL     1     -40.801 -51.410  10.407  1.00  0.00     0.162 HD
ENDROOT
BRANCH   2   5
HETATM    5  C   UNL     1     -40.981 -53.192  12.233  1.00  0.00     0.234 C 
BRANCH   5   6
HETATM    6  N   UNL     1     -42.087 -53.573  13.106  1.00  0.00    -0.314 N 
HETATM    7  C   UNL     1     -43.385 -53.183  12.788  1.00  0.00     0.130 A 
HETATM    8  C   UNL     1     -44.423 -53.573  13.549  1.00  0.00     0.118 A 
HETATM    9  C   UNL     1     -44.200 -54.411  14.710  1.00  0.00     0.043 A 
HETATM   10  C   UNL     1     -42.955 -54.774  15.051  1.00  0.00     0.077 A 
HETATM   11  C   UNL     1     -41.787 -54.324  14.241  1.00  0.00     0.247 A 
HETATM   12  O   UNL     1     -40.649 -54.617  14.593  1.00  0.00    -0.268 OA
BRANCH   8  13
HETATM   13  N   UNL     1     -45.769 -53.160  13.154  1.00  0.00    -0.114 N 
HETATM   14  O   UNL     1     -45.944 -52.870  11.963  1.00  0.00    -0.532 OA
HETATM   15  O   UNL     1     -46.651 -53.115  14.023  1.00  0.00    -0.532 OA
ENDBRANCH   8  13
ENDBRANCH   5   6
ENDBRANCH   2   5
BRANCH   1  16
HETATM   16  C   UNL     1     -40.318 -49.526  11.324  1.00  0.00     0.084 C 
HETATM   17  C   UNL     1     -38.854 -49.336  11.729  1.00  0.00     0.032 C 
BRANCH  16  18
HETATM   18  C   UNL     1     -41.257 -48.724  12.255  1.00  0.00     0.012 C 
HETATM   19  C   UNL     1     -42.770 -48.891  11.966  1.00  0.00     0.011 C 
HETATM   20  C   UNL     1     -43.231 -47.458  11.663  1.00  0.00    -0.014 C 
HETATM   21  C   UNL     1     -42.595 -46.999  10.336  1.00  0.00     0.005 C 
HETATM   22  C   UNL     1     -42.441 -46.673  12.706  1.00  0.00     0.010 C 
HETATM   23  C   UNL     1     -41.154 -46.660  10.740  1.00  0.00     0.005 C 
HETATM   24  C   UNL     1     -41.088 -47.172  12.189  1.00  0.00    -0.008 C 
ENDBRANCH  16  18
ENDBRANCH   1  16
TORSDOF 5
ENDMDL
MODEL 9
REMARK VINA RESULT:      -5.8      1.783      4.004
REMARK  5 active torsions:
REMARK  status: ('A' for Active; 'I' for Inactive)
REMARK    1  A    between atoms: C_2  and  N_3 
REMARK    2  A    between atoms: C_2  and  C_17 
REMARK       I    between atoms: N_3  and  C_4 
REMARK    3  A    between atoms: C_4  and  C_6 
REMARK    4  A    between atoms: C_6  and  N_7 
REMARK    5  A    between atoms: C_9  and  N_14 
ROOT
HETATM    1  N   UNL     1     -44.587 -54.205  16.560  1.00  0.00    -0.355 N 
HETATM    2  C   UNL     1     -43.244 -54.174  16.882  1.00  0.00     0.236 C 
HETATM    3  O   UNL     1     -42.705 -53.251  17.490  1.00  0.00    -0.272 OA
HETATM    4  H   UNL     1     -44.911 -54.926  15.916  1.00  0.00     0.162 HD
ENDROOT
BRANCH   2   5
HETATM    5  C   UNL     1     -42.442 -55.381  16.406  1.00  0.00     0.234 C 
BRANCH   5   6
HETATM    6  N   UNL     1     -41.274 -54.989  15.624  1.00  0.00    -0.314 N 
HETATM    7  C   UNL     1     -41.423 -54.129  14.540  1.00  0.00     0.130 A 
HETATM    8  C   UNL     1     -40.352 -53.712  13.843  1.00  0.00     0.118 A 
HETATM    9  C   UNL     1     -39.023 -54.152  14.219  1.00  0.00     0.043 A 
HETATM   10  C   UNL     1     -38.859 -55.003  15.242  1.00  0.00     0.077 A 
HETATM   11  C   UNL     1     -40.037 -55.505  16.005  1.00  0.00     0.247 A 
HETATM   12  O   UNL     1     -39.879 -56.325  16.903  1.00  0.00    -0.268 OA
BRANCH   8  13
HETATM   13  N   UNL     1     -40.562 -52.785  12.731  1.00  0.00    -0.114 N 
HETATM   14  O   UNL     1     -39.638 -52.004  12.466  1.00  0.00    -0.532 OA
HETATM   15  O   UNL     1     -41.642 -52.824  12.126  1.00  0.00    -0.532 OA
ENDBRANCH   8  13
ENDBRANCH   5   6
ENDBRANCH   2   5
BRANCH   1  16
HETATM   16  C   UNL     1     -45.512 -53.154  16.975  1.00  0.00     0.084 C 
HETATM   17  C   UNL     1     -46.280 -53.613  18.216  1.00  0.00     0.032 C 
BRANCH  16  18
HETATM   18  C   UNL     1     -46.485 -52.741  15.845  1.00  0.00     0.012 C 
HETATM   19  C   UNL     1     -46.386 -53.585  14.550  1.00  0.00     0.011 C 
HETATM   20  C   UNL     1     -46.034 -52.545  13.477  1.00  0.00    -0.014 C 
HETATM   21  C   UNL     1     -44.612 -52.012  13.744  1.00  0.00     0.005 C 
HETATM   22  C   UNL     1     -46.919 -51.378  13.905  1.00  0.00     0.010 C 
HETATM   23  C   UNL     1     -44.822 -51.032  14.907  1.00  0.00     0.005 C 
HETATM   24  C   UNL     1     -46.286 -51.291  15.298  1.00  0.00    -0.008 C 
ENDBRANCH  16  18
ENDBRANCH   1  16
TORSDOF 5
ENDMDL
