MODEL 1
REMARK VINA RESULT:      -5.9      0.000      0.000
REMARK  7 active torsions:
REMARK  status: ('A' for Active; 'I' for Inactive)
REMARK    1  A    between atoms: S_2  and  N_5 
REMARK    2  A    between atoms: N_5  and  C_6 
REMARK    3  A    between atoms: C_6  and  C_7 
REMARK    4  A    between atoms: C_7  and  C_8 
REMARK       I    between atoms: C_8  and  N_10 
REMARK    5  A    between atoms: N_10  and  C_11 
REMARK    6  A    between atoms: C_11  and  C_12 
REMARK    7  A    between atoms: C_18  and  N_19 
ROOT
HETATM    1  C   UNL     1     -42.667 -49.641  12.675  1.00  0.00     0.004 A 
HETATM    2  C   UNL     1     -43.314 -48.542  12.084  1.00  0.00     0.014 A 
HETATM    3  C   UNL     1     -42.776 -47.935  10.960  1.00  0.00     0.018 A 
HETATM    4  C   UNL     1     -41.583 -48.426  10.476  1.00  0.00     0.089 A 
HETATM    5  N   UNL     1     -40.924 -49.468  11.024  1.00  0.00    -0.352 N 
ATOM      6  HN  UNL     1     -40.045 -49.795  10.622  1.00  0.00     0.166 HD
HETATM    7  C   UNL     1     -41.447 -50.073  12.117  1.00  0.00     0.111 A 
ENDROOT
BRANCH   1   8
HETATM    8  C   UNL     1     -43.255 -50.311  13.890  1.00  0.00     0.165 C 
BRANCH   8   9
HETATM    9  N   UNL     1     -44.582 -50.864  13.688  1.00  0.00    -0.357 N 
HETATM   10  C   UNL     1     -45.434 -51.006  14.761  1.00  0.00     0.218 C 
HETATM   11  O   UNL     1     -45.179 -50.595  15.887  1.00  0.00    -0.274 OA
HETATM   12  H   UNL     1     -44.704 -51.469  12.886  1.00  0.00     0.162 HD
BRANCH  10  13
HETATM   13  C   UNL     1     -46.777 -51.597  14.418  1.00  0.00     0.118 C 
BRANCH  13  14
HETATM   14  C   UNL     1     -46.786 -53.044  14.885  1.00  0.00     0.113 C 
BRANCH  14  15
HETATM   15  N   UNL     1     -45.412 -53.512  15.143  1.00  0.00    -0.220 NA
HETATM   16  H   UNL     1     -44.715 -52.780  15.313  1.00  0.00     0.139 HD
BRANCH  15  17
HETATM   17  S   UNL     1     -44.780 -54.626  14.044  1.00  0.00     0.205 S 
HETATM   18  C   UNL     1     -43.334 -55.233  14.890  1.00  0.00     0.179 C 
HETATM   19  O   UNL     1     -44.361 -53.851  12.899  1.00  0.00    -0.212 OA
HETATM   20  O   UNL     1     -45.743 -55.696  13.917  1.00  0.00    -0.212 OA
ENDBRANCH  15  17
ENDBRANCH  14  15
ENDBRANCH  13  14
ENDBRANCH  10  13
ENDBRANCH   8   9
ENDBRANCH   1   8
BRANCH   7  21
HETATM   21  N   UNL     1     -40.824 -51.222  12.582  1.00  0.00    -0.363 N 
HETATM   22  C   UNL     1     -41.106 -52.465  11.842  1.00  0.00     0.150 C 
HETATM   23  C   UNL     1     -40.811 -53.635  12.798  1.00  0.00     0.187 C 
HETATM   24  O   UNL     1     -39.452 -53.607  13.278  1.00  0.00    -0.388 OA
HETATM   25  C   UNL     1     -39.152 -52.350  13.916  1.00  0.00     0.187 C 
HETATM   26  C   UNL     1     -39.400 -51.166  12.961  1.00  0.00     0.150 C 
ENDBRANCH   7  21
TORSDOF 7
ENDMDL
MODEL 2
REMARK VINA RESULT:      -5.6      4.058      6.551
REMARK  7 active torsions:
REMARK  status: ('A' for Active; 'I' for Inactive)
REMARK    1  A    between atoms: S_2  and  N_5 
REMARK    2  A    between atoms: N_5  and  C_6 
REMARK    3  A    between atoms: C_6  and  C_7 
REMARK    4  A    between atoms: C_7  and  C_8 
REMARK       I    between atoms: C_8  and  N_10 
REMARK    5  A    between atoms: N_10  and  C_11 
REMARK    6  A    between atoms: C_11  and  C_12 
REMARK    7  A    between atoms: C_18  and  N_19 
ROOT
HETATM    1  C   UNL     1     -42.247 -47.121  10.252  1.00  0.00     0.004 A 
HETATM    2  C   UNL     1     -42.986 -47.702   9.206  1.00  0.00     0.014 A 
HETATM    3  C   UNL     1     -43.962 -46.970   8.549  1.00  0.00     0.018 A 
HETATM    4  C   UNL     1     -44.195 -45.682   8.980  1.00  0.00     0.089 A 
HETATM    5  N   UNL     1     -43.518 -45.094   9.989  1.00  0.00    -0.352 N 
ATOM      6  HN  UNL     1     -43.727 -44.135  10.264  1.00  0.00     0.166 HD
HETATM    7  C   UNL     1     -42.556 -45.800  10.631  1.00  0.00     0.111 A 
ENDROOT
BRANCH   1   8
HETATM    8  C   UNL     1     -41.177 -47.911  10.961  1.00  0.00     0.165 C 
BRANCH   8   9
HETATM    9  N   UNL     1     -41.445 -49.334  11.056  1.00  0.00    -0.357 N 
HETATM   10  C   UNL     1     -41.527 -49.933  12.294  1.00  0.00     0.218 C 
HETATM   11  O   UNL     1     -41.488 -49.313  13.351  1.00  0.00    -0.274 OA
HETATM   12  H   UNL     1     -41.183 -49.900  10.258  1.00  0.00     0.162 HD
BRANCH  10  13
HETATM   13  C   UNL     1     -41.802 -51.414  12.254  1.00  0.00     0.118 C 
BRANCH  13  14
HETATM   14  C   UNL     1     -40.477 -52.143  12.410  1.00  0.00     0.113 C 
BRANCH  14  15
HETATM   15  N   UNL     1     -39.366 -51.306  11.921  1.00  0.00    -0.220 NA
HETATM   16  H   UNL     1     -38.976 -51.569  11.011  1.00  0.00     0.139 HD
BRANCH  15  17
HETATM   17  S   UNL     1     -38.099 -51.034  13.002  1.00  0.00     0.205 S 
HETATM   18  C   UNL     1     -37.906 -49.264  12.941  1.00  0.00     0.179 C 
HETATM   19  O   UNL     1     -36.937 -51.651  12.405  1.00  0.00    -0.212 OA
HETATM   20  O   UNL     1     -38.565 -51.420  14.315  1.00  0.00    -0.212 OA
ENDBRANCH  15  17
ENDBRANCH  14  15
ENDBRANCH  13  14
ENDBRANCH  10  13
ENDBRANCH   8   9
ENDBRANCH   1   8
BRANCH   7  21
HETATM   21  N   UNL     1     -41.785 -45.135  11.573  1.00  0.00    -0.363 N 
HETATM   22  C   UNL     1     -40.710 -44.273  11.047  1.00  0.00     0.150 C 
HETATM   23  C   UNL     1     -39.677 -44.104  12.177  1.00  0.00     0.187 C 
HETATM   24  O   UNL     1     -40.268 -43.541  13.365  1.00  0.00    -0.388 OA
HETATM   25  C   UNL     1     -41.381 -44.337  13.819  1.00  0.00     0.187 C 
HETATM   26  C   UNL     1     -42.448 -44.483  12.717  1.00  0.00     0.150 C 
ENDBRANCH   7  21
TORSDOF 7
ENDMDL
MODEL 3
REMARK VINA RESULT:      -5.6      3.576      5.796
REMARK  7 active torsions:
REMARK  status: ('A' for Active; 'I' for Inactive)
REMARK    1  A    between atoms: S_2  and  N_5 
REMARK    2  A    between atoms: N_5  and  C_6 
REMARK    3  A    between atoms: C_6  and  C_7 
REMARK    4  A    between atoms: C_7  and  C_8 
REMARK       I    between atoms: C_8  and  N_10 
REMARK    5  A    between atoms: N_10  and  C_11 
REMARK    6  A    between atoms: C_11  and  C_12 
REMARK    7  A    between atoms: C_18  and  N_19 
ROOT
HETATM    1  C   UNL     1     -44.456 -51.422  13.736  1.00  0.00     0.004 A 
HETATM    2  C   UNL     1     -45.853 -51.421  13.889  1.00  0.00     0.014 A 
HETATM    3  C   UNL     1     -46.566 -52.607  13.810  1.00  0.00     0.018 A 
HETATM    4  C   UNL     1     -45.861 -53.761  13.547  1.00  0.00     0.089 A 
HETATM    5  N   UNL     1     -44.522 -53.801  13.379  1.00  0.00    -0.352 N 
ATOM      6  HN  UNL     1     -44.050 -54.685  13.191  1.00  0.00     0.166 HD
HETATM    7  C   UNL     1     -43.817 -52.648  13.463  1.00  0.00     0.111 A 
ENDROOT
BRANCH   1   8
HETATM    8  C   UNL     1     -43.676 -50.135  13.831  1.00  0.00     0.165 C 
BRANCH   8   9
HETATM    9  N   UNL     1     -43.384 -49.514  12.553  1.00  0.00    -0.357 N 
HETATM   10  C   UNL     1     -42.170 -48.891  12.357  1.00  0.00     0.218 C 
HETATM   11  O   UNL     1     -41.258 -48.913  13.175  1.00  0.00    -0.274 OA
HETATM   12  H   UNL     1     -44.178 -49.217  12.000  1.00  0.00     0.162 HD
BRANCH  10  13
HETATM   13  C   UNL     1     -41.995 -48.281  10.991  1.00  0.00     0.118 C 
BRANCH  13  14
HETATM   14  C   UNL     1     -43.129 -47.293  10.768  1.00  0.00     0.113 C 
BRANCH  14  15
HETATM   15  N   UNL     1     -44.317 -47.984  10.232  1.00  0.00    -0.220 NA
HETATM   16  H   UNL     1     -44.275 -49.008  10.229  1.00  0.00     0.139 HD
BRANCH  15  17
HETATM   17  S   UNL     1     -44.881 -47.454   8.733  1.00  0.00     0.205 S 
HETATM   18  C   UNL     1     -43.551 -47.903   7.634  1.00  0.00     0.179 C 
HETATM   19  O   UNL     1     -44.943 -46.013   8.825  1.00  0.00    -0.212 OA
HETATM   20  O   UNL     1     -46.051 -48.238   8.412  1.00  0.00    -0.212 OA
ENDBRANCH  15  17
ENDBRANCH  14  15
ENDBRANCH  13  14
ENDBRANCH  10  13
ENDBRANCH   8   9
ENDBRANCH   1   8
BRANCH   7  21
HETATM   21  N   UNL     1     -42.433 -52.731  13.419  1.00  0.00    -0.363 N 
HETATM   22  C   UNL     1     -41.816 -53.802  14.221  1.00  0.00     0.150 C 
HETATM   23  C   UNL     1     -40.357 -53.385  14.483  1.00  0.00     0.187 C 
HETATM   24  O   UNL     1     -39.633 -53.164  13.256  1.00  0.00    -0.388 OA
HETATM   25  C   UNL     1     -40.295 -52.185  12.431  1.00  0.00     0.187 C 
HETATM   26  C   UNL     1     -41.745 -52.604  12.121  1.00  0.00     0.150 C 
ENDBRANCH   7  21
TORSDOF 7
ENDMDL
MODEL 4
REMARK VINA RESULT:      -5.5      3.522      6.784
REMARK  7 active torsions:
REMARK  status: ('A' for Active; 'I' for Inactive)
REMARK    1  A    between atoms: S_2  and  N_5 
REMARK    2  A    between atoms: N_5  and  C_6 
REMARK    3  A    between atoms: C_6  and  C_7 
REMARK    4  A    between atoms: C_7  and  C_8 
REMARK       I    between atoms: C_8  and  N_10 
REMARK    5  A    between atoms: N_10  and  C_11 
REMARK    6  A    between atoms: C_11  and  C_12 
REMARK    7  A    between atoms: C_18  and  N_19 
ROOT
HETATM    1  C   UNL     1     -41.036 -53.595  13.432  1.00  0.00     0.004 A 
HETATM    2  C   UNL     1     -39.684 -53.933  13.618  1.00  0.00     0.014 A 
HETATM    3  C   UNL     1     -39.278 -54.582  14.774  1.00  0.00     0.018 A 
HETATM    4  C   UNL     1     -40.236 -54.846  15.730  1.00  0.00     0.089 A 
HETATM    5  N   UNL     1     -41.539 -54.523  15.595  1.00  0.00    -0.352 N 
ATOM      6  HN  UNL     1     -42.207 -54.747  16.332  1.00  0.00     0.166 HD
HETATM    7  C   UNL     1     -41.945 -53.897  14.465  1.00  0.00     0.111 A 
ENDROOT
BRANCH   1   8
HETATM    8  C   UNL     1     -41.482 -52.899  12.171  1.00  0.00     0.165 C 
BRANCH   8   9
HETATM    9  N   UNL     1     -40.660 -51.767  11.787  1.00  0.00    -0.357 N 
HETATM   10  C   UNL     1     -41.179 -50.492  11.855  1.00  0.00     0.218 C 
HETATM   11  O   UNL     1     -42.282 -50.233  12.323  1.00  0.00    -0.274 OA
HETATM   12  H   UNL     1     -39.907 -51.952  11.138  1.00  0.00     0.162 HD
BRANCH  10  13
HETATM   13  C   UNL     1     -40.227 -49.407  11.422  1.00  0.00     0.118 C 
BRANCH  13  14
HETATM   14  C   UNL     1     -41.045 -48.173  11.077  1.00  0.00     0.113 C 
BRANCH  14  15
HETATM   15  N   UNL     1     -41.791 -48.383   9.822  1.00  0.00    -0.220 NA
HETATM   16  H   UNL     1     -41.222 -48.489   8.977  1.00  0.00     0.139 HD
BRANCH  15  17
HETATM   17  S   UNL     1     -43.046 -47.300   9.505  1.00  0.00     0.205 S 
HETATM   18  C   UNL     1     -43.535 -47.742   7.849  1.00  0.00     0.179 C 
HETATM   19  O   UNL     1     -42.435 -45.991   9.477  1.00  0.00    -0.212 OA
HETATM   20  O   UNL     1     -44.121 -47.610  10.420  1.00  0.00    -0.212 OA
ENDBRANCH  15  17
ENDBRANCH  14  15
ENDBRANCH  13  14
ENDBRANCH  10  13
ENDBRANCH   8   9
ENDBRANCH   1   8
BRANCH   7  21
HETATM   21  N   UNL     1     -43.307 -53.695  14.290  1.00  0.00    -0.363 N 
HETATM   22  C   UNL     1     -44.168 -54.882  14.435  1.00  0.00     0.150 C 
HETATM   23  C   UNL     1     -45.476 -54.583  13.680  1.00  0.00     0.187 C 
HETATM   24  O   UNL     1     -46.127 -53.398  14.180  1.00  0.00    -0.388 OA
HETATM   25  C   UNL     1     -45.245 -52.259  14.126  1.00  0.00     0.187 C 
HETATM   26  C   UNL     1     -43.946 -52.522  14.913  1.00  0.00     0.150 C 
ENDBRANCH   7  21
TORSDOF 7
ENDMDL
MODEL 5
REMARK VINA RESULT:      -5.4      4.200      6.424
REMARK  7 active torsions:
REMARK  status: ('A' for Active; 'I' for Inactive)
REMARK    1  A    between atoms: S_2  and  N_5 
REMARK    2  A    between atoms: N_5  and  C_6 
REMARK    3  A    between atoms: C_6  and  C_7 
REMARK    4  A    between atoms: C_7  and  C_8 
REMARK       I    between atoms: C_8  and  N_10 
REMARK    5  A    between atoms: N_10  and  C_11 
REMARK    6  A    between atoms: C_11  and  C_12 
REMARK    7  A    between atoms: C_18  and  N_19 
ROOT
HETATM    1  C   UNL     1     -40.327 -50.003  12.420  1.00  0.00     0.004 A 
HETATM    2  C   UNL     1     -39.448 -49.121  11.767  1.00  0.00     0.014 A 
HETATM    3  C   UNL     1     -38.092 -49.402  11.707  1.00  0.00     0.018 A 
HETATM    4  C   UNL     1     -37.647 -50.547  12.332  1.00  0.00     0.089 A 
HETATM    5  N   UNL     1     -38.457 -51.410  12.981  1.00  0.00    -0.352 N 
ATOM      6  HN  UNL     1     -38.075 -52.246  13.423  1.00  0.00     0.166 HD
HETATM    7  C   UNL     1     -39.784 -51.147  13.038  1.00  0.00     0.111 A 
ENDROOT
BRANCH   1   8
HETATM    8  C   UNL     1     -41.804 -49.706  12.478  1.00  0.00     0.165 C 
BRANCH   8   9
HETATM    9  N   UNL     1     -42.351 -49.145  11.257  1.00  0.00    -0.357 N 
HETATM   10  C   UNL     1     -43.044 -47.954  11.302  1.00  0.00     0.218 C 
HETATM   11  O   UNL     1     -43.147 -47.269  12.313  1.00  0.00    -0.274 OA
HETATM   12  H   UNL     1     -42.551 -49.795  10.507  1.00  0.00     0.162 HD
BRANCH  10  13
HETATM   13  C   UNL     1     -43.566 -47.485   9.970  1.00  0.00     0.118 C 
BRANCH  13  14
HETATM   14  C   UNL     1     -42.764 -46.262   9.554  1.00  0.00     0.113 C 
BRANCH  14  15
HETATM   15  N   UNL     1     -41.371 -46.373  10.026  1.00  0.00    -0.220 NA
HETATM   16  H   UNL     1     -41.188 -47.117  10.707  1.00  0.00     0.139 HD
BRANCH  15  17
HETATM   17  S   UNL     1     -40.646 -44.948  10.564  1.00  0.00     0.205 S 
HETATM   18  C   UNL     1     -39.950 -45.431  12.133  1.00  0.00     0.179 C 
HETATM   19  O   UNL     1     -41.730 -44.022  10.800  1.00  0.00    -0.212 OA
HETATM   20  O   UNL     1     -39.576 -44.636   9.643  1.00  0.00    -0.212 OA
ENDBRANCH  15  17
ENDBRANCH  14  15
ENDBRANCH  13  14
ENDBRANCH  10  13
ENDBRANCH   8   9
ENDBRANCH   1   8
BRANCH   7  21
HETATM   21  N   UNL     1     -40.612 -52.112  13.593  1.00  0.00    -0.363 N 
HETATM   22  C   UNL     1     -40.684 -53.401  12.881  1.00  0.00     0.150 C 
HETATM   23  C   UNL     1     -42.006 -54.071  13.299  1.00  0.00     0.187 C 
HETATM   24  O   UNL     1     -42.088 -54.255  14.726  1.00  0.00    -0.388 OA
HETATM   25  C   UNL     1     -41.919 -53.003  15.421  1.00  0.00     0.187 C 
HETATM   26  C   UNL     1     -40.581 -52.335  15.050  1.00  0.00     0.150 C 
ENDBRANCH   7  21
TORSDOF 7
ENDMDL
MODEL 6
REMARK VINA RESULT:      -5.4      2.402      4.145
REMARK  7 active torsions:
REMARK  status: ('A' for Active; 'I' for Inactive)
REMARK    1  A    between atoms: S_2  and  N_5 
REMARK    2  A    between atoms: N_5  and  C_6 
REMARK    3  A    between atoms: C_6  and  C_7 
REMARK    4  A    between atoms: C_7  and  C_8 
REMARK       I    between atoms: C_8  and  N_10 
REMARK    5  A    between atoms: N_10  and  C_11 
REMARK    6  A    between atoms: C_11  and  C_12 
REMARK    7  A    between atoms: C_18  and  N_19 
ROOT
HETATM    1  C   UNL     1     -41.471 -49.632  12.649  1.00  0.00     0.004 A 
HETATM    2  C   UNL     1     -40.764 -50.695  13.237  1.00  0.00     0.014 A 
HETATM    3  C   UNL     1     -39.483 -51.006  12.809  1.00  0.00     0.018 A 
HETATM    4  C   UNL     1     -38.956 -50.261  11.777  1.00  0.00     0.089 A 
HETATM    5  N   UNL     1     -39.608 -49.243  11.176  1.00  0.00    -0.352 N 
ATOM      6  HN  UNL     1     -39.168 -48.720  10.419  1.00  0.00     0.166 HD
HETATM    7  C   UNL     1     -40.856 -48.928  11.594  1.00  0.00     0.111 A 
ENDROOT
BRANCH   1   8
HETATM    8  C   UNL     1     -42.861 -49.285  13.120  1.00  0.00     0.165 C 
BRANCH   8   9
HETATM    9  N   UNL     1     -43.895 -50.192  12.660  1.00  0.00    -0.357 N 
HETATM   10  C   UNL     1     -44.672 -50.865  13.578  1.00  0.00     0.218 C 
HETATM   11  O   UNL     1     -44.615 -50.669  14.786  1.00  0.00    -0.274 OA
HETATM   12  H   UNL     1     -43.769 -50.596  11.740  1.00  0.00     0.162 HD
BRANCH  10  13
HETATM   13  C   UNL     1     -45.703 -51.781  12.971  1.00  0.00     0.118 C 
BRANCH  13  14
HETATM   14  C   UNL     1     -45.011 -53.078  12.584  1.00  0.00     0.113 C 
BRANCH  14  15
HETATM   15  N   UNL     1     -44.081 -53.504  13.647  1.00  0.00    -0.220 NA
HETATM   16  H   UNL     1     -43.116 -53.682  13.351  1.00  0.00     0.139 HD
BRANCH  15  17
HETATM   17  S   UNL     1     -44.597 -54.776  14.628  1.00  0.00     0.205 S 
HETATM   18  C   UNL     1     -45.303 -53.928  16.028  1.00  0.00     0.179 C 
HETATM   19  O   UNL     1     -43.394 -55.455  15.052  1.00  0.00    -0.212 OA
HETATM   20  O   UNL     1     -45.643 -55.472  13.914  1.00  0.00    -0.212 OA
ENDBRANCH  15  17
ENDBRANCH  14  15
ENDBRANCH  13  14
ENDBRANCH  10  13
ENDBRANCH   8   9
ENDBRANCH   1   8
BRANCH   7  21
HETATM   21  N   UNL     1     -41.454 -47.797  11.055  1.00  0.00    -0.363 N 
HETATM   22  C   UNL     1     -40.596 -46.607  10.915  1.00  0.00     0.150 C 
HETATM   23  C   UNL     1     -41.529 -45.385  10.853  1.00  0.00     0.187 C 
HETATM   24  O   UNL     1     -42.472 -45.483   9.767  1.00  0.00    -0.388 OA
HETATM   25  C   UNL     1     -43.242 -46.698   9.856  1.00  0.00     0.187 C 
HETATM   26  C   UNL     1     -42.328 -47.938   9.877  1.00  0.00     0.150 C 
ENDBRANCH   7  21
TORSDOF 7
ENDMDL
MODEL 7
REMARK VINA RESULT:      -5.3      3.394      5.242
REMARK  7 active torsions:
REMARK  status: ('A' for Active; 'I' for Inactive)
REMARK    1  A    between atoms: S_2  and  N_5 
REMARK    2  A    between atoms: N_5  and  C_6 
REMARK    3  A    between atoms: C_6  and  C_7 
REMARK    4  A    between atoms: C_7  and  C_8 
REMARK       I    between atoms: C_8  and  N_10 
REMARK    5  A    between atoms: N_10  and  C_11 
REMARK    6  A    between atoms: C_11  and  C_12 
REMARK    7  A    between atoms: C_18  and  N_19 
ROOT
HETATM    1  C   UNL     1     -43.106 -47.239  10.930  1.00  0.00     0.004 A 
HETATM    2  C   UNL     1     -43.978 -47.767   9.962  1.00  0.00     0.014 A 
HETATM    3  C   UNL     1     -44.499 -46.951   8.970  1.00  0.00     0.018 A 
HETATM    4  C   UNL     1     -44.156 -45.617   8.993  1.00  0.00     0.089 A 
HETATM    5  N   UNL     1     -43.335 -45.069   9.914  1.00  0.00    -0.352 N 
ATOM      6  HN  UNL     1     -43.109 -44.075   9.881  1.00  0.00     0.166 HD
HETATM    7  C   UNL     1     -42.815 -45.861  10.881  1.00  0.00     0.111 A 
ENDROOT
BRANCH   1   8
HETATM    8  C   UNL     1     -42.529 -48.126  12.004  1.00  0.00     0.165 C 
BRANCH   8   9
HETATM    9  N   UNL     1     -42.342 -49.508  11.604  1.00  0.00    -0.357 N 
HETATM   10  C   UNL     1     -41.930 -50.439  12.533  1.00  0.00     0.218 C 
HETATM   11  O   UNL     1     -41.803 -50.193  13.727  1.00  0.00    -0.274 OA
HETATM   12  H   UNL     1     -42.141 -49.675  10.626  1.00  0.00     0.162 HD
BRANCH  10  13
HETATM   13  C   UNL     1     -41.767 -51.834  11.989  1.00  0.00     0.118 C 
BRANCH  13  14
HETATM   14  C   UNL     1     -42.816 -52.719  12.643  1.00  0.00     0.113 C 
BRANCH  14  15
HETATM   15  N   UNL     1     -44.114 -52.021  12.707  1.00  0.00    -0.220 NA
HETATM   16  H   UNL     1     -44.200 -51.305  13.436  1.00  0.00     0.139 HD
BRANCH  15  17
HETATM   17  S   UNL     1     -45.490 -52.996  12.732  1.00  0.00     0.205 S 
HETATM   18  C   UNL     1     -46.202 -52.628  14.324  1.00  0.00     0.179 C 
HETATM   19  O   UNL     1     -45.005 -54.357  12.741  1.00  0.00    -0.212 OA
HETATM   20  O   UNL     1     -46.373 -52.518  11.692  1.00  0.00    -0.212 OA
ENDBRANCH  15  17
ENDBRANCH  14  15
ENDBRANCH  13  14
ENDBRANCH  10  13
ENDBRANCH   8   9
ENDBRANCH   1   8
BRANCH   7  21
HETATM   21  N   UNL     1     -41.871 -45.307  11.734  1.00  0.00    -0.363 N 
HETATM   22  C   UNL     1     -40.698 -44.683  11.095  1.00  0.00     0.150 C 
HETATM   23  C   UNL     1     -39.575 -44.655  12.147  1.00  0.00     0.187 C 
HETATM   24  O   UNL     1     -39.968 -43.938  13.335  1.00  0.00    -0.388 OA
HETATM   25  C   UNL     1     -41.172 -44.494  13.901  1.00  0.00     0.187 C 
HETATM   26  C   UNL     1     -42.323 -44.492  12.876  1.00  0.00     0.150 C 
ENDBRANCH   7  21
TORSDOF 7
ENDMDL
MODEL 8
REMARK VINA RESULT:      -5.3      4.059      6.360
REMARK  7 active torsions:
REMARK  status: ('A' for Active; 'I' for Inactive)
REMARK    1  A    between atoms: S_2  and  N_5 
REMARK    2  A    between atoms: N_5  and  C_6 
REMARK    3  A    between atoms: C_6  and  C_7 
REMARK    4  A    between atoms: C_7  and  C_8 
REMARK       I    between atoms: C_8  and  N_10 
REMARK    5  A    between atoms: N_10  and  C_11 
REMARK    6  A    between atoms: C_11  and  C_12 
REMARK    7  A    between atoms: C_18  and  N_19 
ROOT
HETATM    1  C   UNL     1     -41.828 -52.875  13.029  1.00  0.00     0.004 A 
HETATM    2  C   UNL     1     -42.908 -53.774  13.082  1.00  0.00     0.014 A 
HETATM    3  C   UNL     1     -43.166 -54.491  14.240  1.00  0.00     0.018 A 
HETATM    4  C   UNL     1     -42.312 -54.311  15.307  1.00  0.00     0.089 A 
HETATM    5  N   UNL     1     -41.257 -53.470  15.290  1.00  0.00    -0.352 N 
ATOM      6  HN  UNL     1     -40.660 -53.372  16.112  1.00  0.00     0.166 HD
HETATM    7  C   UNL     1     -41.003 -52.760  14.166  1.00  0.00     0.111 A 
ENDROOT
BRANCH   1   8
HETATM    8  C   UNL     1     -41.551 -52.086  11.775  1.00  0.00     0.165 C 
BRANCH   8   9
HETATM    9  N   UNL     1     -41.952 -50.693  11.842  1.00  0.00    -0.357 N 
HETATM   10  C   UNL     1     -41.031 -49.703  11.577  1.00  0.00     0.218 C 
HETATM   11  O   UNL     1     -39.893 -49.925  11.182  1.00  0.00    -0.274 OA
HETATM   12  H   UNL     1     -42.743 -50.476  12.436  1.00  0.00     0.162 HD
BRANCH  10  13
HETATM   13  C   UNL     1     -41.572 -48.301  11.688  1.00  0.00     0.118 C 
BRANCH  13  14
HETATM   14  C   UNL     1     -41.840 -47.787  10.283  1.00  0.00     0.113 C 
BRANCH  14  15
HETATM   15  N   UNL     1     -43.207 -48.139   9.856  1.00  0.00    -0.220 NA
HETATM   16  H   UNL     1     -43.392 -49.139   9.730  1.00  0.00     0.139 HD
BRANCH  15  17
HETATM   17  S   UNL     1     -43.819 -47.297   8.528  1.00  0.00     0.205 S 
HETATM   18  C   UNL     1     -45.577 -47.335   8.816  1.00  0.00     0.179 C 
HETATM   19  O   UNL     1     -43.517 -48.114   7.375  1.00  0.00    -0.212 OA
HETATM   20  O   UNL     1     -43.347 -45.935   8.629  1.00  0.00    -0.212 OA
ENDBRANCH  15  17
ENDBRANCH  14  15
ENDBRANCH  13  14
ENDBRANCH  10  13
ENDBRANCH   8   9
ENDBRANCH   1   8
BRANCH   7  21
HETATM   21  N   UNL     1     -39.997 -51.806  14.216  1.00  0.00    -0.363 N 
HETATM   22  C   UNL     1     -40.116 -50.783  15.271  1.00  0.00     0.150 C 
HETATM   23  C   UNL     1     -39.282 -49.571  14.818  1.00  0.00     0.187 C 
HETATM   24  O   UNL     1     -37.904 -49.924  14.583  1.00  0.00    -0.388 OA
HETATM   25  C   UNL     1     -37.799 -50.993  13.621  1.00  0.00     0.187 C 
HETATM   26  C   UNL     1     -38.593 -52.233  14.076  1.00  0.00     0.150 C 
ENDBRANCH   7  21
TORSDOF 7
ENDMDL
MODEL 9
REMARK VINA RESULT:      -5.3      2.198      4.486
REMARK  7 active torsions:
REMARK  status: ('A' for Active; 'I' for Inactive)
REMARK    1  A    between atoms: S_2  and  N_5 
REMARK    2  A    between atoms: N_5  and  C_6 
REMARK    3  A    between atoms: C_6  and  C_7 
REMARK    4  A    between atoms: C_7  and  C_8 
REMARK       I    between atoms: C_8  and  N_10 
REMARK    5  A    between atoms: N_10  and  C_11 
REMARK    6  A    between atoms: C_11  and  C_12 
REMARK    7  A    between atoms: C_18  and  N_19 
ROOT
HETATM    1  C   UNL     1     -39.732 -50.332  12.955  1.00  0.00     0.004 A 
HETATM    2  C   UNL     1     -38.557 -51.090  13.103  1.00  0.00     0.014 A 
HETATM    3  C   UNL     1     -37.437 -50.800  12.340  1.00  0.00     0.018 A 
HETATM    4  C   UNL     1     -37.535 -49.777  11.422  1.00  0.00     0.089 A 
HETATM    5  N   UNL     1     -38.649 -49.037  11.239  1.00  0.00    -0.352 N 
ATOM      6  HN  UNL     1     -38.665 -48.287  10.548  1.00  0.00     0.166 HD
HETATM    7  C   UNL     1     -39.745 -49.308  11.987  1.00  0.00     0.111 A 
ENDROOT
BRANCH   1   8
HETATM    8  C   UNL     1     -40.949 -50.636  13.791  1.00  0.00     0.165 C 
BRANCH   8   9
HETATM    9  N   UNL     1     -41.171 -52.050  14.035  1.00  0.00    -0.357 N 
HETATM   10  C   UNL     1     -41.931 -52.785  13.152  1.00  0.00     0.218 C 
HETATM   11  O   UNL     1     -42.361 -52.338  12.094  1.00  0.00    -0.274 OA
HETATM   12  H   UNL     1     -41.105 -52.361  14.996  1.00  0.00     0.162 HD
BRANCH  10  13
HETATM   13  C   UNL     1     -42.090 -54.236  13.523  1.00  0.00     0.118 C 
BRANCH  13  14
HETATM   14  C   UNL     1     -43.123 -54.326  14.635  1.00  0.00     0.113 C 
BRANCH  14  15
HETATM   15  N   UNL     1     -44.143 -53.273  14.479  1.00  0.00    -0.220 NA
HETATM   16  H   UNL     1     -44.318 -52.694  15.307  1.00  0.00     0.139 HD
BRANCH  15  17
HETATM   17  S   UNL     1     -45.622 -53.751  13.824  1.00  0.00     0.205 S 
HETATM   18  C   UNL     1     -45.970 -52.453  12.653  1.00  0.00     0.179 C 
HETATM   19  O   UNL     1     -46.575 -53.670  14.907  1.00  0.00    -0.212 OA
HETATM   20  O   UNL     1     -45.396 -54.989  13.112  1.00  0.00    -0.212 OA
ENDBRANCH  15  17
ENDBRANCH  14  15
ENDBRANCH  13  14
ENDBRANCH  10  13
ENDBRANCH   8   9
ENDBRANCH   1   8
BRANCH   7  21
HETATM   21  N   UNL     1     -40.832 -48.452  11.877  1.00  0.00    -0.363 N 
HETATM   22  C   UNL     1     -40.635 -47.077  12.372  1.00  0.00     0.150 C 
HETATM   23  C   UNL     1     -42.031 -46.505  12.677  1.00  0.00     0.187 C 
HETATM   24  O   UNL     1     -42.886 -46.528  11.517  1.00  0.00    -0.388 OA
HETATM   25  C   UNL     1     -42.997 -47.860  10.979  1.00  0.00     0.187 C 
HETATM   26  C   UNL     1     -41.612 -48.437  10.626  1.00  0.00     0.150 C 
ENDBRANCH   7  21
TORSDOF 7
ENDMDL
