MODEL 1
REMARK VINA RESULT:      -6.1      0.000      0.000
REMARK  5 active torsions:
REMARK  status: ('A' for Active; 'I' for Inactive)
REMARK    1  A    between atoms: O_1  and  C_2 
REMARK    2  A    between atoms: C_2  and  C_4 
REMARK    3  A    between atoms: C_7  and  N_10 
REMARK       I    between atoms: N_10  and  C_11 
REMARK    4  A    between atoms: C_11  and  C_13 
REMARK    5  A    between atoms: C_13  and  C_14 
ROOT
HETATM    1  N   UNL     1     -43.423 -52.652  13.278  1.00  0.00    -0.356 N 
HETATM    2  C   UNL     1     -44.777 -52.662  13.003  1.00  0.00     0.222 C 
HETATM    3  O   UNL     1     -45.372 -53.643  12.564  1.00  0.00    -0.273 OA
HETATM    4  H   UNL     1     -43.053 -51.878  13.813  1.00  0.00     0.162 HD
ENDROOT
BRANCH   1   5
HETATM    5  C   UNL     1     -42.596 -53.839  13.093  1.00  0.00     0.084 C 
HETATM    6  C   UNL     1     -42.422 -54.613  14.405  1.00  0.00     0.026 C 
HETATM    7  C   UNL     1     -41.484 -53.920  15.395  1.00  0.00     0.017 C 
HETATM    8  C   UNL     1     -40.127 -53.552  14.787  1.00  0.00     0.084 C 
HETATM    9  C   UNL     1     -40.297 -52.782  13.469  1.00  0.00     0.017 C 
HETATM   10  C   UNL     1     -41.244 -53.465  12.480  1.00  0.00     0.026 C 
BRANCH   8  11
HETATM   11  C   UNL     1     -39.221 -54.768  14.620  1.00  0.00     0.143 C 
HETATM   12  O   UNL     1     -39.092 -55.663  15.440  1.00  0.00    -0.650 OA
BRANCH  11  13
HETATM   13  O   UNL     1     -38.577 -54.797  13.431  1.00  0.00    -0.776 OA
HETATM   14  H   UNL     1     -38.115 -53.970  13.200  1.00  0.00     0.167 HD
ENDBRANCH  11  13
ENDBRANCH   8  11
ENDBRANCH   1   5
BRANCH   2  15
HETATM   15  C   UNL     1     -45.485 -51.352  13.300  1.00  0.00     0.141 C 
BRANCH  15  16
HETATM   16  C   UNL     1     -45.870 -51.216  14.750  1.00  0.00    -0.047 A 
HETATM   17  C   UNL     1     -47.139 -51.593  15.197  1.00  0.00     0.024 A 
HETATM   18  C   UNL     1     -47.438 -51.451  16.544  1.00  0.00     0.088 A 
HETATM   19  N   UNL     1     -46.573 -50.966  17.460  1.00  0.00    -0.375 N 
HETATM   20  C   UNL     1     -45.349 -50.617  17.012  1.00  0.00     0.088 A 
ATOM     21  HN  UNL     1     -46.832 -50.870  18.442  1.00  0.00     0.164 HD
HETATM   22  C   UNL     1     -44.956 -50.724  15.687  1.00  0.00     0.024 A 
ENDBRANCH  15  16
ENDBRANCH   2  15
TORSDOF 5
ENDMDL
MODEL 2
REMARK VINA RESULT:      -6.0      4.323      6.251
REMARK  5 active torsions:
REMARK  status: ('A' for Active; 'I' for Inactive)
REMARK    1  A    between atoms: O_1  and  C_2 
REMARK    2  A    between atoms: C_2  and  C_4 
REMARK    3  A    between atoms: C_7  and  N_10 
REMARK       I    between atoms: N_10  and  C_11 
REMARK    4  A    between atoms: C_11  and  C_13 
REMARK    5  A    between atoms: C_13  and  C_14 
ROOT
HETATM    1  N   UNL     1     -43.429 -50.208  12.363  1.00  0.00    -0.356 N 
HETATM    2  C   UNL     1     -43.047 -48.880  12.374  1.00  0.00     0.222 C 
HETATM    3  O   UNL     1     -43.147 -48.154  13.360  1.00  0.00    -0.273 OA
HETATM    4  H   UNL     1     -43.138 -50.780  11.582  1.00  0.00     0.162 HD
ENDROOT
BRANCH   1   5
HETATM    5  C   UNL     1     -43.957 -50.862  13.555  1.00  0.00     0.084 C 
HETATM    6  C   UNL     1     -43.066 -52.030  13.997  1.00  0.00     0.026 C 
HETATM    7  C   UNL     1     -43.177 -53.252  13.084  1.00  0.00     0.017 C 
HETATM    8  C   UNL     1     -44.621 -53.713  12.863  1.00  0.00     0.084 C 
HETATM    9  C   UNL     1     -45.519 -52.544  12.426  1.00  0.00     0.017 C 
HETATM   10  C   UNL     1     -45.401 -51.314  13.329  1.00  0.00     0.026 C 
BRANCH   8  11
HETATM   11  C   UNL     1     -45.188 -54.439  14.078  1.00  0.00     0.143 C 
HETATM   12  O   UNL     1     -44.524 -54.889  14.998  1.00  0.00    -0.650 OA
BRANCH  11  13
HETATM   13  O   UNL     1     -46.539 -54.513  14.075  1.00  0.00    -0.776 OA
HETATM   14  H   UNL     1     -46.923 -54.943  14.861  1.00  0.00     0.167 HD
ENDBRANCH  11  13
ENDBRANCH   8  11
ENDBRANCH   1   5
BRANCH   2  15
HETATM   15  C   UNL     1     -42.478 -48.384  11.057  1.00  0.00     0.141 C 
BRANCH  15  16
HETATM   16  C   UNL     1     -43.449 -47.520  10.294  1.00  0.00    -0.047 A 
HETATM   17  C   UNL     1     -43.049 -46.299   9.744  1.00  0.00     0.024 A 
HETATM   18  C   UNL     1     -43.982 -45.547   9.047  1.00  0.00     0.088 A 
HETATM   19  N   UNL     1     -45.266 -45.922   8.864  1.00  0.00    -0.375 N 
HETATM   20  C   UNL     1     -45.631 -47.108   9.394  1.00  0.00     0.088 A 
ATOM     21  HN  UNL     1     -45.927 -45.338   8.351  1.00  0.00     0.164 HD
HETATM   22  C   UNL     1     -44.771 -47.931  10.104  1.00  0.00     0.024 A 
ENDBRANCH  15  16
ENDBRANCH   2  15
TORSDOF 5
ENDMDL
MODEL 3
REMARK VINA RESULT:      -5.8      4.100      6.640
REMARK  5 active torsions:
REMARK  status: ('A' for Active; 'I' for Inactive)
REMARK    1  A    between atoms: O_1  and  C_2 
REMARK    2  A    between atoms: C_2  and  C_4 
REMARK    3  A    between atoms: C_7  and  N_10 
REMARK       I    between atoms: N_10  and  C_11 
REMARK    4  A    between atoms: C_11  and  C_13 
REMARK    5  A    between atoms: C_13  and  C_14 
ROOT
HETATM    1  N   UNL     1     -43.862 -49.816  12.967  1.00  0.00    -0.356 N 
HETATM    2  C   UNL     1     -42.777 -49.325  12.265  1.00  0.00     0.222 C 
HETATM    3  O   UNL     1     -41.770 -49.986  12.026  1.00  0.00    -0.273 OA
HETATM    4  H   UNL     1     -44.719 -49.280  12.953  1.00  0.00     0.162 HD
ENDROOT
BRANCH   1   5
HETATM    5  C   UNL     1     -43.898 -51.189  13.456  1.00  0.00     0.084 C 
HETATM    6  C   UNL     1     -44.966 -52.016  12.729  1.00  0.00     0.026 C 
HETATM    7  C   UNL     1     -46.393 -51.660  13.149  1.00  0.00     0.017 C 
HETATM    8  C   UNL     1     -46.605 -51.698  14.666  1.00  0.00     0.084 C 
HETATM    9  C   UNL     1     -45.533 -50.876  15.399  1.00  0.00     0.017 C 
HETATM   10  C   UNL     1     -44.104 -51.219  14.972  1.00  0.00     0.026 C 
BRANCH   8  11
HETATM   11  C   UNL     1     -46.690 -53.123  15.202  1.00  0.00     0.143 C 
HETATM   12  O   UNL     1     -46.270 -53.489  16.288  1.00  0.00    -0.650 OA
BRANCH  11  13
HETATM   13  O   UNL     1     -47.325 -53.973  14.363  1.00  0.00    -0.776 OA
HETATM   14  H   UNL     1     -48.242 -53.721  14.148  1.00  0.00     0.167 HD
ENDBRANCH  11  13
ENDBRANCH   8  11
ENDBRANCH   1   5
BRANCH   2  15
HETATM   15  C   UNL     1     -42.935 -47.890  11.795  1.00  0.00     0.141 C 
BRANCH  15  16
HETATM   16  C   UNL     1     -43.529 -47.793  10.413  1.00  0.00    -0.047 A 
HETATM   17  C   UNL     1     -44.911 -47.709  10.227  1.00  0.00     0.024 A 
HETATM   18  C   UNL     1     -45.403 -47.618   8.934  1.00  0.00     0.088 A 
HETATM   19  N   UNL     1     -44.623 -47.604   7.831  1.00  0.00    -0.375 N 
HETATM   20  C   UNL     1     -43.291 -47.675   8.032  1.00  0.00     0.088 A 
ATOM     21  HN  UNL     1     -45.022 -47.542   6.895  1.00  0.00     0.164 HD
HETATM   22  C   UNL     1     -42.705 -47.767   9.284  1.00  0.00     0.024 A 
ENDBRANCH  15  16
ENDBRANCH   2  15
TORSDOF 5
ENDMDL
MODEL 4
REMARK VINA RESULT:      -5.8      2.775      6.611
REMARK  5 active torsions:
REMARK  status: ('A' for Active; 'I' for Inactive)
REMARK    1  A    between atoms: O_1  and  C_2 
REMARK    2  A    between atoms: C_2  and  C_4 
REMARK    3  A    between atoms: C_7  and  N_10 
REMARK       I    between atoms: N_10  and  C_11 
REMARK    4  A    between atoms: C_11  and  C_13 
REMARK    5  A    between atoms: C_13  and  C_14 
ROOT
HETATM    1  N   UNL     1     -40.678 -53.102  14.810  1.00  0.00    -0.356 N 
HETATM    2  C   UNL     1     -39.412 -53.105  14.257  1.00  0.00     0.222 C 
HETATM    3  O   UNL     1     -38.966 -54.037  13.592  1.00  0.00    -0.273 OA
HETATM    4  H   UNL     1     -41.036 -52.229  15.173  1.00  0.00     0.162 HD
ENDROOT
BRANCH   1   5
HETATM    5  C   UNL     1     -41.602 -54.213  14.613  1.00  0.00     0.084 C 
HETATM    6  C   UNL     1     -42.333 -54.104  13.269  1.00  0.00     0.026 C 
HETATM    7  C   UNL     1     -43.398 -53.007  13.249  1.00  0.00     0.017 C 
HETATM    8  C   UNL     1     -44.392 -53.107  14.410  1.00  0.00     0.084 C 
HETATM    9  C   UNL     1     -43.664 -53.223  15.758  1.00  0.00     0.017 C 
HETATM   10  C   UNL     1     -42.588 -54.311  15.779  1.00  0.00     0.026 C 
BRANCH   8  11
HETATM   11  C   UNL     1     -45.400 -54.235  14.212  1.00  0.00     0.143 C 
HETATM   12  O   UNL     1     -45.928 -54.868  15.112  1.00  0.00    -0.650 OA
BRANCH  11  13
HETATM   13  O   UNL     1     -45.701 -54.461  12.913  1.00  0.00    -0.776 OA
HETATM   14  H   UNL     1     -45.533 -53.706  12.320  1.00  0.00     0.167 HD
ENDBRANCH  11  13
ENDBRANCH   8  11
ENDBRANCH   1   5
BRANCH   2  15
HETATM   15  C   UNL     1     -38.608 -51.846  14.529  1.00  0.00     0.141 C 
BRANCH  15  16
HETATM   16  C   UNL     1     -38.521 -50.942  13.326  1.00  0.00    -0.047 A 
HETATM   17  C   UNL     1     -37.400 -50.960  12.492  1.00  0.00     0.024 A 
HETATM   18  C   UNL     1     -37.375 -50.110  11.396  1.00  0.00     0.088 A 
HETATM   19  N   UNL     1     -38.373 -49.258  11.080  1.00  0.00    -0.375 N 
HETATM   20  C   UNL     1     -39.452 -49.263  11.892  1.00  0.00     0.088 A 
ATOM     21  HN  UNL     1     -38.316 -48.643  10.269  1.00  0.00     0.164 HD
HETATM   22  C   UNL     1     -39.571 -50.076  13.008  1.00  0.00     0.024 A 
ENDBRANCH  15  16
ENDBRANCH   2  15
TORSDOF 5
ENDMDL
MODEL 5
REMARK VINA RESULT:      -5.4      4.531      6.430
REMARK  5 active torsions:
REMARK  status: ('A' for Active; 'I' for Inactive)
REMARK    1  A    between atoms: O_1  and  C_2 
REMARK    2  A    between atoms: C_2  and  C_4 
REMARK    3  A    between atoms: C_7  and  N_10 
REMARK       I    between atoms: N_10  and  C_11 
REMARK    4  A    between atoms: C_11  and  C_13 
REMARK    5  A    between atoms: C_13  and  C_14 
ROOT
HETATM    1  N   UNL     1     -43.924 -50.143  12.742  1.00  0.00    -0.356 N 
HETATM    2  C   UNL     1     -42.927 -49.188  12.685  1.00  0.00     0.222 C 
HETATM    3  O   UNL     1     -42.059 -49.061  13.545  1.00  0.00    -0.273 OA
HETATM    4  H   UNL     1     -44.475 -50.306  11.910  1.00  0.00     0.162 HD
ENDROOT
BRANCH   1   5
HETATM    5  C   UNL     1     -43.997 -51.107  13.834  1.00  0.00     0.084 C 
HETATM    6  C   UNL     1     -43.281 -52.416  13.477  1.00  0.00     0.026 C 
HETATM    7  C   UNL     1     -44.049 -53.266  12.463  1.00  0.00     0.017 C 
HETATM    8  C   UNL     1     -45.504 -53.525  12.869  1.00  0.00     0.084 C 
HETATM    9  C   UNL     1     -46.222 -52.217  13.234  1.00  0.00     0.017 C 
HETATM   10  C   UNL     1     -45.451 -51.357  14.238  1.00  0.00     0.026 C 
BRANCH   8  11
HETATM   11  C   UNL     1     -45.616 -54.563  13.982  1.00  0.00     0.143 C 
HETATM   12  O   UNL     1     -44.691 -55.236  14.408  1.00  0.00    -0.650 OA
BRANCH  11  13
HETATM   13  O   UNL     1     -46.860 -54.655  14.504  1.00  0.00    -0.776 OA
HETATM   14  H   UNL     1     -47.219 -55.561  14.541  1.00  0.00     0.167 HD
ENDBRANCH  11  13
ENDBRANCH   8  11
ENDBRANCH   1   5
BRANCH   2  15
HETATM   15  C   UNL     1     -42.982 -48.301  11.454  1.00  0.00     0.141 C 
BRANCH  15  16
HETATM   16  C   UNL     1     -42.094 -47.089  11.571  1.00  0.00    -0.047 A 
HETATM   17  C   UNL     1     -42.498 -45.967  12.298  1.00  0.00     0.024 A 
HETATM   18  C   UNL     1     -41.639 -44.881  12.377  1.00  0.00     0.088 A 
HETATM   19  N   UNL     1     -40.424 -44.839  11.790  1.00  0.00    -0.375 N 
HETATM   20  C   UNL     1     -40.047 -45.936  11.100  1.00  0.00     0.088 A 
ATOM     21  HN  UNL     1     -39.822 -44.019  11.865  1.00  0.00     0.164 HD
HETATM   22  C   UNL     1     -40.833 -47.069  10.966  1.00  0.00     0.024 A 
ENDBRANCH  15  16
ENDBRANCH   2  15
TORSDOF 5
ENDMDL
MODEL 6
REMARK VINA RESULT:      -5.4      2.020      2.817
REMARK  5 active torsions:
REMARK  status: ('A' for Active; 'I' for Inactive)
REMARK    1  A    between atoms: O_1  and  C_2 
REMARK    2  A    between atoms: C_2  and  C_4 
REMARK    3  A    between atoms: C_7  and  N_10 
REMARK       I    between atoms: N_10  and  C_11 
REMARK    4  A    between atoms: C_11  and  C_13 
REMARK    5  A    between atoms: C_13  and  C_14 
ROOT
HETATM    1  N   UNL     1     -44.990 -52.647  14.623  1.00  0.00    -0.356 N 
HETATM    2  C   UNL     1     -46.053 -52.999  15.432  1.00  0.00     0.222 C 
HETATM    3  O   UNL     1     -46.101 -54.048  16.070  1.00  0.00    -0.273 OA
HETATM    4  H   UNL     1     -44.940 -51.694  14.290  1.00  0.00     0.162 HD
ENDROOT
BRANCH   1   5
HETATM    5  C   UNL     1     -43.813 -53.499  14.494  1.00  0.00     0.084 C 
HETATM    6  C   UNL     1     -42.565 -52.828  15.082  1.00  0.00     0.026 C 
HETATM    7  C   UNL     1     -42.031 -51.685  14.217  1.00  0.00     0.017 C 
HETATM    8  C   UNL     1     -41.803 -52.088  12.756  1.00  0.00     0.084 C 
HETATM    9  C   UNL     1     -43.048 -52.767  12.165  1.00  0.00     0.017 C 
HETATM   10  C   UNL     1     -43.595 -53.902  13.034  1.00  0.00     0.026 C 
BRANCH   8  11
HETATM   11  C   UNL     1     -40.553 -52.945  12.582  1.00  0.00     0.143 C 
HETATM   12  O   UNL     1     -39.671 -53.074  13.415  1.00  0.00    -0.650 OA
BRANCH  11  13
HETATM   13  O   UNL     1     -40.517 -53.605  11.402  1.00  0.00    -0.776 OA
HETATM   14  H   UNL     1     -41.317 -53.501  10.854  1.00  0.00     0.167 HD
ENDBRANCH  11  13
ENDBRANCH   8  11
ENDBRANCH   1   5
BRANCH   2  15
HETATM   15  C   UNL     1     -47.169 -51.970  15.479  1.00  0.00     0.141 C 
BRANCH  15  16
HETATM   16  C   UNL     1     -47.122 -51.121  16.723  1.00  0.00    -0.047 A 
HETATM   17  C   UNL     1     -45.967 -50.415  17.070  1.00  0.00     0.024 A 
HETATM   18  C   UNL     1     -45.981 -49.644  18.223  1.00  0.00     0.088 A 
HETATM   19  N   UNL     1     -47.049 -49.532  19.041  1.00  0.00    -0.375 N 
HETATM   20  C   UNL     1     -48.158 -50.213  18.684  1.00  0.00     0.088 A 
ATOM     21  HN  UNL     1     -47.019 -48.961  19.885  1.00  0.00     0.164 HD
HETATM   22  C   UNL     1     -48.243 -51.007  17.551  1.00  0.00     0.024 A 
ENDBRANCH  15  16
ENDBRANCH   2  15
TORSDOF 5
ENDMDL
MODEL 7
REMARK VINA RESULT:      -5.4      3.420      6.483
REMARK  5 active torsions:
REMARK  status: ('A' for Active; 'I' for Inactive)
REMARK    1  A    between atoms: O_1  and  C_2 
REMARK    2  A    between atoms: C_2  and  C_4 
REMARK    3  A    between atoms: C_7  and  N_10 
REMARK       I    between atoms: N_10  and  C_11 
REMARK    4  A    between atoms: C_11  and  C_13 
REMARK    5  A    between atoms: C_13  and  C_14 
ROOT
HETATM    1  N   UNL     1     -41.167 -51.926  14.660  1.00  0.00    -0.356 N 
HETATM    2  C   UNL     1     -40.389 -51.012  15.346  1.00  0.00     0.222 C 
HETATM    3  O   UNL     1     -40.832 -50.254  16.204  1.00  0.00    -0.273 OA
HETATM    4  H   UNL     1     -40.697 -52.638  14.117  1.00  0.00     0.162 HD
ENDROOT
BRANCH   1   5
HETATM    5  C   UNL     1     -42.591 -52.077  14.937  1.00  0.00     0.084 C 
HETATM    6  C   UNL     1     -42.911 -53.470  15.492  1.00  0.00     0.026 C 
HETATM    7  C   UNL     1     -42.836 -54.573  14.434  1.00  0.00     0.017 C 
HETATM    8  C   UNL     1     -43.673 -54.271  13.186  1.00  0.00     0.084 C 
HETATM    9  C   UNL     1     -43.360 -52.874  12.630  1.00  0.00     0.017 C 
HETATM   10  C   UNL     1     -43.420 -51.769  13.688  1.00  0.00     0.026 C 
BRANCH   8  11
HETATM   11  C   UNL     1     -45.166 -54.462  13.432  1.00  0.00     0.143 C 
HETATM   12  O   UNL     1     -45.649 -55.235  14.244  1.00  0.00    -0.650 OA
BRANCH  11  13
HETATM   13  O   UNL     1     -45.941 -53.650  12.677  1.00  0.00    -0.776 OA
HETATM   14  H   UNL     1     -46.808 -53.439  13.068  1.00  0.00     0.167 HD
ENDBRANCH  11  13
ENDBRANCH   8  11
ENDBRANCH   1   5
BRANCH   2  15
HETATM   15  C   UNL     1     -38.921 -51.027  14.957  1.00  0.00     0.141 C 
BRANCH  15  16
HETATM   16  C   UNL     1     -38.672 -50.414  13.603  1.00  0.00    -0.047 A 
HETATM   17  C   UNL     1     -39.431 -49.331  13.153  1.00  0.00     0.024 A 
HETATM   18  C   UNL     1     -39.157 -48.803  11.900  1.00  0.00     0.088 A 
HETATM   19  N   UNL     1     -38.194 -49.274  11.079  1.00  0.00    -0.375 N 
HETATM   20  C   UNL     1     -37.465 -50.314  11.536  1.00  0.00     0.088 A 
ATOM     21  HN  UNL     1     -38.026 -48.864  10.161  1.00  0.00     0.164 HD
HETATM   22  C   UNL     1     -37.662 -50.908  12.772  1.00  0.00     0.024 A 
ENDBRANCH  15  16
ENDBRANCH   2  15
TORSDOF 5
ENDMDL
MODEL 8
REMARK VINA RESULT:      -5.3      2.880      4.360
REMARK  5 active torsions:
REMARK  status: ('A' for Active; 'I' for Inactive)
REMARK    1  A    between atoms: O_1  and  C_2 
REMARK    2  A    between atoms: C_2  and  C_4 
REMARK    3  A    between atoms: C_7  and  N_10 
REMARK       I    between atoms: N_10  and  C_11 
REMARK    4  A    between atoms: C_11  and  C_13 
REMARK    5  A    between atoms: C_13  and  C_14 
ROOT
HETATM    1  N   UNL     1     -41.889 -52.434  13.961  1.00  0.00    -0.356 N 
HETATM    2  C   UNL     1     -42.900 -51.937  13.161  1.00  0.00     0.222 C 
HETATM    3  O   UNL     1     -43.534 -52.626  12.366  1.00  0.00    -0.273 OA
HETATM    4  H   UNL     1     -41.553 -51.853  14.718  1.00  0.00     0.162 HD
ENDROOT
BRANCH   1   5
HETATM    5  C   UNL     1     -41.518 -53.844  13.938  1.00  0.00     0.084 C 
HETATM    6  C   UNL     1     -41.845 -54.532  15.270  1.00  0.00     0.026 C 
HETATM    7  C   UNL     1     -40.896 -54.137  16.402  1.00  0.00     0.017 C 
HETATM    8  C   UNL     1     -39.417 -54.310  16.040  1.00  0.00     0.084 C 
HETATM    9  C   UNL     1     -39.087 -53.628  14.704  1.00  0.00     0.017 C 
HETATM   10  C   UNL     1     -40.042 -54.010  13.571  1.00  0.00     0.026 C 
BRANCH   8  11
HETATM   11  C   UNL     1     -38.988 -55.774  16.050  1.00  0.00     0.143 C 
HETATM   12  O   UNL     1     -39.626 -56.687  16.549  1.00  0.00    -0.650 OA
BRANCH  11  13
HETATM   13  O   UNL     1     -37.820 -55.993  15.405  1.00  0.00    -0.776 OA
HETATM   14  H   UNL     1     -37.833 -55.774  14.455  1.00  0.00     0.167 HD
ENDBRANCH  11  13
ENDBRANCH   8  11
ENDBRANCH   1   5
BRANCH   2  15
HETATM   15  C   UNL     1     -43.178 -50.457  13.352  1.00  0.00     0.141 C 
BRANCH  15  16
HETATM   16  C   UNL     1     -42.495 -49.600  12.317  1.00  0.00    -0.047 A 
HETATM   17  C   UNL     1     -41.225 -49.927  11.836  1.00  0.00     0.024 A 
HETATM   18  C   UNL     1     -40.645 -49.106  10.880  1.00  0.00     0.088 A 
HETATM   19  N   UNL     1     -41.235 -48.000  10.380  1.00  0.00    -0.375 N 
HETATM   20  C   UNL     1     -42.466 -47.706  10.850  1.00  0.00     0.088 A 
ATOM     21  HN  UNL     1     -40.774 -47.416   9.682  1.00  0.00     0.164 HD
HETATM   22  C   UNL     1     -43.128 -48.465  11.802  1.00  0.00     0.024 A 
ENDBRANCH  15  16
ENDBRANCH   2  15
TORSDOF 5
ENDMDL
MODEL 9
REMARK VINA RESULT:      -5.2      2.232      3.252
REMARK  5 active torsions:
REMARK  status: ('A' for Active; 'I' for Inactive)
REMARK    1  A    between atoms: O_1  and  C_2 
REMARK    2  A    between atoms: C_2  and  C_4 
REMARK    3  A    between atoms: C_7  and  N_10 
REMARK       I    between atoms: N_10  and  C_11 
REMARK    4  A    between atoms: C_11  and  C_13 
REMARK    5  A    between atoms: C_13  and  C_14 
ROOT
HETATM    1  N   UNL     1     -44.688 -51.866  14.940  1.00  0.00    -0.356 N 
HETATM    2  C   UNL     1     -45.388 -50.995  15.753  1.00  0.00     0.222 C 
HETATM    3  O   UNL     1     -44.870 -50.043  16.330  1.00  0.00    -0.273 OA
HETATM    4  H   UNL     1     -45.216 -52.499  14.355  1.00  0.00     0.162 HD
ENDROOT
BRANCH   1   5
HETATM    5  C   UNL     1     -43.263 -51.692  14.682  1.00  0.00     0.084 C 
HETATM    6  C   UNL     1     -42.972 -51.592  13.179  1.00  0.00     0.026 C 
HETATM    7  C   UNL     1     -43.104 -52.930  12.449  1.00  0.00     0.017 C 
HETATM    8  C   UNL     1     -42.288 -54.055  13.095  1.00  0.00     0.084 C 
HETATM    9  C   UNL     1     -42.572 -54.154  14.601  1.00  0.00     0.017 C 
HETATM   10  C   UNL     1     -42.454 -52.816  15.334  1.00  0.00     0.026 C 
BRANCH   8  11
HETATM   11  C   UNL     1     -40.796 -53.924  12.806  1.00  0.00     0.143 C 
HETATM   12  O   UNL     1     -39.904 -54.242  13.575  1.00  0.00    -0.650 OA
BRANCH  11  13
HETATM   13  O   UNL     1     -40.531 -53.446  11.569  1.00  0.00    -0.776 OA
HETATM   14  H   UNL     1     -41.041 -53.866  10.853  1.00  0.00     0.167 HD
ENDBRANCH  11  13
ENDBRANCH   8  11
ENDBRANCH   1   5
BRANCH   2  15
HETATM   15  C   UNL     1     -46.870 -51.305  15.870  1.00  0.00     0.141 C 
BRANCH  15  16
HETATM   16  C   UNL     1     -47.270 -51.710  17.265  1.00  0.00    -0.047 A 
HETATM   17  C   UNL     1     -46.593 -52.728  17.941  1.00  0.00     0.024 A 
HETATM   18  C   UNL     1     -47.000 -53.057  19.226  1.00  0.00     0.088 A 
HETATM   19  N   UNL     1     -48.019 -52.450  19.871  1.00  0.00    -0.375 N 
HETATM   20  C   UNL     1     -48.654 -51.463  19.205  1.00  0.00     0.088 A 
ATOM     21  HN  UNL     1     -48.295 -52.724  20.814  1.00  0.00     0.164 HD
HETATM   22  C   UNL     1     -48.320 -51.061  17.921  1.00  0.00     0.024 A 
ENDBRANCH  15  16
ENDBRANCH   2  15
TORSDOF 5
ENDMDL
