MODEL 1
REMARK VINA RESULT:      -5.6      0.000      0.000
REMARK  5 active torsions:
REMARK  status: ('A' for Active; 'I' for Inactive)
REMARK    1  A    between atoms: N_5  and  C_6 
REMARK    2  A    between atoms: C_6  and  C_7 
REMARK    3  A    between atoms: C_7  and  N_8 
REMARK       I    between atoms: N_8  and  C_9 
REMARK    4  A    between atoms: C_9  and  C_11 
REMARK    5  A    between atoms: C_11  and  C_12 
ROOT
HETATM    1  N   UNL     1     -42.152 -49.942  11.725  1.00  0.00    -0.359 N 
HETATM    2  C   UNL     1     -42.478 -48.613  11.556  1.00  0.00     0.222 C 
HETATM    3  O   UNL     1     -43.035 -47.943  12.421  1.00  0.00    -0.273 OA
HETATM    4  H   UNL     1     -41.632 -50.423  11.003  1.00  0.00     0.162 HD
ENDROOT
BRANCH   1   5
HETATM    5  C   UNL     1     -42.372 -50.620  12.990  1.00  0.00     0.152 C 
BRANCH   5   6
HETATM    6  C   UNL     1     -42.577 -52.139  12.826  1.00  0.00     0.292 C 
BRANCH   6   7
HETATM    7  N   UNL     1     -42.981 -52.833  14.066  1.00  0.00     0.093 N 
HETATM    8  C   UNL     1     -43.407 -54.230  13.852  1.00  0.00     0.302 C 
HETATM    9  C   UNL     1     -44.766 -54.377  13.128  1.00  0.00     0.302 C 
HETATM   10  N   UNL     1     -45.881 -53.653  13.770  1.00  0.00     0.087 N 
HETATM   11  C   UNL     1     -46.326 -54.342  14.981  1.00  0.00     0.310 C 
HETATM   12  C   UNL     1     -45.473 -52.262  14.063  1.00  0.00     0.302 C 
HETATM   13  C   UNL     1     -44.084 -52.107  14.738  1.00  0.00     0.302 C 
ENDBRANCH   6   7
ENDBRANCH   5   6
ENDBRANCH   1   5
BRANCH   2  14
HETATM   14  C   UNL     1     -42.078 -48.031  10.213  1.00  0.00     0.146 C 
BRANCH  14  15
HETATM   15  C   UNL     1     -42.770 -46.743   9.935  1.00  0.00     0.006 A 
HETATM   16  C   UNL     1     -44.029 -46.527   9.300  1.00  0.00     0.038 A 
HETATM   17  C   UNL     1     -44.998 -47.515   8.766  1.00  0.00     0.071 C 
HETATM   18  N   UNL     1     -44.316 -45.223   9.219  1.00  0.00    -0.265 N 
HETATM   19  O   UNL     1     -43.248 -44.562   9.788  1.00  0.00    -0.242 OA
ATOM     20  HN  UNL     1     -45.154 -44.802   8.818  1.00  0.00     0.194 HD
HETATM   21  C   UNL     1     -42.330 -45.465  10.214  1.00  0.00     0.081 A 
HETATM   22  C   UNL     1     -41.117 -44.908  10.844  1.00  0.00     0.079 C 
ENDBRANCH  14  15
ENDBRANCH   2  14
TORSDOF 5
ENDMDL
MODEL 2
REMARK VINA RESULT:      -5.6      2.526      7.500
REMARK  5 active torsions:
REMARK  status: ('A' for Active; 'I' for Inactive)
REMARK    1  A    between atoms: N_5  and  C_6 
REMARK    2  A    between atoms: C_6  and  C_7 
REMARK    3  A    between atoms: C_7  and  N_8 
REMARK       I    between atoms: N_8  and  C_9 
REMARK    4  A    between atoms: C_9  and  C_11 
REMARK    5  A    between atoms: C_11  and  C_12 
ROOT
HETATM    1  N   UNL     1     -41.566 -51.901  11.757  1.00  0.00    -0.359 N 
HETATM    2  C   UNL     1     -42.633 -52.117  12.602  1.00  0.00     0.222 C 
HETATM    3  O   UNL     1     -42.782 -51.519  13.664  1.00  0.00    -0.273 OA
HETATM    4  H   UNL     1     -41.534 -52.373  10.864  1.00  0.00     0.162 HD
ENDROOT
BRANCH   1   5
HETATM    5  C   UNL     1     -40.579 -50.872  12.033  1.00  0.00     0.152 C 
BRANCH   5   6
HETATM    6  C   UNL     1     -40.820 -49.581  11.226  1.00  0.00     0.292 C 
BRANCH   6   7
HETATM    7  N   UNL     1     -41.551 -48.531  11.966  1.00  0.00     0.093 N 
HETATM    8  C   UNL     1     -42.795 -48.094  11.301  1.00  0.00     0.302 C 
HETATM    9  C   UNL     1     -42.572 -47.267  10.014  1.00  0.00     0.302 C 
HETATM   10  N   UNL     1     -41.709 -46.082  10.191  1.00  0.00     0.087 N 
HETATM   11  C   UNL     1     -42.422 -45.012  10.888  1.00  0.00     0.310 C 
HETATM   12  C   UNL     1     -40.476 -46.464  10.914  1.00  0.00     0.302 C 
HETATM   13  C   UNL     1     -40.692 -47.342  12.175  1.00  0.00     0.302 C 
ENDBRANCH   6   7
ENDBRANCH   5   6
ENDBRANCH   1   5
BRANCH   2  14
HETATM   14  C   UNL     1     -43.631 -53.149  12.108  1.00  0.00     0.146 C 
BRANCH  14  15
HETATM   15  C   UNL     1     -44.718 -53.392  13.095  1.00  0.00     0.006 A 
HETATM   16  C   UNL     1     -46.018 -52.810  13.149  1.00  0.00     0.038 A 
HETATM   17  C   UNL     1     -46.651 -51.828  12.234  1.00  0.00     0.071 C 
HETATM   18  N   UNL     1     -46.714 -53.270  14.195  1.00  0.00    -0.265 N 
HETATM   19  O   UNL     1     -45.881 -54.151  14.849  1.00  0.00    -0.242 OA
ATOM     20  HN  UNL     1     -47.668 -53.020  14.455  1.00  0.00     0.194 HD
HETATM   21  C   UNL     1     -44.694 -54.224  14.196  1.00  0.00     0.081 A 
HETATM   22  C   UNL     1     -43.687 -55.129  14.783  1.00  0.00     0.079 C 
ENDBRANCH  14  15
ENDBRANCH   2  14
TORSDOF 5
ENDMDL
MODEL 3
REMARK VINA RESULT:      -5.6      1.724      2.681
REMARK  5 active torsions:
REMARK  status: ('A' for Active; 'I' for Inactive)
REMARK    1  A    between atoms: N_5  and  C_6 
REMARK    2  A    between atoms: C_6  and  C_7 
REMARK    3  A    between atoms: C_7  and  N_8 
REMARK       I    between atoms: N_8  and  C_9 
REMARK    4  A    between atoms: C_9  and  C_11 
REMARK    5  A    between atoms: C_11  and  C_12 
ROOT
HETATM    1  N   UNL     1     -43.242 -49.219  12.032  1.00  0.00    -0.359 N 
HETATM    2  C   UNL     1     -42.065 -48.608  11.658  1.00  0.00     0.222 C 
HETATM    3  O   UNL     1     -41.131 -48.416  12.432  1.00  0.00    -0.273 OA
HETATM    4  H   UNL     1     -43.947 -49.411  11.334  1.00  0.00     0.162 HD
ENDROOT
BRANCH   1   5
HETATM    5  C   UNL     1     -43.421 -49.761  13.367  1.00  0.00     0.152 C 
BRANCH   5   6
HETATM    6  C   UNL     1     -43.387 -51.301  13.396  1.00  0.00     0.292 C 
BRANCH   6   7
HETATM    7  N   UNL     1     -42.460 -51.869  14.397  1.00  0.00     0.093 N 
HETATM    8  C   UNL     1     -41.045 -51.526  14.156  1.00  0.00     0.302 C 
HETATM    9  C   UNL     1     -40.419 -52.231  12.930  1.00  0.00     0.302 C 
HETATM   10  N   UNL     1     -40.535 -53.702  12.946  1.00  0.00     0.087 N 
HETATM   11  C   UNL     1     -39.600 -54.293  13.903  1.00  0.00     0.310 C 
HETATM   12  C   UNL     1     -41.929 -54.092  13.250  1.00  0.00     0.302 C 
HETATM   13  C   UNL     1     -42.581 -53.345  14.445  1.00  0.00     0.302 C 
ENDBRANCH   6   7
ENDBRANCH   5   6
ENDBRANCH   1   5
BRANCH   2  14
HETATM   14  C   UNL     1     -42.001 -48.200  10.197  1.00  0.00     0.146 C 
BRANCH  14  15
HETATM   15  C   UNL     1     -42.652 -46.883   9.956  1.00  0.00     0.006 A 
HETATM   16  C   UNL     1     -43.915 -46.612   9.351  1.00  0.00     0.038 A 
HETATM   17  C   UNL     1     -44.928 -47.554   8.819  1.00  0.00     0.071 C 
HETATM   18  N   UNL     1     -44.156 -45.296   9.299  1.00  0.00    -0.265 N 
HETATM   19  O   UNL     1     -43.055 -44.685   9.858  1.00  0.00    -0.242 OA
ATOM     20  HN  UNL     1     -44.986 -44.839   8.922  1.00  0.00     0.194 HD
HETATM   21  C   UNL     1     -42.161 -45.628  10.249  1.00  0.00     0.081 A 
HETATM   22  C   UNL     1     -40.917 -45.125  10.865  1.00  0.00     0.079 C 
ENDBRANCH  14  15
ENDBRANCH   2  14
TORSDOF 5
ENDMDL
MODEL 4
REMARK VINA RESULT:      -5.5      3.214      7.161
REMARK  5 active torsions:
REMARK  status: ('A' for Active; 'I' for Inactive)
REMARK    1  A    between atoms: N_5  and  C_6 
REMARK    2  A    between atoms: C_6  and  C_7 
REMARK    3  A    between atoms: C_7  and  N_8 
REMARK       I    between atoms: N_8  and  C_9 
REMARK    4  A    between atoms: C_9  and  C_11 
REMARK    5  A    between atoms: C_11  and  C_12 
ROOT
HETATM    1  N   UNL     1     -42.923 -52.721  12.056  1.00  0.00    -0.359 N 
HETATM    2  C   UNL     1     -43.294 -53.721  12.930  1.00  0.00     0.222 C 
HETATM    3  O   UNL     1     -42.493 -54.326  13.638  1.00  0.00    -0.273 OA
HETATM    4  H   UNL     1     -43.635 -52.212  11.551  1.00  0.00     0.162 HD
ENDROOT
BRANCH   1   5
HETATM    5  C   UNL     1     -41.551 -52.254  11.980  1.00  0.00     0.152 C 
BRANCH   5   6
HETATM    6  C   UNL     1     -41.276 -51.052  12.905  1.00  0.00     0.292 C 
BRANCH   6   7
HETATM    7  N   UNL     1     -40.139 -50.208  12.482  1.00  0.00     0.093 N 
HETATM    8  C   UNL     1     -39.933 -49.020  13.333  1.00  0.00     0.302 C 
HETATM    9  C   UNL     1     -41.017 -47.929  13.175  1.00  0.00     0.302 C 
HETATM   10  N   UNL     1     -41.222 -47.467  11.788  1.00  0.00     0.087 N 
HETATM   11  C   UNL     1     -40.126 -46.598  11.358  1.00  0.00     0.310 C 
HETATM   12  C   UNL     1     -41.367 -48.632  10.888  1.00  0.00     0.302 C 
HETATM   13  C   UNL     1     -40.314 -49.755  11.083  1.00  0.00     0.302 C 
ENDBRANCH   6   7
ENDBRANCH   5   6
ENDBRANCH   1   5
BRANCH   2  14
HETATM   14  C   UNL     1     -44.784 -54.009  12.965  1.00  0.00     0.146 C 
BRANCH  14  15
HETATM   15  C   UNL     1     -45.544 -52.934  13.658  1.00  0.00     0.006 A 
HETATM   16  C   UNL     1     -45.567 -52.614  15.048  1.00  0.00     0.038 A 
HETATM   17  C   UNL     1     -44.833 -53.241  16.173  1.00  0.00     0.071 C 
HETATM   18  N   UNL     1     -46.383 -51.582  15.296  1.00  0.00    -0.265 N 
HETATM   19  O   UNL     1     -46.915 -51.216  14.078  1.00  0.00    -0.242 OA
ATOM     20  HN  UNL     1     -46.573 -51.154  16.202  1.00  0.00     0.194 HD
HETATM   21  C   UNL     1     -46.417 -52.019  13.104  1.00  0.00     0.081 A 
HETATM   22  C   UNL     1     -46.900 -51.754  11.736  1.00  0.00     0.079 C 
ENDBRANCH  14  15
ENDBRANCH   2  14
TORSDOF 5
ENDMDL
MODEL 5
REMARK VINA RESULT:      -5.5      2.722      7.902
REMARK  5 active torsions:
REMARK  status: ('A' for Active; 'I' for Inactive)
REMARK    1  A    between atoms: N_5  and  C_6 
REMARK    2  A    between atoms: C_6  and  C_7 
REMARK    3  A    between atoms: C_7  and  N_8 
REMARK       I    between atoms: N_8  and  C_9 
REMARK    4  A    between atoms: C_9  and  C_11 
REMARK    5  A    between atoms: C_11  and  C_12 
ROOT
HETATM    1  N   UNL     1     -43.243 -50.742  12.477  1.00  0.00    -0.359 N 
HETATM    2  C   UNL     1     -42.660 -51.927  12.871  1.00  0.00     0.222 C 
HETATM    3  O   UNL     1     -41.669 -51.981  13.594  1.00  0.00    -0.273 OA
HETATM    4  H   UNL     1     -44.098 -50.763  11.938  1.00  0.00     0.162 HD
ENDROOT
BRANCH   1   5
HETATM    5  C   UNL     1     -42.766 -49.463  12.971  1.00  0.00     0.152 C 
BRANCH   5   6
HETATM    6  C   UNL     1     -43.057 -48.301  12.002  1.00  0.00     0.292 C 
BRANCH   6   7
HETATM    7  N   UNL     1     -42.051 -48.137  10.931  1.00  0.00     0.093 N 
HETATM    8  C   UNL     1     -40.676 -47.948  11.434  1.00  0.00     0.302 C 
HETATM    9  C   UNL     1     -40.427 -46.579  12.108  1.00  0.00     0.302 C 
HETATM   10  N   UNL     1     -40.771 -45.414  11.269  1.00  0.00     0.087 N 
HETATM   11  C   UNL     1     -39.769 -45.206  10.224  1.00  0.00     0.310 C 
HETATM   12  C   UNL     1     -42.120 -45.593  10.690  1.00  0.00     0.302 C 
HETATM   13  C   UNL     1     -42.393 -46.986  10.063  1.00  0.00     0.302 C 
ENDBRANCH   6   7
ENDBRANCH   5   6
ENDBRANCH   1   5
BRANCH   2  14
HETATM   14  C   UNL     1     -43.352 -53.175  12.352  1.00  0.00     0.146 C 
BRANCH  14  15
HETATM   15  C   UNL     1     -44.453 -53.616  13.251  1.00  0.00     0.006 A 
HETATM   16  C   UNL     1     -45.823 -53.217  13.244  1.00  0.00     0.038 A 
HETATM   17  C   UNL     1     -46.527 -52.278  12.337  1.00  0.00     0.071 C 
HETATM   18  N   UNL     1     -46.511 -53.825  14.217  1.00  0.00    -0.265 N 
HETATM   19  O   UNL     1     -45.606 -54.623  14.882  1.00  0.00    -0.242 OA
ATOM     20  HN  UNL     1     -47.504 -53.720  14.424  1.00  0.00     0.194 HD
HETATM   21  C   UNL     1     -44.383 -54.500  14.309  1.00  0.00     0.081 A 
HETATM   22  C   UNL     1     -43.298 -55.293  14.918  1.00  0.00     0.079 C 
ENDBRANCH  14  15
ENDBRANCH   2  14
TORSDOF 5
ENDMDL
MODEL 6
REMARK VINA RESULT:      -5.5      4.274      7.428
REMARK  5 active torsions:
REMARK  status: ('A' for Active; 'I' for Inactive)
REMARK    1  A    between atoms: N_5  and  C_6 
REMARK    2  A    between atoms: C_6  and  C_7 
REMARK    3  A    between atoms: C_7  and  N_8 
REMARK       I    between atoms: N_8  and  C_9 
REMARK    4  A    between atoms: C_9  and  C_11 
REMARK    5  A    between atoms: C_11  and  C_12 
ROOT
HETATM    1  N   UNL     1     -43.196 -54.052  13.367  1.00  0.00    -0.359 N 
HETATM    2  C   UNL     1     -44.013 -54.830  14.158  1.00  0.00     0.222 C 
HETATM    3  O   UNL     1     -43.586 -55.593  15.021  1.00  0.00    -0.273 OA
HETATM    4  H   UNL     1     -43.609 -53.393  12.721  1.00  0.00     0.162 HD
ENDROOT
BRANCH   1   5
HETATM    5  C   UNL     1     -41.758 -54.019  13.567  1.00  0.00     0.152 C 
BRANCH   5   6
HETATM    6  C   UNL     1     -41.063 -52.926  12.732  1.00  0.00     0.292 C 
BRANCH   6   7
HETATM    7  N   UNL     1     -41.017 -51.601  13.385  1.00  0.00     0.093 N 
HETATM    8  C   UNL     1     -41.516 -50.503  12.534  1.00  0.00     0.302 C 
HETATM    9  C   UNL     1     -40.586 -50.139  11.354  1.00  0.00     0.302 C 
HETATM   10  N   UNL     1     -39.199 -49.819  11.745  1.00  0.00     0.087 N 
HETATM   11  C   UNL     1     -39.120 -48.494  12.361  1.00  0.00     0.310 C 
HETATM   12  C   UNL     1     -38.681 -50.864  12.655  1.00  0.00     0.302 C 
HETATM   13  C   UNL     1     -39.636 -51.272  13.808  1.00  0.00     0.302 C 
ENDBRANCH   6   7
ENDBRANCH   5   6
ENDBRANCH   1   5
BRANCH   2  14
HETATM   14  C   UNL     1     -45.498 -54.661  13.891  1.00  0.00     0.146 C 
BRANCH  14  15
HETATM   15  C   UNL     1     -46.034 -53.409  14.493  1.00  0.00     0.006 A 
HETATM   16  C   UNL     1     -46.495 -52.231  13.835  1.00  0.00     0.038 A 
HETATM   17  C   UNL     1     -46.587 -51.935  12.385  1.00  0.00     0.071 C 
HETATM   18  N   UNL     1     -46.894 -51.307  14.717  1.00  0.00    -0.265 N 
HETATM   19  O   UNL     1     -46.693 -51.858  15.964  1.00  0.00    -0.242 OA
ATOM     20  HN  UNL     1     -47.271 -50.382  14.508  1.00  0.00     0.194 HD
HETATM   21  C   UNL     1     -46.182 -53.108  15.832  1.00  0.00     0.081 A 
HETATM   22  C   UNL     1     -45.904 -53.830  17.088  1.00  0.00     0.079 C 
ENDBRANCH  14  15
ENDBRANCH   2  14
TORSDOF 5
ENDMDL
MODEL 7
REMARK VINA RESULT:      -5.4      2.589      7.733
REMARK  5 active torsions:
REMARK  status: ('A' for Active; 'I' for Inactive)
REMARK    1  A    between atoms: N_5  and  C_6 
REMARK    2  A    between atoms: C_6  and  C_7 
REMARK    3  A    between atoms: C_7  and  N_8 
REMARK       I    between atoms: N_8  and  C_9 
REMARK    4  A    between atoms: C_9  and  C_11 
REMARK    5  A    between atoms: C_11  and  C_12 
ROOT
HETATM    1  N   UNL     1     -41.756 -51.639  11.706  1.00  0.00    -0.359 N 
HETATM    2  C   UNL     1     -42.679 -52.019  12.658  1.00  0.00     0.222 C 
HETATM    3  O   UNL     1     -42.739 -51.512  13.774  1.00  0.00    -0.273 OA
HETATM    4  H   UNL     1     -41.799 -52.045  10.781  1.00  0.00     0.162 HD
ENDROOT
BRANCH   1   5
HETATM    5  C   UNL     1     -40.840 -50.538  11.939  1.00  0.00     0.152 C 
BRANCH   5   6
HETATM    6  C   UNL     1     -41.209 -49.273  11.138  1.00  0.00     0.292 C 
BRANCH   6   7
HETATM    7  N   UNL     1     -41.693 -48.150  11.967  1.00  0.00     0.093 N 
HETATM    8  C   UNL     1     -42.839 -47.429  11.378  1.00  0.00     0.302 C 
HETATM    9  C   UNL     1     -42.485 -46.579  10.136  1.00  0.00     0.302 C 
HETATM   10  N   UNL     1     -41.396 -45.607  10.350  1.00  0.00     0.087 N 
HETATM   11  C   UNL     1     -41.859 -44.464  11.138  1.00  0.00     0.310 C 
HETATM   12  C   UNL     1     -40.248 -46.275  11.001  1.00  0.00     0.302 C 
HETATM   13  C   UNL     1     -40.605 -47.174  12.214  1.00  0.00     0.302 C 
ENDBRANCH   6   7
ENDBRANCH   5   6
ENDBRANCH   1   5
BRANCH   2  14
HETATM   14  C   UNL     1     -43.634 -53.110  12.211  1.00  0.00     0.146 C 
BRANCH  14  15
HETATM   15  C   UNL     1     -44.726 -53.334  13.197  1.00  0.00     0.006 A 
HETATM   16  C   UNL     1     -44.745 -54.211  14.321  1.00  0.00     0.038 A 
HETATM   17  C   UNL     1     -43.687 -55.118  14.828  1.00  0.00     0.071 C 
HETATM   18  N   UNL     1     -45.914 -54.145  14.969  1.00  0.00    -0.265 N 
HETATM   19  O   UNL     1     -46.683 -53.234  14.278  1.00  0.00    -0.242 OA
ATOM     20  HN  UNL     1     -46.182 -54.664  15.806  1.00  0.00     0.194 HD
HETATM   21  C   UNL     1     -45.977 -52.751  13.224  1.00  0.00     0.081 A 
HETATM   22  C   UNL     1     -46.673 -51.764  12.377  1.00  0.00     0.079 C 
ENDBRANCH  14  15
ENDBRANCH   2  14
TORSDOF 5
ENDMDL
MODEL 8
REMARK VINA RESULT:      -5.3      2.711      7.445
REMARK  5 active torsions:
REMARK  status: ('A' for Active; 'I' for Inactive)
REMARK    1  A    between atoms: N_5  and  C_6 
REMARK    2  A    between atoms: C_6  and  C_7 
REMARK    3  A    between atoms: C_7  and  N_8 
REMARK       I    between atoms: N_8  and  C_9 
REMARK    4  A    between atoms: C_9  and  C_11 
REMARK    5  A    between atoms: C_11  and  C_12 
ROOT
HETATM    1  N   UNL     1     -42.263 -50.073  11.900  1.00  0.00    -0.359 N 
HETATM    2  C   UNL     1     -42.076 -50.372  13.233  1.00  0.00     0.222 C 
HETATM    3  O   UNL     1     -41.003 -50.221  13.811  1.00  0.00    -0.273 OA
HETATM    4  H   UNL     1     -43.186 -50.154  11.496  1.00  0.00     0.162 HD
ENDROOT
BRANCH   1   5
HETATM    5  C   UNL     1     -41.208 -49.469  11.106  1.00  0.00     0.152 C 
BRANCH   5   6
HETATM    6  C   UNL     1     -41.592 -48.079  10.562  1.00  0.00     0.292 C 
BRANCH   6   7
HETATM    7  N   UNL     1     -40.657 -46.999  10.944  1.00  0.00     0.093 N 
HETATM    8  C   UNL     1     -40.395 -46.928  12.395  1.00  0.00     0.302 C 
HETATM    9  C   UNL     1     -41.590 -46.418  13.233  1.00  0.00     0.302 C 
HETATM   10  N   UNL     1     -42.126 -45.112  12.801  1.00  0.00     0.087 N 
HETATM   11  C   UNL     1     -41.237 -44.021  13.201  1.00  0.00     0.310 C 
HETATM   12  C   UNL     1     -42.342 -45.118  11.338  1.00  0.00     0.302 C 
HETATM   13  C   UNL     1     -41.167 -45.682  10.497  1.00  0.00     0.302 C 
ENDBRANCH   6   7
ENDBRANCH   5   6
ENDBRANCH   1   5
BRANCH   2  14
HETATM   14  C   UNL     1     -43.313 -50.892  13.942  1.00  0.00     0.146 C 
BRANCH  14  15
HETATM   15  C   UNL     1     -43.849 -52.123  13.301  1.00  0.00     0.006 A 
HETATM   16  C   UNL     1     -43.169 -53.342  13.006  1.00  0.00     0.038 A 
HETATM   17  C   UNL     1     -41.762 -53.725  13.272  1.00  0.00     0.071 C 
HETATM   18  N   UNL     1     -43.984 -54.222  12.412  1.00  0.00    -0.265 N 
HETATM   19  O   UNL     1     -45.205 -53.594  12.300  1.00  0.00    -0.242 OA
ATOM     20  HN  UNL     1     -43.749 -55.166  12.106  1.00  0.00     0.194 HD
HETATM   21  C   UNL     1     -45.126 -52.346  12.827  1.00  0.00     0.081 A 
HETATM   22  C   UNL     1     -46.361 -51.540  12.775  1.00  0.00     0.079 C 
ENDBRANCH  14  15
ENDBRANCH   2  14
TORSDOF 5
ENDMDL
MODEL 9
REMARK VINA RESULT:      -5.3      3.766      4.928
REMARK  5 active torsions:
REMARK  status: ('A' for Active; 'I' for Inactive)
REMARK    1  A    between atoms: N_5  and  C_6 
REMARK    2  A    between atoms: C_6  and  C_7 
REMARK    3  A    between atoms: C_7  and  N_8 
REMARK       I    between atoms: N_8  and  C_9 
REMARK    4  A    between atoms: C_9  and  C_11 
REMARK    5  A    between atoms: C_11  and  C_12 
ROOT
HETATM    1  N   UNL     1     -40.731 -52.983  14.960  1.00  0.00    -0.359 N 
HETATM    2  C   UNL     1     -39.620 -52.750  14.178  1.00  0.00     0.222 C 
HETATM    3  O   UNL     1     -39.015 -53.640  13.586  1.00  0.00    -0.273 OA
HETATM    4  H   UNL     1     -41.226 -52.202  15.366  1.00  0.00     0.162 HD
ENDROOT
BRANCH   1   5
HETATM    5  C   UNL     1     -41.317 -54.307  15.064  1.00  0.00     0.152 C 
BRANCH   5   6
HETATM    6  C   UNL     1     -42.496 -54.516  14.093  1.00  0.00     0.292 C 
BRANCH   6   7
HETATM    7  N   UNL     1     -43.777 -54.841  14.755  1.00  0.00     0.093 N 
HETATM    8  C   UNL     1     -44.928 -54.883  13.831  1.00  0.00     0.302 C 
HETATM    9  C   UNL     1     -45.364 -53.500  13.294  1.00  0.00     0.302 C 
HETATM   10  N   UNL     1     -45.656 -52.502  14.342  1.00  0.00     0.087 N 
HETATM   11  C   UNL     1     -46.939 -52.780  14.988  1.00  0.00     0.310 C 
HETATM   12  C   UNL     1     -44.555 -52.474  15.329  1.00  0.00     0.302 C 
HETATM   13  C   UNL     1     -44.076 -53.864  15.828  1.00  0.00     0.302 C 
ENDBRANCH   6   7
ENDBRANCH   5   6
ENDBRANCH   1   5
BRANCH   2  14
HETATM   14  C   UNL     1     -39.204 -51.293  14.089  1.00  0.00     0.146 C 
BRANCH  14  15
HETATM   15  C   UNL     1     -39.635 -50.667  12.809  1.00  0.00     0.006 A 
HETATM   16  C   UNL     1     -38.829 -50.233  11.715  1.00  0.00     0.038 A 
HETATM   17  C   UNL     1     -37.358 -50.304  11.540  1.00  0.00     0.071 C 
HETATM   18  N   UNL     1     -39.578 -49.706  10.739  1.00  0.00    -0.265 N 
HETATM   19  O   UNL     1     -40.882 -49.776  11.179  1.00  0.00    -0.242 OA
ATOM     20  HN  UNL     1     -39.250 -49.330   9.849  1.00  0.00     0.194 HD
HETATM   21  C   UNL     1     -40.916 -50.347  12.410  1.00  0.00     0.081 A 
HETATM   22  C   UNL     1     -42.252 -50.486  13.022  1.00  0.00     0.079 C 
ENDBRANCH  14  15
ENDBRANCH   2  14
TORSDOF 5
ENDMDL
