MODEL 1
REMARK VINA RESULT:      -6.4      0.000      0.000
REMARK  5 active torsions:
REMARK  status: ('A' for Active; 'I' for Inactive)
REMARK    1  A    between atoms: N_7  and  C_8 
REMARK    2  A    between atoms: C_8  and  C_9 
REMARK       I    between atoms: C_9  and  N_11 
REMARK    3  A    between atoms: N_11  and  C_12 
REMARK    4  A    between atoms: C_12  and  C_13 
REMARK    5  A    between atoms: C_13  and  N_14 
ROOT
HETATM    1  C   UNL     1     -41.253 -50.398  12.128  1.00  0.00     0.236 C 
HETATM    2  O   UNL     1     -41.358 -49.933  13.263  1.00  0.00    -0.272 OA
HETATM    3  N   UNL     1     -41.763 -51.634  11.776  1.00  0.00    -0.358 N 
HETATM    4  H   UNL     1     -41.400 -52.068  10.935  1.00  0.00     0.162 HD
ENDROOT
BRANCH   1   5
HETATM    5  C   UNL     1     -40.586 -49.624  10.986  1.00  0.00     0.235 C 
BRANCH   5   6
HETATM    6  N   UNL     1     -41.138 -48.277  10.846  1.00  0.00    -0.301 N 
HETATM    7  C   UNL     1     -42.375 -48.102  10.278  1.00  0.00     0.102 C 
HETATM    8  C   UNL     1     -42.918 -46.892  10.126  1.00  0.00     0.092 C 
HETATM    9  C   UNL     1     -42.153 -45.707  10.545  1.00  0.00     0.252 C 
HETATM   10  N   UNL     1     -40.902 -45.945  11.085  1.00  0.00    -0.271 N 
HETATM   11  O   UNL     1     -42.656 -44.597  10.390  1.00  0.00    -0.268 OA
HETATM   12  C   UNL     1     -40.071 -44.814  11.441  1.00  0.00     0.164 C 
HETATM   13  C   UNL     1     -40.388 -47.215  11.339  1.00  0.00     0.331 C 
HETATM   14  O   UNL     1     -39.327 -47.393  11.942  1.00  0.00    -0.246 OA
ENDBRANCH   5   6
ENDBRANCH   1   5
BRANCH   3  15
HETATM   15  C   UNL     1     -42.358 -52.522  12.771  1.00  0.00     0.142 C 
BRANCH  15  16
HETATM   16  C   UNL     1     -43.717 -53.083  12.336  1.00  0.00     0.145 C 
BRANCH  16  17
HETATM   17  N   UNL     1     -44.793 -52.920  13.313  1.00  0.00    -0.351 N 
HETATM   18  C   UNL     1     -44.546 -53.324  14.695  1.00  0.00     0.126 C 
HETATM   19  C   UNL     1     -44.473 -52.138  15.643  1.00  0.00     0.020 C 
HETATM   20  C   UNL     1     -45.837 -51.670  16.149  1.00  0.00     0.002 C 
HETATM   21  C   UNL     1     -46.992 -51.750  15.150  1.00  0.00     0.009 C 
HETATM   22  C   UNL     1     -46.627 -51.332  13.739  1.00  0.00     0.103 C 
HETATM   23  C   UNL     1     -45.995 -52.406  12.869  1.00  0.00     0.219 C 
HETATM   24  O   UNL     1     -46.426 -52.639  11.739  1.00  0.00    -0.273 OA
ENDBRANCH  16  17
ENDBRANCH  15  16
ENDBRANCH   3  15
TORSDOF 5
ENDMDL
MODEL 2
REMARK VINA RESULT:      -6.3      2.627      3.774
REMARK  5 active torsions:
REMARK  status: ('A' for Active; 'I' for Inactive)
REMARK    1  A    between atoms: N_7  and  C_8 
REMARK    2  A    between atoms: C_8  and  C_9 
REMARK       I    between atoms: C_9  and  N_11 
REMARK    3  A    between atoms: N_11  and  C_12 
REMARK    4  A    between atoms: C_12  and  C_13 
REMARK    5  A    between atoms: C_13  and  N_14 
ROOT
HETATM    1  C   UNL     1     -41.554 -52.885  13.742  1.00  0.00     0.236 C 
HETATM    2  O   UNL     1     -42.036 -51.960  14.395  1.00  0.00    -0.272 OA
HETATM    3  N   UNL     1     -41.966 -54.197  13.888  1.00  0.00    -0.358 N 
HETATM    4  H   UNL     1     -41.348 -54.923  13.543  1.00  0.00     0.162 HD
ENDROOT
BRANCH   1   5
HETATM    5  C   UNL     1     -40.485 -52.659  12.669  1.00  0.00     0.235 C 
BRANCH   5   6
HETATM    6  N   UNL     1     -39.653 -51.493  12.967  1.00  0.00    -0.301 N 
HETATM    7  C   UNL     1     -38.640 -51.594  13.886  1.00  0.00     0.102 C 
HETATM    8  C   UNL     1     -37.857 -50.557  14.193  1.00  0.00     0.092 C 
HETATM    9  C   UNL     1     -38.112 -49.256  13.554  1.00  0.00     0.252 C 
HETATM   10  N   UNL     1     -39.164 -49.209  12.657  1.00  0.00    -0.271 N 
HETATM   11  O   UNL     1     -37.395 -48.303  13.852  1.00  0.00    -0.268 OA
HETATM   12  C   UNL     1     -39.512 -47.937  12.059  1.00  0.00     0.164 C 
HETATM   13  C   UNL     1     -39.906 -50.320  12.263  1.00  0.00     0.331 C 
HETATM   14  O   UNL     1     -40.749 -50.270  11.364  1.00  0.00    -0.246 OA
ENDBRANCH   5   6
ENDBRANCH   1   5
BRANCH   3  15
HETATM   15  C   UNL     1     -42.921 -54.583  14.922  1.00  0.00     0.142 C 
BRANCH  15  16
HETATM   16  C   UNL     1     -44.251 -55.088  14.351  1.00  0.00     0.145 C 
BRANCH  16  17
HETATM   17  N   UNL     1     -45.284 -54.065  14.193  1.00  0.00    -0.351 N 
HETATM   18  C   UNL     1     -46.397 -54.047  15.138  1.00  0.00     0.126 C 
HETATM   19  C   UNL     1     -46.353 -52.843  16.066  1.00  0.00     0.020 C 
HETATM   20  C   UNL     1     -46.992 -51.587  15.473  1.00  0.00     0.002 C 
HETATM   21  C   UNL     1     -46.797 -51.374  13.972  1.00  0.00     0.009 C 
HETATM   22  C   UNL     1     -45.408 -51.714  13.468  1.00  0.00     0.103 C 
HETATM   23  C   UNL     1     -45.158 -53.178  13.143  1.00  0.00     0.219 C 
HETATM   24  O   UNL     1     -44.667 -53.510  12.064  1.00  0.00    -0.273 OA
ENDBRANCH  16  17
ENDBRANCH  15  16
ENDBRANCH   3  15
TORSDOF 5
ENDMDL
MODEL 3
REMARK VINA RESULT:      -6.3      2.250      7.953
REMARK  5 active torsions:
REMARK  status: ('A' for Active; 'I' for Inactive)
REMARK    1  A    between atoms: N_7  and  C_8 
REMARK    2  A    between atoms: C_8  and  C_9 
REMARK       I    between atoms: C_9  and  N_11 
REMARK    3  A    between atoms: N_11  and  C_12 
REMARK    4  A    between atoms: C_12  and  C_13 
REMARK    5  A    between atoms: C_13  and  N_14 
ROOT
HETATM    1  C   UNL     1     -41.174 -51.052  12.358  1.00  0.00     0.236 C 
HETATM    2  O   UNL     1     -40.345 -50.539  13.109  1.00  0.00    -0.272 OA
HETATM    3  N   UNL     1     -42.171 -50.323  11.736  1.00  0.00    -0.358 N 
HETATM    4  H   UNL     1     -42.969 -50.834  11.374  1.00  0.00     0.162 HD
ENDROOT
BRANCH   1   5
HETATM    5  C   UNL     1     -41.146 -52.543  12.005  1.00  0.00     0.235 C 
BRANCH   5   6
HETATM    6  N   UNL     1     -41.747 -53.362  13.058  1.00  0.00    -0.301 N 
HETATM    7  C   UNL     1     -40.965 -53.844  14.076  1.00  0.00     0.102 C 
HETATM    8  C   UNL     1     -41.469 -54.598  15.057  1.00  0.00     0.092 C 
HETATM    9  C   UNL     1     -42.896 -54.955  15.023  1.00  0.00     0.252 C 
HETATM   10  N   UNL     1     -43.626 -54.463  13.957  1.00  0.00    -0.271 N 
HETATM   11  O   UNL     1     -43.347 -55.661  15.923  1.00  0.00    -0.268 OA
HETATM   12  C   UNL     1     -45.016 -54.848  13.828  1.00  0.00     0.164 C 
HETATM   13  C   UNL     1     -43.118 -53.590  12.998  1.00  0.00     0.331 C 
HETATM   14  O   UNL     1     -43.828 -53.064  12.137  1.00  0.00    -0.246 OA
ENDBRANCH   5   6
ENDBRANCH   1   5
BRANCH   3  15
HETATM   15  C   UNL     1     -42.374 -48.908  12.030  1.00  0.00     0.142 C 
BRANCH  15  16
HETATM   16  C   UNL     1     -41.765 -47.982  10.971  1.00  0.00     0.145 C 
BRANCH  16  17
HETATM   17  N   UNL     1     -41.343 -46.672  11.466  1.00  0.00    -0.351 N 
HETATM   18  C   UNL     1     -41.028 -46.531  12.885  1.00  0.00     0.126 C 
HETATM   19  C   UNL     1     -39.543 -46.308  13.131  1.00  0.00     0.020 C 
HETATM   20  C   UNL     1     -39.115 -44.846  13.013  1.00  0.00     0.002 C 
HETATM   21  C   UNL     1     -39.821 -44.018  11.939  1.00  0.00     0.009 C 
HETATM   22  C   UNL     1     -40.043 -44.754  10.631  1.00  0.00     0.103 C 
HETATM   23  C   UNL     1     -41.283 -45.629  10.562  1.00  0.00     0.219 C 
HETATM   24  O   UNL     1     -42.070 -45.537   9.620  1.00  0.00    -0.273 OA
ENDBRANCH  16  17
ENDBRANCH  15  16
ENDBRANCH   3  15
TORSDOF 5
ENDMDL
MODEL 4
REMARK VINA RESULT:      -6.2      2.418      3.673
REMARK  5 active torsions:
REMARK  status: ('A' for Active; 'I' for Inactive)
REMARK    1  A    between atoms: N_7  and  C_8 
REMARK    2  A    between atoms: C_8  and  C_9 
REMARK       I    between atoms: C_9  and  N_11 
REMARK    3  A    between atoms: N_11  and  C_12 
REMARK    4  A    between atoms: C_12  and  C_13 
REMARK    5  A    between atoms: C_13  and  N_14 
ROOT
HETATM    1  C   UNL     1     -41.485 -49.951  12.290  1.00  0.00     0.236 C 
HETATM    2  O   UNL     1     -41.274 -49.562  13.438  1.00  0.00    -0.272 OA
HETATM    3  N   UNL     1     -42.355 -50.985  11.999  1.00  0.00    -0.358 N 
HETATM    4  H   UNL     1     -42.266 -51.432  11.093  1.00  0.00     0.162 HD
ENDROOT
BRANCH   1   5
HETATM    5  C   UNL     1     -40.836 -49.289  11.070  1.00  0.00     0.235 C 
BRANCH   5   6
HETATM    6  N   UNL     1     -41.441 -47.992  10.767  1.00  0.00    -0.301 N 
HETATM    7  C   UNL     1     -42.681 -47.937  10.185  1.00  0.00     0.102 C 
HETATM    8  C   UNL     1     -43.272 -46.776   9.888  1.00  0.00     0.092 C 
HETATM    9  C   UNL     1     -42.555 -45.520  10.159  1.00  0.00     0.252 C 
HETATM   10  N   UNL     1     -41.298 -45.641  10.721  1.00  0.00    -0.271 N 
HETATM   11  O   UNL     1     -43.101 -44.457   9.870  1.00  0.00    -0.268 OA
HETATM   12  C   UNL     1     -40.513 -44.442  10.936  1.00  0.00     0.164 C 
HETATM   13  C   UNL     1     -40.734 -46.849  11.126  1.00  0.00     0.331 C 
HETATM   14  O   UNL     1     -39.669 -46.910  11.745  1.00  0.00    -0.246 OA
ENDBRANCH   5   6
ENDBRANCH   1   5
BRANCH   3  15
HETATM   15  C   UNL     1     -42.991 -51.764  13.058  1.00  0.00     0.142 C 
BRANCH  15  16
HETATM   16  C   UNL     1     -42.524 -53.224  13.090  1.00  0.00     0.145 C 
BRANCH  16  17
HETATM   17  N   UNL     1     -41.451 -53.508  14.041  1.00  0.00    -0.351 N 
HETATM   18  C   UNL     1     -41.801 -53.720  15.444  1.00  0.00     0.126 C 
HETATM   19  C   UNL     1     -41.601 -55.163  15.881  1.00  0.00     0.020 C 
HETATM   20  C   UNL     1     -40.170 -55.480  16.314  1.00  0.00     0.002 C 
HETATM   21  C   UNL     1     -39.056 -54.782  15.533  1.00  0.00     0.009 C 
HETATM   22  C   UNL     1     -39.297 -54.703  14.038  1.00  0.00     0.103 C 
HETATM   23  C   UNL     1     -40.156 -53.543  13.562  1.00  0.00     0.219 C 
HETATM   24  O   UNL     1     -39.781 -52.813  12.644  1.00  0.00    -0.273 OA
ENDBRANCH  16  17
ENDBRANCH  15  16
ENDBRANCH   3  15
TORSDOF 5
ENDMDL
MODEL 5
REMARK VINA RESULT:      -6.1      2.105      7.595
REMARK  5 active torsions:
REMARK  status: ('A' for Active; 'I' for Inactive)
REMARK    1  A    between atoms: N_7  and  C_8 
REMARK    2  A    between atoms: C_8  and  C_9 
REMARK       I    between atoms: C_9  and  N_11 
REMARK    3  A    between atoms: N_11  and  C_12 
REMARK    4  A    between atoms: C_12  and  C_13 
REMARK    5  A    between atoms: C_13  and  N_14 
ROOT
HETATM    1  C   UNL     1     -42.736 -53.281  12.690  1.00  0.00     0.236 C 
HETATM    2  O   UNL     1     -41.906 -53.726  13.482  1.00  0.00    -0.272 OA
HETATM    3  N   UNL     1     -42.451 -52.257  11.805  1.00  0.00    -0.358 N 
HETATM    4  H   UNL     1     -43.234 -51.759  11.398  1.00  0.00     0.162 HD
ENDROOT
BRANCH   1   5
HETATM    5  C   UNL     1     -44.152 -53.856  12.579  1.00  0.00     0.235 C 
BRANCH   5   6
HETATM    6  N   UNL     1     -45.067 -53.239  13.540  1.00  0.00    -0.301 N 
HETATM    7  C   UNL     1     -45.769 -52.115  13.188  1.00  0.00     0.102 C 
HETATM    8  C   UNL     1     -46.612 -51.516  14.032  1.00  0.00     0.092 C 
HETATM    9  C   UNL     1     -46.765 -52.054  15.393  1.00  0.00     0.252 C 
HETATM   10  N   UNL     1     -46.010 -53.172  15.698  1.00  0.00    -0.271 N 
HETATM   11  O   UNL     1     -47.533 -51.488  16.167  1.00  0.00    -0.268 OA
HETATM   12  C   UNL     1     -46.058 -53.698  17.046  1.00  0.00     0.164 C 
HETATM   13  C   UNL     1     -45.215 -53.854  14.779  1.00  0.00     0.331 C 
HETATM   14  O   UNL     1     -44.659 -54.922  15.046  1.00  0.00    -0.246 OA
ENDBRANCH   5   6
ENDBRANCH   1   5
BRANCH   3  15
HETATM   15  C   UNL     1     -41.171 -51.556  11.841  1.00  0.00     0.142 C 
BRANCH  15  16
HETATM   16  C   UNL     1     -41.243 -50.215  12.581  1.00  0.00     0.145 C 
BRANCH  16  17
HETATM   17  N   UNL     1     -40.839 -49.052  11.793  1.00  0.00    -0.351 N 
HETATM   18  C   UNL     1     -41.701 -48.621  10.695  1.00  0.00     0.126 C 
HETATM   19  C   UNL     1     -42.388 -47.295  10.981  1.00  0.00     0.020 C 
HETATM   20  C   UNL     1     -41.535 -46.075  10.632  1.00  0.00     0.002 C 
HETATM   21  C   UNL     1     -40.033 -46.203  10.889  1.00  0.00     0.009 C 
HETATM   22  C   UNL     1     -39.680 -46.914  12.181  1.00  0.00     0.103 C 
HETATM   23  C   UNL     1     -39.649 -48.432  12.119  1.00  0.00     0.219 C 
HETATM   24  O   UNL     1     -38.681 -49.063  12.544  1.00  0.00    -0.273 OA
ENDBRANCH  16  17
ENDBRANCH  15  16
ENDBRANCH   3  15
TORSDOF 5
ENDMDL
MODEL 6
REMARK VINA RESULT:      -6.1      3.075      4.563
REMARK  5 active torsions:
REMARK  status: ('A' for Active; 'I' for Inactive)
REMARK    1  A    between atoms: N_7  and  C_8 
REMARK    2  A    between atoms: C_8  and  C_9 
REMARK       I    between atoms: C_9  and  N_11 
REMARK    3  A    between atoms: N_11  and  C_12 
REMARK    4  A    between atoms: C_12  and  C_13 
REMARK    5  A    between atoms: C_13  and  N_14 
ROOT
HETATM    1  C   UNL     1     -42.331 -54.116  13.657  1.00  0.00     0.236 C 
HETATM    2  O   UNL     1     -42.608 -54.189  14.853  1.00  0.00    -0.272 OA
HETATM    3  N   UNL     1     -43.289 -53.924  12.678  1.00  0.00    -0.358 N 
HETATM    4  H   UNL     1     -43.037 -54.157  11.724  1.00  0.00     0.162 HD
ENDROOT
BRANCH   1   5
HETATM    5  C   UNL     1     -40.888 -54.184  13.146  1.00  0.00     0.235 C 
BRANCH   5   6
HETATM    6  N   UNL     1     -40.178 -52.922  13.351  1.00  0.00    -0.301 N 
HETATM    7  C   UNL     1     -39.291 -52.799  14.390  1.00  0.00     0.102 C 
HETATM    8  C   UNL     1     -38.622 -51.666  14.618  1.00  0.00     0.092 C 
HETATM    9  C   UNL     1     -38.872 -50.502  13.753  1.00  0.00     0.252 C 
HETATM   10  N   UNL     1     -39.797 -50.679  12.740  1.00  0.00    -0.271 N 
HETATM   11  O   UNL     1     -38.261 -49.460  13.978  1.00  0.00    -0.268 OA
HETATM   12  C   UNL     1     -40.142 -49.545  11.908  1.00  0.00     0.164 C 
HETATM   13  C   UNL     1     -40.409 -51.894  12.442  1.00  0.00     0.331 C 
HETATM   14  O   UNL     1     -41.128 -52.051  11.452  1.00  0.00    -0.246 OA
ENDBRANCH   5   6
ENDBRANCH   1   5
BRANCH   3  15
HETATM   15  C   UNL     1     -44.713 -53.916  12.999  1.00  0.00     0.142 C 
BRANCH  15  16
HETATM   16  C   UNL     1     -45.393 -52.581  12.674  1.00  0.00     0.145 C 
BRANCH  16  17
HETATM   17  N   UNL     1     -45.531 -51.667  13.807  1.00  0.00    -0.351 N 
HETATM   18  C   UNL     1     -46.869 -51.406  14.333  1.00  0.00     0.126 C 
HETATM   19  C   UNL     1     -47.080 -52.010  15.712  1.00  0.00     0.020 C 
HETATM   20  C   UNL     1     -46.588 -51.120  16.854  1.00  0.00     0.002 C 
HETATM   21  C   UNL     1     -45.317 -50.315  16.584  1.00  0.00     0.009 C 
HETATM   22  C   UNL     1     -44.247 -51.074  15.824  1.00  0.00     0.103 C 
HETATM   23  C   UNL     1     -44.385 -51.084  14.310  1.00  0.00     0.219 C 
HETATM   24  O   UNL     1     -43.435 -50.784  13.587  1.00  0.00    -0.273 OA
ENDBRANCH  16  17
ENDBRANCH  15  16
ENDBRANCH   3  15
TORSDOF 5
ENDMDL
MODEL 7
REMARK VINA RESULT:      -6.1      3.099      7.402
REMARK  5 active torsions:
REMARK  status: ('A' for Active; 'I' for Inactive)
REMARK    1  A    between atoms: N_7  and  C_8 
REMARK    2  A    between atoms: C_8  and  C_9 
REMARK       I    between atoms: C_9  and  N_11 
REMARK    3  A    between atoms: N_11  and  C_12 
REMARK    4  A    between atoms: C_12  and  C_13 
REMARK    5  A    between atoms: C_13  and  N_14 
ROOT
HETATM    1  C   UNL     1     -42.865 -53.386  12.845  1.00  0.00     0.236 C 
HETATM    2  O   UNL     1     -42.624 -52.481  12.047  1.00  0.00    -0.272 OA
HETATM    3  N   UNL     1     -41.933 -53.848  13.755  1.00  0.00    -0.358 N 
HETATM    4  H   UNL     1     -42.095 -54.759  14.170  1.00  0.00     0.162 HD
ENDROOT
BRANCH   1   5
HETATM    5  C   UNL     1     -44.242 -54.051  12.935  1.00  0.00     0.235 C 
BRANCH   5   6
HETATM    6  N   UNL     1     -45.147 -53.313  13.818  1.00  0.00    -0.301 N 
HETATM    7  C   UNL     1     -45.885 -52.270  13.320  1.00  0.00     0.102 C 
HETATM    8  C   UNL     1     -46.720 -51.566  14.087  1.00  0.00     0.092 C 
HETATM    9  C   UNL     1     -46.825 -51.895  15.518  1.00  0.00     0.252 C 
HETATM   10  N   UNL     1     -46.036 -52.938  15.966  1.00  0.00    -0.271 N 
HETATM   11  O   UNL     1     -47.587 -51.233  16.220  1.00  0.00    -0.268 OA
HETATM   12  C   UNL     1     -46.036 -53.253  17.380  1.00  0.00     0.164 C 
HETATM   13  C   UNL     1     -45.248 -53.735  15.139  1.00  0.00     0.331 C 
HETATM   14  O   UNL     1     -44.660 -54.739  15.548  1.00  0.00    -0.246 OA
ENDBRANCH   5   6
ENDBRANCH   1   5
BRANCH   3  15
HETATM   15  C   UNL     1     -40.554 -53.367  13.741  1.00  0.00     0.142 C 
BRANCH  15  16
HETATM   16  C   UNL     1     -40.329 -52.166  14.667  1.00  0.00     0.145 C 
BRANCH  16  17
HETATM   17  N   UNL     1     -39.728 -50.997  14.026  1.00  0.00    -0.351 N 
HETATM   18  C   UNL     1     -38.275 -50.849  14.070  1.00  0.00     0.126 C 
HETATM   19  C   UNL     1     -37.631 -51.039  12.705  1.00  0.00     0.020 C 
HETATM   20  C   UNL     1     -37.615 -49.770  11.852  1.00  0.00     0.002 C 
HETATM   21  C   UNL     1     -38.835 -48.857  11.975  1.00  0.00     0.009 C 
HETATM   22  C   UNL     1     -40.159 -49.592  12.050  1.00  0.00     0.103 C 
HETATM   23  C   UNL     1     -40.572 -50.083  13.428  1.00  0.00     0.219 C 
HETATM   24  O   UNL     1     -41.693 -49.841  13.876  1.00  0.00    -0.273 OA
ENDBRANCH  16  17
ENDBRANCH  15  16
ENDBRANCH   3  15
TORSDOF 5
ENDMDL
MODEL 8
REMARK VINA RESULT:      -6.0      2.017      2.656
REMARK  5 active torsions:
REMARK  status: ('A' for Active; 'I' for Inactive)
REMARK    1  A    between atoms: N_7  and  C_8 
REMARK    2  A    between atoms: C_8  and  C_9 
REMARK       I    between atoms: C_9  and  N_11 
REMARK    3  A    between atoms: N_11  and  C_12 
REMARK    4  A    between atoms: C_12  and  C_13 
REMARK    5  A    between atoms: C_13  and  N_14 
ROOT
HETATM    1  C   UNL     1     -39.696 -50.857  12.043  1.00  0.00     0.236 C 
HETATM    2  O   UNL     1     -38.938 -51.536  12.734  1.00  0.00    -0.272 OA
HETATM    3  N   UNL     1     -40.924 -51.318  11.606  1.00  0.00    -0.358 N 
HETATM    4  H   UNL     1     -41.356 -50.834  10.826  1.00  0.00     0.162 HD
ENDROOT
BRANCH   1   5
HETATM    5  C   UNL     1     -39.368 -49.414  11.644  1.00  0.00     0.235 C 
BRANCH   5   6
HETATM    6  N   UNL     1     -40.377 -48.472  12.128  1.00  0.00    -0.301 N 
HETATM    7  C   UNL     1     -40.249 -47.917  13.376  1.00  0.00     0.102 C 
HETATM    8  C   UNL     1     -41.147 -47.055  13.861  1.00  0.00     0.092 C 
HETATM    9  C   UNL     1     -42.328 -46.720  13.049  1.00  0.00     0.252 C 
HETATM   10  N   UNL     1     -42.415 -47.333  11.812  1.00  0.00    -0.271 N 
HETATM   11  O   UNL     1     -43.155 -45.937  13.509  1.00  0.00    -0.268 OA
HETATM   12  C   UNL     1     -43.595 -47.104  11.004  1.00  0.00     0.164 C 
HETATM   13  C   UNL     1     -41.423 -48.146  11.270  1.00  0.00     0.331 C 
HETATM   14  O   UNL     1     -41.470 -48.570  10.113  1.00  0.00    -0.246 OA
ENDBRANCH   5   6
ENDBRANCH   1   5
BRANCH   3  15
HETATM   15  C   UNL     1     -41.345 -52.697  11.840  1.00  0.00     0.142 C 
BRANCH  15  16
HETATM   16  C   UNL     1     -42.104 -52.876  13.160  1.00  0.00     0.145 C 
BRANCH  16  17
HETATM   17  N   UNL     1     -43.489 -52.408  13.144  1.00  0.00    -0.351 N 
HETATM   18  C   UNL     1     -44.505 -53.258  12.527  1.00  0.00     0.126 C 
HETATM   19  C   UNL     1     -45.467 -53.848  13.547  1.00  0.00     0.020 C 
HETATM   20  C   UNL     1     -46.629 -52.921  13.902  1.00  0.00     0.002 C 
HETATM   21  C   UNL     1     -46.309 -51.427  13.962  1.00  0.00     0.009 C 
HETATM   22  C   UNL     1     -44.976 -51.100  14.608  1.00  0.00     0.103 C 
HETATM   23  C   UNL     1     -43.760 -51.173  13.699  1.00  0.00     0.219 C 
HETATM   24  O   UNL     1     -42.956 -50.243  13.643  1.00  0.00    -0.273 OA
ENDBRANCH  16  17
ENDBRANCH  15  16
ENDBRANCH   3  15
TORSDOF 5
ENDMDL
MODEL 9
REMARK VINA RESULT:      -6.0      1.830      2.563
REMARK  5 active torsions:
REMARK  status: ('A' for Active; 'I' for Inactive)
REMARK    1  A    between atoms: N_7  and  C_8 
REMARK    2  A    between atoms: C_8  and  C_9 
REMARK       I    between atoms: C_9  and  N_11 
REMARK    3  A    between atoms: N_11  and  C_12 
REMARK    4  A    between atoms: C_12  and  C_13 
REMARK    5  A    between atoms: C_13  and  N_14 
ROOT
HETATM    1  C   UNL     1     -39.874 -51.074  12.426  1.00  0.00     0.236 C 
HETATM    2  O   UNL     1     -39.110 -51.930  12.870  1.00  0.00    -0.272 OA
HETATM    3  N   UNL     1     -41.227 -51.060  12.712  1.00  0.00    -0.358 N 
HETATM    4  H   UNL     1     -41.829 -50.518  12.102  1.00  0.00     0.162 HD
ENDROOT
BRANCH   1   5
HETATM    5  C   UNL     1     -39.386 -49.915  11.552  1.00  0.00     0.235 C 
BRANCH   5   6
HETATM    6  N   UNL     1     -39.256 -48.674  12.316  1.00  0.00    -0.301 N 
HETATM    7  C   UNL     1     -38.366 -48.603  13.356  1.00  0.00     0.102 C 
HETATM    8  C   UNL     1     -38.216 -47.493  14.083  1.00  0.00     0.092 C 
HETATM    9  C   UNL     1     -39.057 -46.323  13.784  1.00  0.00     0.252 C 
HETATM   10  N   UNL     1     -39.955 -46.465  12.742  1.00  0.00    -0.271 N 
HETATM   11  O   UNL     1     -38.921 -45.310  14.466  1.00  0.00    -0.268 OA
HETATM   12  C   UNL     1     -40.865 -45.376  12.455  1.00  0.00     0.164 C 
HETATM   13  C   UNL     1     -40.031 -47.588  11.921  1.00  0.00     0.331 C 
HETATM   14  O   UNL     1     -40.749 -47.631  10.919  1.00  0.00    -0.246 OA
ENDBRANCH   5   6
ENDBRANCH   1   5
BRANCH   3  15
HETATM   15  C   UNL     1     -41.856 -52.139  13.469  1.00  0.00     0.142 C 
BRANCH  15  16
HETATM   16  C   UNL     1     -43.150 -52.648  12.823  1.00  0.00     0.145 C 
BRANCH  16  17
HETATM   17  N   UNL     1     -44.339 -52.559  13.669  1.00  0.00    -0.351 N 
HETATM   18  C   UNL     1     -44.164 -52.570  15.120  1.00  0.00     0.126 C 
HETATM   19  C   UNL     1     -44.487 -51.225  15.754  1.00  0.00     0.020 C 
HETATM   20  C   UNL     1     -45.973 -51.029  16.053  1.00  0.00     0.002 C 
HETATM   21  C   UNL     1     -46.951 -51.625  15.041  1.00  0.00     0.009 C 
HETATM   22  C   UNL     1     -46.536 -51.449  13.594  1.00  0.00     0.103 C 
HETATM   23  C   UNL     1     -45.570 -52.487  13.048  1.00  0.00     0.219 C 
HETATM   24  O   UNL     1     -45.799 -53.068  11.986  1.00  0.00    -0.273 OA
ENDBRANCH  16  17
ENDBRANCH  15  16
ENDBRANCH   3  15
TORSDOF 5
ENDMDL
