MODEL 1
REMARK VINA RESULT:      -6.0      0.000      0.000
REMARK  5 active torsions:
REMARK  status: ('A' for Active; 'I' for Inactive)
REMARK    1  A    between atoms: C_2  and  C_4 
REMARK    2  A    between atoms: C_4  and  N_5 
REMARK    3  A    between atoms: C_4  and  C_9 
REMARK       I    between atoms: N_5  and  C_6 
REMARK       I    between atoms: C_9  and  N_11 
REMARK    4  A    between atoms: N_11  and  C_12 
REMARK    5  A    between atoms: C_15  and  N_19 
ROOT
HETATM    1  C   UNL     1     -42.256 -49.322  11.768  1.00  0.00     0.050 A 
HETATM    2  C   UNL     1     -43.072 -48.277  12.175  1.00  0.00     0.035 A 
HETATM    3  C   UNL     1     -42.781 -46.969  11.780  1.00  0.00     0.051 A 
HETATM    4  C   UNL     1     -41.679 -46.692  10.973  1.00  0.00     0.103 A 
HETATM    5  N   UNL     1     -40.870 -47.703  10.582  1.00  0.00    -0.350 N 
ATOM      6  HN  UNL     1     -40.049 -47.518  10.006  1.00  0.00     0.166 HD
HETATM    7  C   UNL     1     -41.174 -48.974  10.974  1.00  0.00     0.119 A 
ENDROOT
BRANCH   1   8
HETATM    8  N   UNL     1     -42.510 -50.674  12.087  1.00  0.00    -0.324 N 
HETATM    9  C   UNL     1     -42.293 -51.275  13.319  1.00  0.00     0.245 C 
HETATM   10  O   UNL     1     -41.703 -50.775  14.275  1.00  0.00    -0.271 OA
HETATM   11  H   UNL     1     -42.845 -51.279  11.334  1.00  0.00     0.169 HD
BRANCH   9  12
HETATM   12  C   UNL     1     -42.886 -52.695  13.452  1.00  0.00     0.180 C 
BRANCH  12  13
HETATM   13  C   UNL     1     -41.905 -53.691  14.121  1.00  0.00     0.009 C 
HETATM   14  C   UNL     1     -42.647 -54.876  14.748  1.00  0.00     0.012 C 
HETATM   15  C   UNL     1     -40.881 -54.226  13.111  1.00  0.00     0.012 C 
ENDBRANCH  12  13
BRANCH  12  16
HETATM   16  N   UNL     1     -44.231 -52.623  14.041  1.00  0.00    -0.348 N 
HETATM   17  C   UNL     1     -45.392 -52.832  13.342  1.00  0.00     0.214 C 
HETATM   18  O   UNL     1     -45.412 -53.110  12.147  1.00  0.00    -0.274 OA
HETATM   19  C   UNL     1     -46.645 -52.765  14.170  1.00  0.00     0.117 C 
HETATM   20  H   UNL     1     -44.273 -52.711  15.050  1.00  0.00     0.163 HD
ENDBRANCH  12  16
ENDBRANCH   9  12
ENDBRANCH   1   8
BRANCH   4  21
HETATM   21  N   UNL     1     -41.372 -45.390  10.627  1.00  0.00    -0.363 N 
HETATM   22  C   UNL     1     -39.981 -44.942  10.459  1.00  0.00     0.150 C 
HETATM   23  C   UNL     1     -39.560 -44.012  11.610  1.00  0.00     0.187 C 
HETATM   24  O   UNL     1     -40.475 -42.917  11.770  1.00  0.00    -0.388 OA
HETATM   25  C   UNL     1     -41.789 -43.419  12.069  1.00  0.00     0.187 C 
HETATM   26  C   UNL     1     -42.321 -44.312  10.941  1.00  0.00     0.150 C 
ENDBRANCH   4  21
TORSDOF 5
ENDMDL
MODEL 2
REMARK VINA RESULT:      -5.9      2.015      2.512
REMARK  5 active torsions:
REMARK  status: ('A' for Active; 'I' for Inactive)
REMARK    1  A    between atoms: C_2  and  C_4 
REMARK    2  A    between atoms: C_4  and  N_5 
REMARK    3  A    between atoms: C_4  and  C_9 
REMARK       I    between atoms: N_5  and  C_6 
REMARK       I    between atoms: C_9  and  N_11 
REMARK    4  A    between atoms: N_11  and  C_12 
REMARK    5  A    between atoms: C_15  and  N_19 
ROOT
HETATM    1  C   UNL     1     -42.392 -50.274  12.728  1.00  0.00     0.050 A 
HETATM    2  C   UNL     1     -43.331 -49.255  12.770  1.00  0.00     0.035 A 
HETATM    3  C   UNL     1     -43.279 -48.217  11.836  1.00  0.00     0.051 A 
HETATM    4  C   UNL     1     -42.295 -48.191  10.848  1.00  0.00     0.103 A 
HETATM    5  N   UNL     1     -41.367 -49.174  10.807  1.00  0.00    -0.350 N 
ATOM      6  HN  UNL     1     -40.630 -49.163  10.103  1.00  0.00     0.166 HD
HETATM    7  C   UNL     1     -41.439 -50.181  11.725  1.00  0.00     0.119 A 
ENDROOT
BRANCH   1   8
HETATM    8  N   UNL     1     -42.406 -51.378  13.608  1.00  0.00    -0.324 N 
HETATM    9  C   UNL     1     -42.893 -52.644  13.319  1.00  0.00     0.245 C 
HETATM   10  O   UNL     1     -43.530 -52.965  12.317  1.00  0.00    -0.271 OA
HETATM   11  H   UNL     1     -42.064 -51.224  14.559  1.00  0.00     0.169 HD
BRANCH   9  12
HETATM   12  C   UNL     1     -42.558 -53.717  14.380  1.00  0.00     0.180 C 
BRANCH  12  13
HETATM   13  C   UNL     1     -41.038 -53.823  14.661  1.00  0.00     0.009 C 
HETATM   14  C   UNL     1     -40.740 -54.843  15.765  1.00  0.00     0.012 C 
HETATM   15  C   UNL     1     -40.264 -54.221  13.396  1.00  0.00     0.012 C 
ENDBRANCH  12  13
BRANCH  12  16
HETATM   16  N   UNL     1     -43.420 -53.544  15.557  1.00  0.00    -0.348 N 
HETATM   17  C   UNL     1     -44.638 -54.151  15.718  1.00  0.00     0.214 C 
HETATM   18  O   UNL     1     -45.122 -54.912  14.885  1.00  0.00    -0.274 OA
HETATM   19  C   UNL     1     -45.312 -53.872  17.033  1.00  0.00     0.117 C 
HETATM   20  H   UNL     1     -42.959 -53.198  16.391  1.00  0.00     0.163 HD
ENDBRANCH  12  16
ENDBRANCH   9  12
ENDBRANCH   1   8
BRANCH   4  21
HETATM   21  N   UNL     1     -42.223 -47.136   9.957  1.00  0.00    -0.363 N 
HETATM   22  C   UNL     1     -41.671 -45.830  10.349  1.00  0.00     0.150 C 
HETATM   23  C   UNL     1     -42.783 -44.773  10.453  1.00  0.00     0.187 C 
HETATM   24  O   UNL     1     -43.563 -44.702   9.250  1.00  0.00    -0.388 OA
HETATM   25  C   UNL     1     -44.189 -45.973   8.998  1.00  0.00     0.187 C 
HETATM   26  C   UNL     1     -43.148 -47.085   8.817  1.00  0.00     0.150 C 
ENDBRANCH   4  21
TORSDOF 5
ENDMDL
MODEL 3
REMARK VINA RESULT:      -5.9      1.937      8.550
REMARK  5 active torsions:
REMARK  status: ('A' for Active; 'I' for Inactive)
REMARK    1  A    between atoms: C_2  and  C_4 
REMARK    2  A    between atoms: C_4  and  N_5 
REMARK    3  A    between atoms: C_4  and  C_9 
REMARK       I    between atoms: N_5  and  C_6 
REMARK       I    between atoms: C_9  and  N_11 
REMARK    4  A    between atoms: N_11  and  C_12 
REMARK    5  A    between atoms: C_15  and  N_19 
ROOT
HETATM    1  C   UNL     1     -42.160 -49.550  12.428  1.00  0.00     0.050 A 
HETATM    2  C   UNL     1     -43.323 -49.710  13.166  1.00  0.00     0.035 A 
HETATM    3  C   UNL     1     -43.871 -50.983  13.340  1.00  0.00     0.051 A 
HETATM    4  C   UNL     1     -43.261 -52.107  12.785  1.00  0.00     0.103 A 
HETATM    5  N   UNL     1     -42.134 -51.960  12.052  1.00  0.00    -0.350 N 
ATOM      6  HN  UNL     1     -41.683 -52.768  11.624  1.00  0.00     0.166 HD
HETATM    7  C   UNL     1     -41.612 -50.708  11.899  1.00  0.00     0.119 A 
ENDROOT
BRANCH   1   8
HETATM    8  N   UNL     1     -41.522 -48.303  12.246  1.00  0.00    -0.324 N 
HETATM    9  C   UNL     1     -41.572 -47.522  11.101  1.00  0.00     0.245 C 
HETATM   10  O   UNL     1     -42.042 -47.856  10.015  1.00  0.00    -0.271 OA
HETATM   11  H   UNL     1     -40.936 -47.960  13.010  1.00  0.00     0.169 HD
BRANCH   9  12
HETATM   12  C   UNL     1     -40.987 -46.102  11.268  1.00  0.00     0.180 C 
BRANCH  12  13
HETATM   13  C   UNL     1     -40.686 -45.751  12.747  1.00  0.00     0.009 C 
HETATM   14  C   UNL     1     -39.180 -45.621  12.999  1.00  0.00     0.012 C 
HETATM   15  C   UNL     1     -41.373 -44.441  13.160  1.00  0.00     0.012 C 
ENDBRANCH  12  13
BRANCH  12  16
HETATM   16  N   UNL     1     -39.882 -45.900  10.321  1.00  0.00    -0.348 N 
HETATM   17  C   UNL     1     -39.567 -44.695   9.747  1.00  0.00     0.214 C 
HETATM   18  O   UNL     1     -40.184 -43.660   9.983  1.00  0.00    -0.274 OA
HETATM   19  C   UNL     1     -38.357 -44.720   8.856  1.00  0.00     0.117 C 
HETATM   20  H   UNL     1     -39.162 -46.614  10.327  1.00  0.00     0.163 HD
ENDBRANCH  12  16
ENDBRANCH   9  12
ENDBRANCH   1   8
BRANCH   4  21
HETATM   21  N   UNL     1     -43.836 -53.357  12.922  1.00  0.00    -0.363 N 
HETATM   22  C   UNL     1     -45.293 -53.548  12.867  1.00  0.00     0.150 C 
HETATM   23  C   UNL     1     -45.856 -53.891  14.256  1.00  0.00     0.187 C 
HETATM   24  O   UNL     1     -45.176 -55.011  14.844  1.00  0.00    -0.388 OA
HETATM   25  C   UNL     1     -43.779 -54.707  14.999  1.00  0.00     0.187 C 
HETATM   26  C   UNL     1     -43.114 -54.412  13.649  1.00  0.00     0.150 C 
ENDBRANCH   4  21
TORSDOF 5
ENDMDL
MODEL 4
REMARK VINA RESULT:      -5.8      2.921      8.141
REMARK  5 active torsions:
REMARK  status: ('A' for Active; 'I' for Inactive)
REMARK    1  A    between atoms: C_2  and  C_4 
REMARK    2  A    between atoms: C_4  and  N_5 
REMARK    3  A    between atoms: C_4  and  C_9 
REMARK       I    between atoms: N_5  and  C_6 
REMARK       I    between atoms: C_9  and  N_11 
REMARK    4  A    between atoms: N_11  and  C_12 
REMARK    5  A    between atoms: C_15  and  N_19 
ROOT
HETATM    1  C   UNL     1     -41.039 -51.023  12.352  1.00  0.00     0.050 A 
HETATM    2  C   UNL     1     -40.530 -50.956  13.640  1.00  0.00     0.035 A 
HETATM    3  C   UNL     1     -40.319 -52.129  14.370  1.00  0.00     0.051 A 
HETATM    4  C   UNL     1     -40.607 -53.377  13.820  1.00  0.00     0.103 A 
HETATM    5  N   UNL     1     -41.115 -53.452  12.569  1.00  0.00    -0.350 N 
ATOM      6  HN  UNL     1     -41.349 -54.354  12.156  1.00  0.00     0.166 HD
HETATM    7  C   UNL     1     -41.309 -52.295  11.871  1.00  0.00     0.119 A 
ENDROOT
BRANCH   1   8
HETATM    8  N   UNL     1     -41.237 -49.888  11.536  1.00  0.00    -0.324 N 
HETATM    9  C   UNL     1     -42.163 -48.879  11.755  1.00  0.00     0.245 C 
HETATM   10  O   UNL     1     -43.060 -48.888  12.596  1.00  0.00    -0.271 OA
HETATM   11  H   UNL     1     -40.677 -49.820  10.683  1.00  0.00     0.169 HD
BRANCH   9  12
HETATM   12  C   UNL     1     -41.993 -47.644  10.843  1.00  0.00     0.180 C 
BRANCH  12  13
HETATM   13  C   UNL     1     -40.651 -46.907  11.080  1.00  0.00     0.009 C 
HETATM   14  C   UNL     1     -40.600 -45.572  10.329  1.00  0.00     0.012 C 
HETATM   15  C   UNL     1     -40.418 -46.643  12.575  1.00  0.00     0.012 C 
ENDBRANCH  12  13
BRANCH  12  16
HETATM   16  N   UNL     1     -42.290 -48.005   9.450  1.00  0.00    -0.348 N 
HETATM   17  C   UNL     1     -43.422 -47.621   8.777  1.00  0.00     0.214 C 
HETATM   18  O   UNL     1     -44.296 -46.923   9.283  1.00  0.00    -0.274 OA
HETATM   19  C   UNL     1     -43.480 -48.060   7.340  1.00  0.00     0.117 C 
HETATM   20  H   UNL     1     -41.496 -48.298   8.893  1.00  0.00     0.163 HD
ENDBRANCH  12  16
ENDBRANCH   9  12
ENDBRANCH   1   8
BRANCH   4  21
HETATM   21  N   UNL     1     -40.440 -54.529  14.566  1.00  0.00    -0.363 N 
HETATM   22  C   UNL     1     -41.435 -54.956  15.562  1.00  0.00     0.150 C 
HETATM   23  C   UNL     1     -40.898 -54.770  16.991  1.00  0.00     0.187 C 
HETATM   24  O   UNL     1     -39.628 -55.416  17.170  1.00  0.00    -0.388 OA
HETATM   25  C   UNL     1     -38.663 -54.856  16.262  1.00  0.00     0.187 C 
HETATM   26  C   UNL     1     -39.086 -55.051  14.800  1.00  0.00     0.150 C 
ENDBRANCH   4  21
TORSDOF 5
ENDMDL
MODEL 5
REMARK VINA RESULT:      -5.5      2.601      8.149
REMARK  5 active torsions:
REMARK  status: ('A' for Active; 'I' for Inactive)
REMARK    1  A    between atoms: C_2  and  C_4 
REMARK    2  A    between atoms: C_4  and  N_5 
REMARK    3  A    between atoms: C_4  and  C_9 
REMARK       I    between atoms: N_5  and  C_6 
REMARK       I    between atoms: C_9  and  N_11 
REMARK    4  A    between atoms: N_11  and  C_12 
REMARK    5  A    between atoms: C_15  and  N_19 
ROOT
HETATM    1  C   UNL     1     -41.694 -50.193  12.220  1.00  0.00     0.050 A 
HETATM    2  C   UNL     1     -42.706 -50.759  12.981  1.00  0.00     0.035 A 
HETATM    3  C   UNL     1     -42.388 -51.587  14.062  1.00  0.00     0.051 A 
HETATM    4  C   UNL     1     -41.060 -51.851  14.396  1.00  0.00     0.103 A 
HETATM    5  N   UNL     1     -40.067 -51.314  13.651  1.00  0.00    -0.350 N 
ATOM      6  HN  UNL     1     -39.091 -51.509  13.869  1.00  0.00     0.166 HD
HETATM    7  C   UNL     1     -40.399 -50.505  12.604  1.00  0.00     0.119 A 
ENDROOT
BRANCH   1   8
HETATM    8  N   UNL     1     -41.934 -49.312  11.143  1.00  0.00    -0.324 N 
HETATM    9  C   UNL     1     -42.559 -48.077  11.225  1.00  0.00     0.245 C 
HETATM   10  O   UNL     1     -43.141 -47.622  12.208  1.00  0.00    -0.271 OA
HETATM   11  H   UNL     1     -41.662 -49.628  10.209  1.00  0.00     0.169 HD
BRANCH   9  12
HETATM   12  C   UNL     1     -42.467 -47.226   9.938  1.00  0.00     0.180 C 
BRANCH  12  13
HETATM   13  C   UNL     1     -43.753 -47.307   9.077  1.00  0.00     0.009 C 
HETATM   14  C   UNL     1     -44.402 -45.930   8.904  1.00  0.00     0.012 C 
HETATM   15  C   UNL     1     -43.457 -47.893   7.689  1.00  0.00     0.012 C 
ENDBRANCH  12  13
BRANCH  12  16
HETATM   16  N   UNL     1     -41.995 -45.873  10.264  1.00  0.00    -0.348 N 
HETATM   17  C   UNL     1     -40.708 -45.571  10.628  1.00  0.00     0.214 C 
HETATM   18  O   UNL     1     -39.820 -46.415  10.707  1.00  0.00    -0.274 OA
HETATM   19  C   UNL     1     -40.445 -44.109  10.856  1.00  0.00     0.117 C 
HETATM   20  H   UNL     1     -42.572 -45.113   9.923  1.00  0.00     0.163 HD
ENDBRANCH  12  16
ENDBRANCH   9  12
ENDBRANCH   1   8
BRANCH   4  21
HETATM   21  N   UNL     1     -40.756 -52.708  15.437  1.00  0.00    -0.363 N 
HETATM   22  C   UNL     1     -39.399 -53.245  15.624  1.00  0.00     0.150 C 
HETATM   23  C   UNL     1     -39.349 -54.743  15.281  1.00  0.00     0.187 C 
HETATM   24  O   UNL     1     -40.340 -55.488  16.004  1.00  0.00    -0.388 OA
HETATM   25  C   UNL     1     -41.653 -55.006  15.671  1.00  0.00     0.187 C 
HETATM   26  C   UNL     1     -41.819 -53.526  16.038  1.00  0.00     0.150 C 
ENDBRANCH   4  21
TORSDOF 5
ENDMDL
MODEL 6
REMARK VINA RESULT:      -5.4      2.196      2.878
REMARK  5 active torsions:
REMARK  status: ('A' for Active; 'I' for Inactive)
REMARK    1  A    between atoms: C_2  and  C_4 
REMARK    2  A    between atoms: C_4  and  N_5 
REMARK    3  A    between atoms: C_4  and  C_9 
REMARK       I    between atoms: N_5  and  C_6 
REMARK       I    between atoms: C_9  and  N_11 
REMARK    4  A    between atoms: N_11  and  C_12 
REMARK    5  A    between atoms: C_15  and  N_19 
ROOT
HETATM    1  C   UNL     1     -42.916 -50.322  13.357  1.00  0.00     0.050 A 
HETATM    2  C   UNL     1     -43.127 -48.990  13.677  1.00  0.00     0.035 A 
HETATM    3  C   UNL     1     -42.656 -47.984  12.829  1.00  0.00     0.051 A 
HETATM    4  C   UNL     1     -41.975 -48.299  11.654  1.00  0.00     0.103 A 
HETATM    5  N   UNL     1     -41.753 -49.595  11.340  1.00  0.00    -0.350 N 
ATOM      6  HN  UNL     1     -41.242 -49.845  10.493  1.00  0.00     0.166 HD
HETATM    7  C   UNL     1     -42.226 -50.562  12.178  1.00  0.00     0.119 A 
ENDROOT
BRANCH   1   8
HETATM    8  N   UNL     1     -43.401 -51.394  14.138  1.00  0.00    -0.324 N 
HETATM    9  C   UNL     1     -44.703 -51.871  14.149  1.00  0.00     0.245 C 
HETATM   10  O   UNL     1     -45.672 -51.344  13.606  1.00  0.00    -0.271 OA
HETATM   11  H   UNL     1     -42.745 -51.835  14.788  1.00  0.00     0.169 HD
BRANCH   9  12
HETATM   12  C   UNL     1     -44.892 -53.202  14.911  1.00  0.00     0.180 C 
BRANCH  12  13
HETATM   13  C   UNL     1     -44.391 -54.427  14.105  1.00  0.00     0.009 C 
HETATM   14  C   UNL     1     -43.269 -55.165  14.842  1.00  0.00     0.012 C 
HETATM   15  C   UNL     1     -45.534 -55.414  13.826  1.00  0.00     0.012 C 
ENDBRANCH  12  13
BRANCH  12  16
HETATM   16  N   UNL     1     -44.369 -53.075  16.278  1.00  0.00    -0.348 N 
HETATM   17  C   UNL     1     -44.907 -53.704  17.372  1.00  0.00     0.214 C 
HETATM   18  O   UNL     1     -45.881 -54.448  17.304  1.00  0.00    -0.274 OA
HETATM   19  C   UNL     1     -44.166 -53.471  18.659  1.00  0.00     0.117 C 
HETATM   20  H   UNL     1     -43.413 -52.746  16.355  1.00  0.00     0.163 HD
ENDBRANCH  12  16
ENDBRANCH   9  12
ENDBRANCH   1   8
BRANCH   4  21
HETATM   21  N   UNL     1     -41.470 -47.297  10.845  1.00  0.00    -0.363 N 
HETATM   22  C   UNL     1     -40.197 -46.626  11.149  1.00  0.00     0.150 C 
HETATM   23  C   UNL     1     -40.435 -45.183  11.623  1.00  0.00     0.187 C 
HETATM   24  O   UNL     1     -41.238 -44.443  10.691  1.00  0.00    -0.388 OA
HETATM   25  C   UNL     1     -42.522 -45.074  10.544  1.00  0.00     0.187 C 
HETATM   26  C   UNL     1     -42.388 -46.506  10.012  1.00  0.00     0.150 C 
ENDBRANCH   4  21
TORSDOF 5
ENDMDL
MODEL 7
REMARK VINA RESULT:      -5.2      1.767      2.178
REMARK  5 active torsions:
REMARK  status: ('A' for Active; 'I' for Inactive)
REMARK    1  A    between atoms: C_2  and  C_4 
REMARK    2  A    between atoms: C_4  and  N_5 
REMARK    3  A    between atoms: C_4  and  C_9 
REMARK       I    between atoms: N_5  and  C_6 
REMARK       I    between atoms: C_9  and  N_11 
REMARK    4  A    between atoms: N_11  and  C_12 
REMARK    5  A    between atoms: C_15  and  N_19 
ROOT
HETATM    1  C   UNL     1     -42.699 -49.477  12.904  1.00  0.00     0.050 A 
HETATM    2  C   UNL     1     -41.953 -48.914  13.928  1.00  0.00     0.035 A 
HETATM    3  C   UNL     1     -41.072 -47.864  13.655  1.00  0.00     0.051 A 
HETATM    4  C   UNL     1     -40.931 -47.365  12.361  1.00  0.00     0.103 A 
HETATM    5  N   UNL     1     -41.645 -47.916  11.354  1.00  0.00    -0.350 N 
ATOM      6  HN  UNL     1     -41.543 -47.576  10.398  1.00  0.00     0.166 HD
HETATM    7  C   UNL     1     -42.504 -48.937  11.642  1.00  0.00     0.119 A 
ENDROOT
BRANCH   1   8
HETATM    8  N   UNL     1     -43.642 -50.508  13.107  1.00  0.00    -0.324 N 
HETATM    9  C   UNL     1     -43.404 -51.868  12.971  1.00  0.00     0.245 C 
HETATM   10  O   UNL     1     -42.391 -52.384  12.502  1.00  0.00    -0.271 OA
HETATM   11  H   UNL     1     -44.599 -50.230  13.336  1.00  0.00     0.169 HD
BRANCH   9  12
HETATM   12  C   UNL     1     -44.543 -52.773  13.491  1.00  0.00     0.180 C 
BRANCH  12  13
HETATM   13  C   UNL     1     -44.148 -54.271  13.522  1.00  0.00     0.009 C 
HETATM   14  C   UNL     1     -43.171 -54.572  14.663  1.00  0.00     0.012 C 
HETATM   15  C   UNL     1     -45.384 -55.169  13.679  1.00  0.00     0.012 C 
ENDBRANCH  12  13
BRANCH  12  16
HETATM   16  N   UNL     1     -45.087 -52.225  14.742  1.00  0.00    -0.348 N 
HETATM   17  C   UNL     1     -46.237 -51.483  14.824  1.00  0.00     0.214 C 
HETATM   18  O   UNL     1     -46.931 -51.214  13.848  1.00  0.00    -0.274 OA
HETATM   19  C   UNL     1     -46.628 -51.081  16.219  1.00  0.00     0.117 C 
HETATM   20  H   UNL     1     -44.753 -52.661  15.594  1.00  0.00     0.163 HD
ENDBRANCH  12  16
ENDBRANCH   9  12
ENDBRANCH   1   8
BRANCH   4  21
HETATM   21  N   UNL     1     -40.022 -46.358  12.093  1.00  0.00    -0.363 N 
HETATM   22  C   UNL     1     -39.363 -45.604  13.170  1.00  0.00     0.150 C 
HETATM   23  C   UNL     1     -39.900 -44.164  13.241  1.00  0.00     0.187 C 
HETATM   24  O   UNL     1     -39.811 -43.500  11.971  1.00  0.00    -0.388 OA
HETATM   25  C   UNL     1     -40.590 -44.211  10.993  1.00  0.00     0.187 C 
HETATM   26  C   UNL     1     -40.085 -45.648  10.807  1.00  0.00     0.150 C 
ENDBRANCH   4  21
TORSDOF 5
ENDMDL
MODEL 8
REMARK VINA RESULT:      -5.1     16.381     17.431
REMARK  5 active torsions:
REMARK  status: ('A' for Active; 'I' for Inactive)
REMARK    1  A    between atoms: C_2  and  C_4 
REMARK    2  A    between atoms: C_4  and  N_5 
REMARK    3  A    between atoms: C_4  and  C_9 
REMARK       I    between atoms: N_5  and  C_6 
REMARK       I    between atoms: C_9  and  N_11 
REMARK    4  A    between atoms: N_11  and  C_12 
REMARK    5  A    between atoms: C_15  and  N_19 
ROOT
HETATM    1  C   UNL     1     -51.433 -53.205  -1.234  1.00  0.00     0.050 A 
HETATM    2  C   UNL     1     -50.199 -52.728  -0.817  1.00  0.00     0.035 A 
HETATM    3  C   UNL     1     -50.084 -51.427  -0.319  1.00  0.00     0.051 A 
HETATM    4  C   UNL     1     -51.198 -50.594  -0.227  1.00  0.00     0.103 A 
HETATM    5  N   UNL     1     -52.403 -51.046  -0.643  1.00  0.00    -0.350 N 
ATOM      6  HN  UNL     1     -53.226 -50.446  -0.599  1.00  0.00     0.166 HD
HETATM    7  C   UNL     1     -52.495 -52.321  -1.121  1.00  0.00     0.119 A 
ENDROOT
BRANCH   1   8
HETATM    8  N   UNL     1     -51.638 -54.520  -1.705  1.00  0.00    -0.324 N 
HETATM    9  C   UNL     1     -51.717 -54.905  -3.035  1.00  0.00     0.245 C 
HETATM   10  O   UNL     1     -51.780 -54.153  -4.006  1.00  0.00    -0.271 OA
HETATM   11  H   UNL     1     -51.782 -55.252  -1.006  1.00  0.00     0.169 HD
BRANCH   9  12
HETATM   12  C   UNL     1     -51.699 -56.434  -3.262  1.00  0.00     0.180 C 
BRANCH  12  13
HETATM   13  C   UNL     1     -53.006 -56.956  -3.910  1.00  0.00     0.009 C 
HETATM   14  C   UNL     1     -52.727 -57.694  -5.223  1.00  0.00     0.012 C 
HETATM   15  C   UNL     1     -53.760 -57.899  -2.962  1.00  0.00     0.012 C 
ENDBRANCH  12  13
BRANCH  12  16
HETATM   16  N   UNL     1     -50.449 -56.828  -3.927  1.00  0.00    -0.348 N 
HETATM   17  C   UNL     1     -49.209 -56.748  -3.348  1.00  0.00     0.214 C 
HETATM   18  O   UNL     1     -49.029 -56.343  -2.203  1.00  0.00    -0.274 OA
HETATM   19  C   UNL     1     -48.083 -57.265  -4.200  1.00  0.00     0.117 C 
HETATM   20  H   UNL     1     -50.552 -57.446  -4.724  1.00  0.00     0.163 HD
ENDBRANCH  12  16
ENDBRANCH   9  12
ENDBRANCH   1   8
BRANCH   4  21
HETATM   21  N   UNL     1     -51.067 -49.294   0.222  1.00  0.00    -0.363 N 
HETATM   22  C   UNL     1     -50.890 -48.168  -0.709  1.00  0.00     0.150 C 
HETATM   23  C   UNL     1     -49.457 -47.614  -0.636  1.00  0.00     0.187 C 
HETATM   24  O   UNL     1     -49.085 -47.279   0.709  1.00  0.00    -0.388 OA
HETATM   25  C   UNL     1     -49.144 -48.452   1.539  1.00  0.00     0.187 C 
HETATM   26  C   UNL     1     -50.559 -49.042   1.579  1.00  0.00     0.150 C 
ENDBRANCH   4  21
TORSDOF 5
ENDMDL
MODEL 9
REMARK VINA RESULT:      -5.1     19.201     20.546
REMARK  5 active torsions:
REMARK  status: ('A' for Active; 'I' for Inactive)
REMARK    1  A    between atoms: C_2  and  C_4 
REMARK    2  A    between atoms: C_4  and  N_5 
REMARK    3  A    between atoms: C_4  and  C_9 
REMARK       I    between atoms: N_5  and  C_6 
REMARK       I    between atoms: C_9  and  N_11 
REMARK    4  A    between atoms: N_11  and  C_12 
REMARK    5  A    between atoms: C_15  and  N_19 
ROOT
HETATM    1  C   UNL     1     -28.945 -44.684  -2.358  1.00  0.00     0.050 A 
HETATM    2  C   UNL     1     -29.118 -43.309  -2.356  1.00  0.00     0.035 A 
HETATM    3  C   UNL     1     -28.204 -42.490  -1.687  1.00  0.00     0.051 A 
HETATM    4  C   UNL     1     -27.109 -43.036  -1.019  1.00  0.00     0.103 A 
HETATM    5  N   UNL     1     -26.939 -44.377  -1.004  1.00  0.00    -0.350 N 
ATOM      6  HN  UNL     1     -26.154 -44.797  -0.507  1.00  0.00     0.166 HD
HETATM    7  C   UNL     1     -27.839 -45.159  -1.668  1.00  0.00     0.119 A 
ENDROOT
BRANCH   1   8
HETATM    8  N   UNL     1     -29.798 -45.573  -3.049  1.00  0.00    -0.324 N 
HETATM    9  C   UNL     1     -30.808 -46.337  -2.483  1.00  0.00     0.245 C 
HETATM   10  O   UNL     1     -31.019 -46.485  -1.281  1.00  0.00    -0.271 OA
HETATM   11  H   UNL     1     -29.634 -45.698  -4.050  1.00  0.00     0.169 HD
BRANCH   9  12
HETATM   12  C   UNL     1     -31.738 -47.028  -3.506  1.00  0.00     0.180 C 
BRANCH  12  13
HETATM   13  C   UNL     1     -33.130 -46.354  -3.596  1.00  0.00     0.009 C 
HETATM   14  C   UNL     1     -33.098 -45.112  -4.493  1.00  0.00     0.012 C 
HETATM   15  C   UNL     1     -34.186 -47.329  -4.138  1.00  0.00     0.012 C 
ENDBRANCH  12  13
BRANCH  12  16
HETATM   16  N   UNL     1     -31.030 -47.215  -4.780  1.00  0.00    -0.348 N 
HETATM   17  C   UNL     1     -30.746 -48.437  -5.333  1.00  0.00     0.214 C 
HETATM   18  O   UNL     1     -31.070 -49.500  -4.810  1.00  0.00    -0.274 OA
HETATM   19  C   UNL     1     -30.066 -48.379  -6.673  1.00  0.00     0.117 C 
HETATM   20  H   UNL     1     -31.017 -46.411  -5.398  1.00  0.00     0.163 HD
ENDBRANCH  12  16
ENDBRANCH   9  12
ENDBRANCH   1   8
BRANCH   4  21
HETATM   21  N   UNL     1     -26.237 -42.223  -0.319  1.00  0.00    -0.363 N 
HETATM   22  C   UNL     1     -25.541 -42.693   0.888  1.00  0.00     0.150 C 
HETATM   23  C   UNL     1     -26.105 -42.013   2.147  1.00  0.00     0.187 C 
HETATM   24  O   UNL     1     -26.094 -40.582   2.029  1.00  0.00    -0.388 OA
HETATM   25  C   UNL     1     -26.906 -40.179   0.912  1.00  0.00     0.187 C 
HETATM   26  C   UNL     1     -26.379 -40.762  -0.406  1.00  0.00     0.150 C 
ENDBRANCH   4  21
TORSDOF 5
ENDMDL
