MODEL 1
REMARK VINA RESULT:      -7.4      0.000      0.000
REMARK  5 active torsions:
REMARK  status: ('A' for Active; 'I' for Inactive)
REMARK    1  A    between atoms: N_2  and  C_4 
REMARK    2  A    between atoms: N_6  and  C_7 
REMARK    3  A    between atoms: C_7  and  C_8 
REMARK       I    between atoms: C_8  and  N_10 
REMARK    4  A    between atoms: N_10  and  C_11 
REMARK    5  A    between atoms: C_11  and  C_12 
ROOT
HETATM    1  C   UNL     1     -41.236 -49.678  11.965  1.00  0.00     0.235 C 
HETATM    2  O   UNL     1     -40.755 -50.604  11.317  1.00  0.00    -0.272 OA
HETATM    3  N   UNL     1     -42.284 -49.833  12.850  1.00  0.00    -0.359 N 
HETATM    4  H   UNL     1     -42.752 -48.991  13.167  1.00  0.00     0.162 HD
ENDROOT
BRANCH   1   5
HETATM    5  C   UNL     1     -40.642 -48.270  11.917  1.00  0.00     0.230 C 
BRANCH   5   6
HETATM    6  N   UNL     1     -41.378 -47.357  11.002  1.00  0.00    -0.355 N 
HETATM    7  C   UNL     1     -42.205 -47.866   9.996  1.00  0.00     0.131 A 
HETATM    8  C   UNL     1     -43.096 -47.122   9.314  1.00  0.00     0.168 A 
HETATM    9  C   UNL     1     -43.225 -45.682   9.604  1.00  0.00     0.207 A 
HETATM   10  C   UNL     1     -42.357 -45.163  10.700  1.00  0.00     0.074 A 
HETATM   11  O   UNL     1     -43.955 -44.906   9.001  1.00  0.00    -0.286 OA
HETATM   12  C   UNL     1     -41.515 -46.006  11.315  1.00  0.00     0.095 A 
BRANCH   8  13
HETATM   13  N   UNL     1     -43.916 -47.768   8.325  1.00  0.00    -0.110 N 
HETATM   14  O   UNL     1     -45.121 -47.907   8.590  1.00  0.00    -0.532 OA
HETATM   15  O   UNL     1     -43.394 -48.095   7.255  1.00  0.00    -0.532 OA
ENDBRANCH   8  13
ENDBRANCH   5   6
ENDBRANCH   1   5
BRANCH   3  16
HETATM   16  C   UNL     1     -42.954 -51.104  13.048  1.00  0.00     0.128 C 
BRANCH  16  17
HETATM   17  C   UNL     1     -44.369 -50.955  13.650  1.00  0.00     0.012 C 
HETATM   18  C   UNL     1     -44.384 -51.370  15.147  1.00  0.00    -0.008 C 
HETATM   19  C   UNL     1     -45.766 -51.052  15.755  1.00  0.00     0.010 C 
HETATM   20  C   UNL     1     -44.131 -52.884  15.288  1.00  0.00     0.010 C 
HETATM   21  C   UNL     1     -46.863 -51.838  15.017  1.00  0.00    -0.013 C 
HETATM   22  C   UNL     1     -46.844 -51.434  13.533  1.00  0.00     0.010 C 
HETATM   23  C   UNL     1     -46.582 -53.345  15.144  1.00  0.00     0.009 C 
HETATM   24  C   UNL     1     -45.470 -51.758  12.906  1.00  0.00    -0.008 C 
HETATM   25  C   UNL     1     -45.225 -53.271  13.043  1.00  0.00     0.010 C 
HETATM   26  C   UNL     1     -45.211 -53.676  14.529  1.00  0.00    -0.013 C 
ENDBRANCH  16  17
ENDBRANCH   3  16
TORSDOF 5
ENDMDL
MODEL 2
REMARK VINA RESULT:      -7.4      1.808      2.613
REMARK  5 active torsions:
REMARK  status: ('A' for Active; 'I' for Inactive)
REMARK    1  A    between atoms: N_2  and  C_4 
REMARK    2  A    between atoms: N_6  and  C_7 
REMARK    3  A    between atoms: C_7  and  C_8 
REMARK       I    between atoms: C_8  and  N_10 
REMARK    4  A    between atoms: N_10  and  C_11 
REMARK    5  A    between atoms: C_11  and  C_12 
ROOT
HETATM    1  C   UNL     1     -41.132 -50.458  12.274  1.00  0.00     0.235 C 
HETATM    2  O   UNL     1     -41.028 -50.198  13.470  1.00  0.00    -0.272 OA
HETATM    3  N   UNL     1     -41.898 -51.497  11.785  1.00  0.00    -0.359 N 
HETATM    4  H   UNL     1     -41.750 -51.768  10.819  1.00  0.00     0.162 HD
ENDROOT
BRANCH   1   5
HETATM    5  C   UNL     1     -40.490 -49.577  11.202  1.00  0.00     0.230 C 
BRANCH   5   6
HETATM    6  N   UNL     1     -41.133 -48.242  11.081  1.00  0.00    -0.355 N 
HETATM    7  C   UNL     1     -40.360 -47.078  11.019  1.00  0.00     0.131 A 
HETATM    8  C   UNL     1     -40.845 -45.878  10.646  1.00  0.00     0.168 A 
HETATM    9  C   UNL     1     -42.270 -45.740  10.291  1.00  0.00     0.207 A 
HETATM   10  C   UNL     1     -43.071 -46.996  10.333  1.00  0.00     0.074 A 
HETATM   11  O   UNL     1     -42.823 -44.688  10.001  1.00  0.00    -0.286 OA
HETATM   12  C   UNL     1     -42.472 -48.136  10.710  1.00  0.00     0.095 A 
BRANCH   8  13
HETATM   13  N   UNL     1     -39.942 -44.761  10.588  1.00  0.00    -0.110 N 
HETATM   14  O   UNL     1     -39.532 -44.420   9.467  1.00  0.00    -0.532 OA
HETATM   15  O   UNL     1     -39.671 -44.173  11.640  1.00  0.00    -0.532 OA
ENDBRANCH   8  13
ENDBRANCH   5   6
ENDBRANCH   1   5
BRANCH   3  16
HETATM   16  C   UNL     1     -42.604 -52.419  12.655  1.00  0.00     0.128 C 
BRANCH  16  17
HETATM   17  C   UNL     1     -44.004 -51.912  13.064  1.00  0.00     0.012 C 
HETATM   18  C   UNL     1     -44.107 -51.741  14.606  1.00  0.00    -0.008 C 
HETATM   19  C   UNL     1     -45.455 -51.080  14.961  1.00  0.00     0.010 C 
HETATM   20  C   UNL     1     -44.043 -53.114  15.304  1.00  0.00     0.010 C 
HETATM   21  C   UNL     1     -46.620 -51.964  14.487  1.00  0.00    -0.013 C 
HETATM   22  C   UNL     1     -46.516 -52.140  12.963  1.00  0.00     0.010 C 
HETATM   23  C   UNL     1     -46.528 -53.338  15.172  1.00  0.00     0.009 C 
HETATM   24  C   UNL     1     -45.176 -52.814  12.591  1.00  0.00    -0.008 C 
HETATM   25  C   UNL     1     -45.120 -54.186  13.285  1.00  0.00     0.010 C 
HETATM   26  C   UNL     1     -45.192 -54.013  14.813  1.00  0.00    -0.013 C 
ENDBRANCH  16  17
ENDBRANCH   3  16
TORSDOF 5
ENDMDL
MODEL 3
REMARK VINA RESULT:      -7.1      0.919      2.026
REMARK  5 active torsions:
REMARK  status: ('A' for Active; 'I' for Inactive)
REMARK    1  A    between atoms: N_2  and  C_4 
REMARK    2  A    between atoms: N_6  and  C_7 
REMARK    3  A    between atoms: C_7  and  C_8 
REMARK       I    between atoms: C_8  and  N_10 
REMARK    4  A    between atoms: N_10  and  C_11 
REMARK    5  A    between atoms: C_11  and  C_12 
ROOT
HETATM    1  C   UNL     1     -41.485 -49.169  12.974  1.00  0.00     0.235 C 
HETATM    2  O   UNL     1     -41.027 -48.756  14.037  1.00  0.00    -0.272 OA
HETATM    3  N   UNL     1     -42.713 -49.792  12.867  1.00  0.00    -0.359 N 
HETATM    4  H   UNL     1     -42.906 -50.289  12.004  1.00  0.00     0.162 HD
ENDROOT
BRANCH   1   5
HETATM    5  C   UNL     1     -40.766 -48.937  11.646  1.00  0.00     0.230 C 
BRANCH   5   6
HETATM    6  N   UNL     1     -41.382 -47.857  10.829  1.00  0.00    -0.355 N 
HETATM    7  C   UNL     1     -42.353 -48.152   9.866  1.00  0.00     0.131 A 
HETATM    8  C   UNL     1     -43.137 -47.224   9.286  1.00  0.00     0.168 A 
HETATM    9  C   UNL     1     -42.982 -45.803   9.648  1.00  0.00     0.207 A 
HETATM   10  C   UNL     1     -41.964 -45.510  10.697  1.00  0.00     0.074 A 
HETATM   11  O   UNL     1     -43.597 -44.876   9.136  1.00  0.00    -0.286 OA
HETATM   12  C   UNL     1     -41.251 -46.523  11.210  1.00  0.00     0.095 A 
BRANCH   8  13
HETATM   13  N   UNL     1     -44.124 -47.656   8.334  1.00  0.00    -0.110 N 
HETATM   14  O   UNL     1     -43.711 -48.121   7.261  1.00  0.00    -0.532 OA
HETATM   15  O   UNL     1     -45.315 -47.591   8.656  1.00  0.00    -0.532 OA
ENDBRANCH   8  13
ENDBRANCH   5   6
ENDBRANCH   1   5
BRANCH   3  16
HETATM   16  C   UNL     1     -43.547 -50.070  14.020  1.00  0.00     0.128 C 
BRANCH  16  17
HETATM   17  C   UNL     1     -43.863 -51.573  14.188  1.00  0.00     0.012 C 
HETATM   18  C   UNL     1     -44.775 -52.083  13.036  1.00  0.00    -0.008 C 
HETATM   19  C   UNL     1     -44.932 -53.614  13.145  1.00  0.00     0.010 C 
HETATM   20  C   UNL     1     -46.174 -51.444  13.135  1.00  0.00     0.010 C 
HETATM   21  C   UNL     1     -45.584 -53.985  14.487  1.00  0.00    -0.013 C 
HETATM   22  C   UNL     1     -44.688 -53.475  15.628  1.00  0.00     0.010 C 
HETATM   23  C   UNL     1     -46.968 -53.320  14.582  1.00  0.00     0.009 C 
HETATM   24  C   UNL     1     -44.531 -51.940  15.541  1.00  0.00    -0.008 C 
HETATM   25  C   UNL     1     -45.930 -51.308  15.647  1.00  0.00     0.010 C 
HETATM   26  C   UNL     1     -46.821 -51.791  14.488  1.00  0.00    -0.013 C 
ENDBRANCH  16  17
ENDBRANCH   3  16
TORSDOF 5
ENDMDL
MODEL 4
REMARK VINA RESULT:      -7.0      3.404      7.009
REMARK  5 active torsions:
REMARK  status: ('A' for Active; 'I' for Inactive)
REMARK    1  A    between atoms: N_2  and  C_4 
REMARK    2  A    between atoms: N_6  and  C_7 
REMARK    3  A    between atoms: C_7  and  C_8 
REMARK       I    between atoms: C_8  and  N_10 
REMARK    4  A    between atoms: N_10  and  C_11 
REMARK    5  A    between atoms: C_11  and  C_12 
ROOT
HETATM    1  C   UNL     1     -40.460 -51.865  12.505  1.00  0.00     0.235 C 
HETATM    2  O   UNL     1     -39.856 -51.514  13.515  1.00  0.00    -0.272 OA
HETATM    3  N   UNL     1     -40.577 -51.077  11.377  1.00  0.00    -0.359 N 
HETATM    4  H   UNL     1     -41.269 -51.354  10.689  1.00  0.00     0.162 HD
ENDROOT
BRANCH   1   5
HETATM    5  C   UNL     1     -41.059 -53.265  12.373  1.00  0.00     0.230 C 
BRANCH   5   6
HETATM    6  N   UNL     1     -42.270 -53.463  13.213  1.00  0.00    -0.355 N 
HETATM    7  C   UNL     1     -43.481 -52.847  12.879  1.00  0.00     0.131 A 
HETATM    8  C   UNL     1     -44.665 -53.183  13.424  1.00  0.00     0.168 A 
HETATM    9  C   UNL     1     -44.728 -54.245  14.446  1.00  0.00     0.207 A 
HETATM   10  C   UNL     1     -43.434 -54.911  14.767  1.00  0.00     0.074 A 
HETATM   11  O   UNL     1     -45.739 -54.583  15.047  1.00  0.00    -0.286 OA
HETATM   12  C   UNL     1     -42.319 -54.495  14.148  1.00  0.00     0.095 A 
BRANCH   8  13
HETATM   13  N   UNL     1     -45.847 -52.500  12.973  1.00  0.00    -0.110 N 
HETATM   14  O   UNL     1     -46.327 -51.639  13.727  1.00  0.00    -0.532 OA
HETATM   15  O   UNL     1     -46.284 -52.767  11.850  1.00  0.00    -0.532 OA
ENDBRANCH   8  13
ENDBRANCH   5   6
ENDBRANCH   1   5
BRANCH   3  16
HETATM   16  C   UNL     1     -40.045 -49.729  11.311  1.00  0.00     0.128 C 
BRANCH  16  17
HETATM   17  C   UNL     1     -41.111 -48.678  10.929  1.00  0.00     0.012 C 
HETATM   18  C   UNL     1     -40.556 -47.236  11.098  1.00  0.00    -0.008 C 
HETATM   19  C   UNL     1     -41.584 -46.223  10.553  1.00  0.00     0.010 C 
HETATM   20  C   UNL     1     -40.314 -46.924  12.588  1.00  0.00     0.010 C 
HETATM   21  C   UNL     1     -42.904 -46.335  11.333  1.00  0.00    -0.013 C 
HETATM   22  C   UNL     1     -43.451 -47.764  11.173  1.00  0.00     0.010 C 
HETATM   23  C   UNL     1     -42.641 -46.047  12.822  1.00  0.00     0.009 C 
HETATM   24  C   UNL     1     -42.438 -48.791  11.727  1.00  0.00    -0.008 C 
HETATM   25  C   UNL     1     -42.204 -48.479  13.216  1.00  0.00     0.010 C 
HETATM   26  C   UNL     1     -41.627 -47.061  13.379  1.00  0.00    -0.013 C 
ENDBRANCH  16  17
ENDBRANCH   3  16
TORSDOF 5
ENDMDL
MODEL 5
REMARK VINA RESULT:      -7.0      1.316      1.798
REMARK  5 active torsions:
REMARK  status: ('A' for Active; 'I' for Inactive)
REMARK    1  A    between atoms: N_2  and  C_4 
REMARK    2  A    between atoms: N_6  and  C_7 
REMARK    3  A    between atoms: C_7  and  C_8 
REMARK       I    between atoms: C_8  and  N_10 
REMARK    4  A    between atoms: N_10  and  C_11 
REMARK    5  A    between atoms: C_11  and  C_12 
ROOT
HETATM    1  C   UNL     1     -40.718 -51.084  11.892  1.00  0.00     0.235 C 
HETATM    2  O   UNL     1     -39.966 -51.798  12.550  1.00  0.00    -0.272 OA
HETATM    3  N   UNL     1     -42.094 -51.124  12.002  1.00  0.00    -0.359 N 
HETATM    4  H   UNL     1     -42.631 -50.665  11.274  1.00  0.00     0.162 HD
ENDROOT
BRANCH   1   5
HETATM    5  C   UNL     1     -40.182 -50.005  10.951  1.00  0.00     0.230 C 
BRANCH   5   6
HETATM    6  N   UNL     1     -40.722 -48.651  11.248  1.00  0.00    -0.355 N 
HETATM    7  C   UNL     1     -41.688 -48.069  10.421  1.00  0.00     0.131 A 
HETATM    8  C   UNL     1     -42.409 -46.984  10.763  1.00  0.00     0.168 A 
HETATM    9  C   UNL     1     -42.184 -46.335  12.068  1.00  0.00     0.207 A 
HETATM   10  C   UNL     1     -41.173 -46.986  12.948  1.00  0.00     0.074 A 
HETATM   11  O   UNL     1     -42.737 -45.311  12.448  1.00  0.00    -0.286 OA
HETATM   12  C   UNL     1     -40.526 -48.072  12.500  1.00  0.00     0.095 A 
BRANCH   8  13
HETATM   13  N   UNL     1     -43.399 -46.498   9.840  1.00  0.00    -0.110 N 
HETATM   14  O   UNL     1     -43.074 -45.552   9.106  1.00  0.00    -0.532 OA
HETATM   15  O   UNL     1     -44.488 -47.079   9.792  1.00  0.00    -0.532 OA
ENDBRANCH   8  13
ENDBRANCH   5   6
ENDBRANCH   1   5
BRANCH   3  16
HETATM   16  C   UNL     1     -42.778 -52.065  12.868  1.00  0.00     0.128 C 
BRANCH  16  17
HETATM   17  C   UNL     1     -44.131 -51.532  13.390  1.00  0.00     0.012 C 
HETATM   18  C   UNL     1     -44.227 -51.673  14.935  1.00  0.00    -0.008 C 
HETATM   19  C   UNL     1     -45.514 -50.983  15.435  1.00  0.00     0.010 C 
HETATM   20  C   UNL     1     -44.288 -53.159  15.337  1.00  0.00     0.010 C 
HETATM   21  C   UNL     1     -46.749 -51.646  14.805  1.00  0.00    -0.013 C 
HETATM   22  C   UNL     1     -46.653 -51.515  13.275  1.00  0.00     0.010 C 
HETATM   23  C   UNL     1     -46.782 -53.135  15.193  1.00  0.00     0.009 C 
HETATM   24  C   UNL     1     -45.375 -52.213  12.757  1.00  0.00    -0.008 C 
HETATM   25  C   UNL     1     -45.444 -53.698  13.155  1.00  0.00     0.010 C 
HETATM   26  C   UNL     1     -45.509 -53.835  14.687  1.00  0.00    -0.013 C 
ENDBRANCH  16  17
ENDBRANCH   3  16
TORSDOF 5
ENDMDL
MODEL 6
REMARK VINA RESULT:      -6.8      1.627      2.430
REMARK  5 active torsions:
REMARK  status: ('A' for Active; 'I' for Inactive)
REMARK    1  A    between atoms: N_2  and  C_4 
REMARK    2  A    between atoms: N_6  and  C_7 
REMARK    3  A    between atoms: C_7  and  C_8 
REMARK       I    between atoms: C_8  and  N_10 
REMARK    4  A    between atoms: N_10  and  C_11 
REMARK    5  A    between atoms: C_11  and  C_12 
ROOT
HETATM    1  C   UNL     1     -40.712 -51.476  11.981  1.00  0.00     0.235 C 
HETATM    2  O   UNL     1     -40.012 -52.209  12.675  1.00  0.00    -0.272 OA
HETATM    3  N   UNL     1     -42.078 -51.631  11.852  1.00  0.00    -0.359 N 
HETATM    4  H   UNL     1     -42.532 -51.128  11.097  1.00  0.00     0.162 HD
ENDROOT
BRANCH   1   5
HETATM    5  C   UNL     1     -40.136 -50.254  11.267  1.00  0.00     0.230 C 
BRANCH   5   6
HETATM    6  N   UNL     1     -40.792 -48.981  11.667  1.00  0.00    -0.355 N 
HETATM    7  C   UNL     1     -41.569 -48.259  10.755  1.00  0.00     0.131 A 
HETATM    8  C   UNL     1     -42.399 -47.259  11.107  1.00  0.00     0.168 A 
HETATM    9  C   UNL     1     -42.510 -46.862  12.524  1.00  0.00     0.207 A 
HETATM   10  C   UNL     1     -41.698 -47.662  13.485  1.00  0.00     0.074 A 
HETATM   11  O   UNL     1     -43.183 -45.929  12.941  1.00  0.00    -0.286 OA
HETATM   12  C   UNL     1     -40.916 -48.644  13.013  1.00  0.00     0.095 A 
BRANCH   8  13
HETATM   13  N   UNL     1     -43.173 -46.614  10.081  1.00  0.00    -0.110 N 
HETATM   14  O   UNL     1     -44.278 -47.109   9.809  1.00  0.00    -0.532 OA
HETATM   15  O   UNL     1     -42.724 -45.583   9.571  1.00  0.00    -0.532 OA
ENDBRANCH   8  13
ENDBRANCH   5   6
ENDBRANCH   1   5
BRANCH   3  16
HETATM   16  C   UNL     1     -42.801 -52.719  12.482  1.00  0.00     0.128 C 
BRANCH  16  17
HETATM   17  C   UNL     1     -43.415 -52.326  13.845  1.00  0.00     0.012 C 
HETATM   18  C   UNL     1     -44.440 -53.393  14.322  1.00  0.00    -0.008 C 
HETATM   19  C   UNL     1     -44.905 -53.054  15.753  1.00  0.00     0.010 C 
HETATM   20  C   UNL     1     -45.675 -53.401  13.401  1.00  0.00     0.010 C 
HETATM   21  C   UNL     1     -45.586 -51.676  15.776  1.00  0.00    -0.013 C 
HETATM   22  C   UNL     1     -44.576 -50.619  15.297  1.00  0.00     0.010 C 
HETATM   23  C   UNL     1     -46.801 -51.692  14.833  1.00  0.00     0.009 C 
HETATM   24  C   UNL     1     -44.109 -50.937  13.858  1.00  0.00    -0.008 C 
HETATM   25  C   UNL     1     -45.346 -50.939  12.942  1.00  0.00     0.010 C 
HETATM   26  C   UNL     1     -46.346 -52.016  13.399  1.00  0.00    -0.013 C 
ENDBRANCH  16  17
ENDBRANCH   3  16
TORSDOF 5
ENDMDL
MODEL 7
REMARK VINA RESULT:      -6.5      1.574      2.993
REMARK  5 active torsions:
REMARK  status: ('A' for Active; 'I' for Inactive)
REMARK    1  A    between atoms: N_2  and  C_4 
REMARK    2  A    between atoms: N_6  and  C_7 
REMARK    3  A    between atoms: C_7  and  C_8 
REMARK       I    between atoms: C_8  and  N_10 
REMARK    4  A    between atoms: N_10  and  C_11 
REMARK    5  A    between atoms: C_11  and  C_12 
ROOT
HETATM    1  C   UNL     1     -41.740 -49.089  12.979  1.00  0.00     0.235 C 
HETATM    2  O   UNL     1     -40.978 -48.970  13.935  1.00  0.00    -0.272 OA
HETATM    3  N   UNL     1     -43.045 -49.523  13.097  1.00  0.00    -0.359 N 
HETATM    4  H   UNL     1     -43.521 -49.798  12.244  1.00  0.00     0.162 HD
ENDROOT
BRANCH   1   5
HETATM    5  C   UNL     1     -41.329 -48.670  11.568  1.00  0.00     0.230 C 
BRANCH   5   6
HETATM    6  N   UNL     1     -42.170 -47.573  11.017  1.00  0.00    -0.355 N 
HETATM    7  C   UNL     1     -41.989 -46.252  11.437  1.00  0.00     0.131 A 
HETATM    8  C   UNL     1     -42.515 -45.187  10.803  1.00  0.00     0.168 A 
HETATM    9  C   UNL     1     -43.350 -45.386   9.603  1.00  0.00     0.207 A 
HETATM   10  C   UNL     1     -43.507 -46.798   9.152  1.00  0.00     0.074 A 
HETATM   11  O   UNL     1     -43.925 -44.495   8.992  1.00  0.00    -0.286 OA
HETATM   12  C   UNL     1     -42.923 -47.775   9.862  1.00  0.00     0.095 A 
BRANCH   8  13
HETATM   13  N   UNL     1     -42.229 -43.874  11.313  1.00  0.00    -0.110 N 
HETATM   14  O   UNL     1     -42.782 -43.544  12.374  1.00  0.00    -0.532 OA
HETATM   15  O   UNL     1     -41.416 -43.173  10.701  1.00  0.00    -0.532 OA
ENDBRANCH   8  13
ENDBRANCH   5   6
ENDBRANCH   1   5
BRANCH   3  16
HETATM   16  C   UNL     1     -43.616 -49.936  14.364  1.00  0.00     0.128 C 
BRANCH  16  17
HETATM   17  C   UNL     1     -43.887 -51.456  14.438  1.00  0.00     0.012 C 
HETATM   18  C   UNL     1     -44.754 -51.926  13.237  1.00  0.00    -0.008 C 
HETATM   19  C   UNL     1     -44.864 -53.465  13.254  1.00  0.00     0.010 C 
HETATM   20  C   UNL     1     -46.176 -51.339  13.338  1.00  0.00     0.010 C 
HETATM   21  C   UNL     1     -45.533 -53.934  14.555  1.00  0.00    -0.013 C 
HETATM   22  C   UNL     1     -44.680 -53.463  15.746  1.00  0.00     0.010 C 
HETATM   23  C   UNL     1     -46.940 -53.319  14.654  1.00  0.00     0.009 C 
HETATM   24  C   UNL     1     -44.572 -51.921  15.751  1.00  0.00    -0.008 C 
HETATM   25  C   UNL     1     -45.993 -51.341  15.858  1.00  0.00     0.010 C 
HETATM   26  C   UNL     1     -46.841 -51.784  14.652  1.00  0.00    -0.013 C 
ENDBRANCH  16  17
ENDBRANCH   3  16
TORSDOF 5
ENDMDL
MODEL 8
REMARK VINA RESULT:      -6.5      2.110      2.906
REMARK  5 active torsions:
REMARK  status: ('A' for Active; 'I' for Inactive)
REMARK    1  A    between atoms: N_2  and  C_4 
REMARK    2  A    between atoms: N_6  and  C_7 
REMARK    3  A    between atoms: C_7  and  C_8 
REMARK       I    between atoms: C_8  and  N_10 
REMARK    4  A    between atoms: N_10  and  C_11 
REMARK    5  A    between atoms: C_11  and  C_12 
ROOT
HETATM    1  C   UNL     1     -42.779 -48.688  12.150  1.00  0.00     0.235 C 
HETATM    2  O   UNL     1     -42.947 -47.998  13.153  1.00  0.00    -0.272 OA
HETATM    3  N   UNL     1     -42.787 -50.068  12.167  1.00  0.00    -0.359 N 
HETATM    4  H   UNL     1     -42.425 -50.544  11.348  1.00  0.00     0.162 HD
ENDROOT
BRANCH   1   5
HETATM    5  C   UNL     1     -42.640 -48.065  10.761  1.00  0.00     0.230 C 
BRANCH   5   6
HETATM    6  N   UNL     1     -41.918 -46.764  10.774  1.00  0.00    -0.355 N 
HETATM    7  C   UNL     1     -42.613 -45.561  10.929  1.00  0.00     0.131 A 
HETATM    8  C   UNL     1     -42.021 -44.387  11.215  1.00  0.00     0.168 A 
HETATM    9  C   UNL     1     -40.555 -44.322  11.365  1.00  0.00     0.207 A 
HETATM   10  C   UNL     1     -39.833 -45.619  11.227  1.00  0.00     0.074 A 
HETATM   11  O   UNL     1     -39.913 -43.298  11.560  1.00  0.00    -0.286 OA
HETATM   12  C   UNL     1     -40.536 -46.727  10.952  1.00  0.00     0.095 A 
BRANCH   8  13
HETATM   13  N   UNL     1     -42.847 -43.223  11.384  1.00  0.00    -0.110 N 
HETATM   14  O   UNL     1     -43.140 -42.581  10.362  1.00  0.00    -0.532 OA
HETATM   15  O   UNL     1     -43.261 -42.959  12.517  1.00  0.00    -0.532 OA
ENDBRANCH   8  13
ENDBRANCH   5   6
ENDBRANCH   1   5
BRANCH   3  16
HETATM   16  C   UNL     1     -42.936 -50.830  13.392  1.00  0.00     0.128 C 
BRANCH  16  17
HETATM   17  C   UNL     1     -44.382 -50.825  13.935  1.00  0.00     0.012 C 
HETATM   18  C   UNL     1     -44.444 -51.437  15.363  1.00  0.00    -0.008 C 
HETATM   19  C   UNL     1     -45.866 -51.264  15.935  1.00  0.00     0.010 C 
HETATM   20  C   UNL     1     -44.121 -52.943  15.316  1.00  0.00     0.010 C 
HETATM   21  C   UNL     1     -46.887 -51.991  15.046  1.00  0.00    -0.013 C 
HETATM   22  C   UNL     1     -46.823 -51.393  13.630  1.00  0.00     0.010 C 
HETATM   23  C   UNL     1     -46.536 -53.489  14.988  1.00  0.00     0.009 C 
HETATM   24  C   UNL     1     -45.407 -51.570  13.037  1.00  0.00    -0.008 C 
HETATM   25  C   UNL     1     -45.092 -53.075  12.987  1.00  0.00     0.010 C 
HETATM   26  C   UNL     1     -45.124 -53.673  14.406  1.00  0.00    -0.013 C 
ENDBRANCH  16  17
ENDBRANCH   3  16
TORSDOF 5
ENDMDL
MODEL 9
REMARK VINA RESULT:      -6.2      3.404      4.734
REMARK  5 active torsions:
REMARK  status: ('A' for Active; 'I' for Inactive)
REMARK    1  A    between atoms: N_2  and  C_4 
REMARK    2  A    between atoms: N_6  and  C_7 
REMARK    3  A    between atoms: C_7  and  C_8 
REMARK       I    between atoms: C_8  and  N_10 
REMARK    4  A    between atoms: N_10  and  C_11 
REMARK    5  A    between atoms: C_11  and  C_12 
ROOT
HETATM    1  C   UNL     1     -40.742 -54.015  13.886  1.00  0.00     0.235 C 
HETATM    2  O   UNL     1     -41.102 -54.500  12.816  1.00  0.00    -0.272 OA
HETATM    3  N   UNL     1     -41.554 -53.948  15.001  1.00  0.00    -0.359 N 
HETATM    4  H   UNL     1     -41.253 -53.341  15.757  1.00  0.00     0.162 HD
ENDROOT
BRANCH   1   5
HETATM    5  C   UNL     1     -39.311 -53.526  14.105  1.00  0.00     0.230 C 
BRANCH   5   6
HETATM    6  N   UNL     1     -39.187 -52.044  14.056  1.00  0.00    -0.355 N 
HETATM    7  C   UNL     1     -39.921 -51.294  13.131  1.00  0.00     0.131 A 
HETATM    8  C   UNL     1     -40.066 -49.958  13.200  1.00  0.00     0.168 A 
HETATM    9  C   UNL     1     -39.416 -49.204  14.288  1.00  0.00     0.207 A 
HETATM   10  C   UNL     1     -38.663 -50.022  15.281  1.00  0.00     0.074 A 
HETATM   11  O   UNL     1     -39.431 -47.986  14.406  1.00  0.00    -0.286 OA
HETATM   12  C   UNL     1     -38.599 -51.351  15.112  1.00  0.00     0.095 A 
BRANCH   8  13
HETATM   13  N   UNL     1     -40.875 -49.303  12.208  1.00  0.00    -0.110 N 
HETATM   14  O   UNL     1     -40.283 -48.649  11.335  1.00  0.00    -0.532 OA
HETATM   15  O   UNL     1     -42.098 -49.469  12.248  1.00  0.00    -0.532 OA
ENDBRANCH   8  13
ENDBRANCH   5   6
ENDBRANCH   1   5
BRANCH   3  16
HETATM   16  C   UNL     1     -42.934 -54.392  14.987  1.00  0.00     0.128 C 
BRANCH  16  17
HETATM   17  C   UNL     1     -43.940 -53.246  15.237  1.00  0.00     0.012 C 
HETATM   18  C   UNL     1     -45.403 -53.743  15.071  1.00  0.00    -0.008 C 
HETATM   19  C   UNL     1     -46.377 -52.621  15.487  1.00  0.00     0.010 C 
HETATM   20  C   UNL     1     -45.684 -54.107  13.600  1.00  0.00     0.010 C 
HETATM   21  C   UNL     1     -46.175 -51.386  14.594  1.00  0.00    -0.013 C 
HETATM   22  C   UNL     1     -44.725 -50.897  14.750  1.00  0.00     0.010 C 
HETATM   23  C   UNL     1     -46.434 -51.771  13.127  1.00  0.00     0.009 C 
HETATM   24  C   UNL     1     -43.737 -52.006  14.325  1.00  0.00    -0.008 C 
HETATM   25  C   UNL     1     -44.018 -52.361  12.854  1.00  0.00     0.010 C 
HETATM   26  C   UNL     1     -45.458 -52.881  12.698  1.00  0.00    -0.013 C 
ENDBRANCH  16  17
ENDBRANCH   3  16
TORSDOF 5
ENDMDL
