MODEL 1
REMARK VINA RESULT:      -7.3      0.000      0.000
REMARK  4 active torsions:
REMARK  status: ('A' for Active; 'I' for Inactive)
REMARK    1  A    between atoms: C_2  and  C_5 
REMARK    2  A    between atoms: N_10  and  C_11 
REMARK    3  A    between atoms: C_11  and  C_12 
REMARK       I    between atoms: C_12  and  N_14 
REMARK       I    between atoms: N_14  and  C_15 
REMARK       I    between atoms: C_15  and  N_17 
REMARK    4  A    between atoms: N_17  and  C_18 
ROOT
HETATM    1  C   UNL     1     -42.648 -47.948  13.081  1.00  0.00     0.243 C 
HETATM    2  O   UNL     1     -42.676 -47.033  13.910  1.00  0.00    -0.271 OA
HETATM    3  N   UNL     1     -42.884 -49.232  13.511  1.00  0.00    -0.278 N 
HETATM    4  C   UNL     1     -42.511 -50.377  12.856  1.00  0.00     0.323 C 
HETATM    5  O   UNL     1     -41.888 -50.402  11.808  1.00  0.00    -0.247 OA
HETATM    6  N   UNL     1     -42.994 -51.521  13.451  1.00  0.00    -0.338 N 
HETATM    7  H   UNL     1     -43.153 -49.300  14.479  1.00  0.00     0.173 HD
HETATM    8  H   UNL     1     -43.059 -51.540  14.458  1.00  0.00     0.164 HD
ENDROOT
BRANCH   1   9
HETATM    9  C   UNL     1     -42.260 -47.701  11.615  1.00  0.00     0.234 C 
BRANCH   9  10
HETATM   10  N   UNL     1     -43.262 -47.129  10.711  1.00  0.00    -0.315 N 
HETATM   11  C   UNL     1     -42.912 -45.935  10.075  1.00  0.00     0.247 A 
HETATM   12  C   UNL     1     -43.869 -45.440   9.050  1.00  0.00     0.075 A 
HETATM   13  O   UNL     1     -41.873 -45.311  10.271  1.00  0.00    -0.268 OA
HETATM   14  C   UNL     1     -44.966 -46.145   8.746  1.00  0.00     0.023 A 
HETATM   15  C   UNL     1     -45.259 -47.393   9.425  1.00  0.00     0.063 A 
HETATM   16  C   UNL     1     -44.415 -47.824  10.379  1.00  0.00     0.110 A 
BRANCH  15  17
HETATM   17  C   UNL     1     -46.446 -48.214   9.007  1.00  0.00     0.418 C 
HETATM   18  F   UNL     1     -46.654 -49.292   9.806  1.00  0.00    -0.166 F 
HETATM   19  F   UNL     1     -46.315 -48.682   7.740  1.00  0.00    -0.166 F 
HETATM   20  F   UNL     1     -47.591 -47.482   9.037  1.00  0.00    -0.166 F 
ENDBRANCH  15  17
ENDBRANCH   9  10
ENDBRANCH   1   9
BRANCH   6  21
HETATM   21  C   UNL     1     -42.811 -52.790  12.753  1.00  0.00     0.086 C 
HETATM   22  C   UNL     1     -44.151 -53.482  12.493  1.00  0.00     0.025 C 
HETATM   23  C   UNL     1     -44.740 -54.123  13.746  1.00  0.00     0.002 C 
HETATM   24  C   UNL     1     -43.738 -55.045  14.435  1.00  0.00     0.000 C 
HETATM   25  C   UNL     1     -42.427 -54.329  14.742  1.00  0.00     0.002 C 
HETATM   26  C   UNL     1     -41.824 -53.711  13.485  1.00  0.00     0.025 C 
ENDBRANCH   6  21
TORSDOF 4
ENDMDL
MODEL 2
REMARK VINA RESULT:      -7.1      2.615      7.172
REMARK  4 active torsions:
REMARK  status: ('A' for Active; 'I' for Inactive)
REMARK    1  A    between atoms: C_2  and  C_5 
REMARK    2  A    between atoms: N_10  and  C_11 
REMARK    3  A    between atoms: C_11  and  C_12 
REMARK       I    between atoms: C_12  and  N_14 
REMARK       I    between atoms: N_14  and  C_15 
REMARK       I    between atoms: C_15  and  N_17 
REMARK    4  A    between atoms: N_17  and  C_18 
ROOT
HETATM    1  C   UNL     1     -40.999 -51.771  12.520  1.00  0.00     0.243 C 
HETATM    2  O   UNL     1     -40.049 -52.483  12.184  1.00  0.00    -0.271 OA
HETATM    3  N   UNL     1     -41.391 -50.757  11.681  1.00  0.00    -0.278 N 
HETATM    4  C   UNL     1     -42.120 -49.654  12.042  1.00  0.00     0.323 C 
HETATM    5  O   UNL     1     -42.494 -49.414  13.178  1.00  0.00    -0.247 OA
HETATM    6  N   UNL     1     -42.482 -48.869  10.969  1.00  0.00    -0.338 N 
HETATM    7  H   UNL     1     -40.907 -50.742  10.797  1.00  0.00     0.173 HD
HETATM    8  H   UNL     1     -41.831 -48.788  10.202  1.00  0.00     0.164 HD
ENDROOT
BRANCH   1   9
HETATM    9  C   UNL     1     -41.681 -51.924  13.889  1.00  0.00     0.234 C 
BRANCH   9  10
HETATM   10  N   UNL     1     -42.854 -52.797  13.993  1.00  0.00    -0.315 N 
HETATM   11  C   UNL     1     -42.613 -54.114  14.392  1.00  0.00     0.247 A 
HETATM   12  C   UNL     1     -43.817 -54.950  14.640  1.00  0.00     0.075 A 
HETATM   13  O   UNL     1     -41.501 -54.598  14.590  1.00  0.00    -0.268 OA
HETATM   14  C   UNL     1     -45.045 -54.426  14.523  1.00  0.00     0.023 A 
HETATM   15  C   UNL     1     -45.228 -53.042  14.130  1.00  0.00     0.063 A 
HETATM   16  C   UNL     1     -44.141 -52.295  13.870  1.00  0.00     0.110 A 
BRANCH  15  17
HETATM   17  C   UNL     1     -46.607 -52.449  14.093  1.00  0.00     0.418 C 
HETATM   18  F   UNL     1     -46.728 -51.336  14.861  1.00  0.00    -0.166 F 
HETATM   19  F   UNL     1     -47.547 -53.329  14.524  1.00  0.00    -0.166 F 
HETATM   20  F   UNL     1     -46.958 -52.090  12.830  1.00  0.00    -0.166 F 
ENDBRANCH  15  17
ENDBRANCH   9  10
ENDBRANCH   1   9
BRANCH   6  21
HETATM   21  C   UNL     1     -43.404 -47.763  11.205  1.00  0.00     0.086 C 
HETATM   22  C   UNL     1     -44.546 -47.761  10.187  1.00  0.00     0.025 C 
HETATM   23  C   UNL     1     -44.114 -47.261   8.812  1.00  0.00     0.002 C 
HETATM   24  C   UNL     1     -43.414 -45.908   8.896  1.00  0.00     0.000 C 
HETATM   25  C   UNL     1     -42.241 -45.935   9.870  1.00  0.00     0.002 C 
HETATM   26  C   UNL     1     -42.678 -46.411  11.252  1.00  0.00     0.025 C 
ENDBRANCH   6  21
TORSDOF 4
ENDMDL
MODEL 3
REMARK VINA RESULT:      -6.7      2.691      3.708
REMARK  4 active torsions:
REMARK  status: ('A' for Active; 'I' for Inactive)
REMARK    1  A    between atoms: C_2  and  C_5 
REMARK    2  A    between atoms: N_10  and  C_11 
REMARK    3  A    between atoms: C_11  and  C_12 
REMARK       I    between atoms: C_12  and  N_14 
REMARK       I    between atoms: N_14  and  C_15 
REMARK       I    between atoms: C_15  and  N_17 
REMARK    4  A    between atoms: N_17  and  C_18 
ROOT
HETATM    1  C   UNL     1     -40.296 -51.130  13.607  1.00  0.00     0.243 C 
HETATM    2  O   UNL     1     -39.354 -51.093  14.403  1.00  0.00    -0.271 OA
HETATM    3  N   UNL     1     -41.491 -51.663  14.026  1.00  0.00    -0.278 N 
HETATM    4  C   UNL     1     -42.483 -52.146  13.213  1.00  0.00     0.323 C 
HETATM    5  O   UNL     1     -42.417 -52.193  11.996  1.00  0.00    -0.247 OA
HETATM    6  N   UNL     1     -43.624 -52.497  13.901  1.00  0.00    -0.338 N 
HETATM    7  H   UNL     1     -41.515 -51.902  15.005  1.00  0.00     0.173 HD
HETATM    8  H   UNL     1     -43.518 -52.896  14.821  1.00  0.00     0.164 HD
ENDROOT
BRANCH   1   9
HETATM    9  C   UNL     1     -40.137 -50.693  12.142  1.00  0.00     0.234 C 
BRANCH   9  10
HETATM   10  N   UNL     1     -40.448 -49.305  11.787  1.00  0.00    -0.315 N 
HETATM   11  C   UNL     1     -39.435 -48.369  12.007  1.00  0.00     0.247 A 
HETATM   12  C   UNL     1     -39.701 -46.993  11.509  1.00  0.00     0.075 A 
HETATM   13  O   UNL     1     -38.351 -48.613  12.531  1.00  0.00    -0.268 OA
HETATM   14  C   UNL     1     -40.834 -46.716  10.851  1.00  0.00     0.023 A 
HETATM   15  C   UNL     1     -41.836 -47.740  10.631  1.00  0.00     0.063 A 
HETATM   16  C   UNL     1     -41.614 -48.976  11.113  1.00  0.00     0.110 A 
BRANCH  15  17
HETATM   17  C   UNL     1     -43.058 -47.432   9.813  1.00  0.00     0.418 C 
HETATM   18  F   UNL     1     -44.213 -47.812  10.419  1.00  0.00    -0.166 F 
HETATM   19  F   UNL     1     -43.026 -48.050   8.605  1.00  0.00    -0.166 F 
HETATM   20  F   UNL     1     -43.168 -46.100   9.568  1.00  0.00    -0.166 F 
ENDBRANCH  15  17
ENDBRANCH   9  10
ENDBRANCH   1   9
BRANCH   6  21
HETATM   21  C   UNL     1     -44.808 -52.862  13.129  1.00  0.00     0.086 C 
HETATM   22  C   UNL     1     -45.805 -51.703  13.056  1.00  0.00     0.025 C 
HETATM   23  C   UNL     1     -46.573 -51.499  14.358  1.00  0.00     0.002 C 
HETATM   24  C   UNL     1     -47.225 -52.791  14.839  1.00  0.00     0.000 C 
HETATM   25  C   UNL     1     -46.212 -53.925  14.965  1.00  0.00     0.002 C 
HETATM   26  C   UNL     1     -45.462 -54.147  13.655  1.00  0.00     0.025 C 
ENDBRANCH   6  21
TORSDOF 4
ENDMDL
MODEL 4
REMARK VINA RESULT:      -6.5      4.336      5.807
REMARK  4 active torsions:
REMARK  status: ('A' for Active; 'I' for Inactive)
REMARK    1  A    between atoms: C_2  and  C_5 
REMARK    2  A    between atoms: N_10  and  C_11 
REMARK    3  A    between atoms: C_11  and  C_12 
REMARK       I    between atoms: C_12  and  N_14 
REMARK       I    between atoms: N_14  and  C_15 
REMARK       I    between atoms: C_15  and  N_17 
REMARK    4  A    between atoms: N_17  and  C_18 
ROOT
HETATM    1  C   UNL     1     -41.995 -47.639  11.215  1.00  0.00     0.243 C 
HETATM    2  O   UNL     1     -41.948 -47.163  10.077  1.00  0.00    -0.271 OA
HETATM    3  N   UNL     1     -42.726 -48.784  11.420  1.00  0.00    -0.278 N 
HETATM    4  C   UNL     1     -43.216 -49.218  12.624  1.00  0.00     0.323 C 
HETATM    5  O   UNL     1     -43.087 -48.618  13.679  1.00  0.00    -0.247 OA
HETATM    6  N   UNL     1     -43.798 -50.464  12.555  1.00  0.00    -0.338 N 
HETATM    7  H   UNL     1     -43.098 -49.192  10.577  1.00  0.00     0.173 HD
HETATM    8  H   UNL     1     -44.302 -50.704  11.714  1.00  0.00     0.164 HD
ENDROOT
BRANCH   1   9
HETATM    9  C   UNL     1     -41.346 -46.933  12.416  1.00  0.00     0.234 C 
BRANCH   9  10
HETATM   10  N   UNL     1     -40.015 -47.368  12.849  1.00  0.00    -0.315 N 
HETATM   11  C   UNL     1     -39.487 -46.723  13.971  1.00  0.00     0.247 A 
HETATM   12  C   UNL     1     -38.207 -47.269  14.493  1.00  0.00     0.075 A 
HETATM   13  O   UNL     1     -40.022 -45.789  14.563  1.00  0.00    -0.268 OA
HETATM   14  C   UNL     1     -37.645 -48.345  13.927  1.00  0.00     0.023 A 
HETATM   15  C   UNL     1     -38.257 -48.986  12.779  1.00  0.00     0.063 A 
HETATM   16  C   UNL     1     -39.396 -48.472  12.282  1.00  0.00     0.110 A 
BRANCH  15  17
HETATM   17  C   UNL     1     -37.661 -50.244  12.215  1.00  0.00     0.418 C 
HETATM   18  F   UNL     1     -36.802 -50.856  13.070  1.00  0.00    -0.166 F 
HETATM   19  F   UNL     1     -36.973 -50.007  11.068  1.00  0.00    -0.166 F 
HETATM   20  F   UNL     1     -38.622 -51.156  11.912  1.00  0.00    -0.166 F 
ENDBRANCH  15  17
ENDBRANCH   9  10
ENDBRANCH   1   9
BRANCH   6  21
HETATM   21  C   UNL     1     -44.200 -51.107  13.802  1.00  0.00     0.086 C 
HETATM   22  C   UNL     1     -43.450 -52.422  14.019  1.00  0.00     0.025 C 
HETATM   23  C   UNL     1     -43.965 -53.553  13.134  1.00  0.00     0.002 C 
HETATM   24  C   UNL     1     -45.476 -53.724  13.258  1.00  0.00     0.000 C 
HETATM   25  C   UNL     1     -46.219 -52.420  12.982  1.00  0.00     0.002 C 
HETATM   26  C   UNL     1     -45.722 -51.296  13.885  1.00  0.00     0.025 C 
ENDBRANCH   6  21
TORSDOF 4
ENDMDL
MODEL 5
REMARK VINA RESULT:      -6.4      2.868      6.935
REMARK  4 active torsions:
REMARK  status: ('A' for Active; 'I' for Inactive)
REMARK    1  A    between atoms: C_2  and  C_5 
REMARK    2  A    between atoms: N_10  and  C_11 
REMARK    3  A    between atoms: C_11  and  C_12 
REMARK       I    between atoms: C_12  and  N_14 
REMARK       I    between atoms: N_14  and  C_15 
REMARK       I    between atoms: C_15  and  N_17 
REMARK    4  A    between atoms: N_17  and  C_18 
ROOT
HETATM    1  C   UNL     1     -40.673 -52.581  13.228  1.00  0.00     0.243 C 
HETATM    2  O   UNL     1     -39.915 -53.496  12.893  1.00  0.00    -0.271 OA
HETATM    3  N   UNL     1     -40.518 -51.349  12.640  1.00  0.00    -0.278 N 
HETATM    4  C   UNL     1     -40.967 -50.158  13.147  1.00  0.00     0.323 C 
HETATM    5  O   UNL     1     -41.544 -50.034  14.214  1.00  0.00    -0.247 OA
HETATM    6  N   UNL     1     -40.787 -49.101  12.282  1.00  0.00    -0.338 N 
HETATM    7  H   UNL     1     -39.833 -51.328  11.902  1.00  0.00     0.173 HD
HETATM    8  H   UNL     1     -39.961 -49.098  11.703  1.00  0.00     0.164 HD
ENDROOT
BRANCH   1   9
HETATM    9  C   UNL     1     -41.710 -52.759  14.349  1.00  0.00     0.234 C 
BRANCH   9  10
HETATM   10  N   UNL     1     -43.051 -53.232  13.994  1.00  0.00    -0.315 N 
HETATM   11  C   UNL     1     -43.381 -54.525  14.409  1.00  0.00     0.247 A 
HETATM   12  C   UNL     1     -44.789 -54.943  14.178  1.00  0.00     0.075 A 
HETATM   13  O   UNL     1     -42.615 -55.299  14.977  1.00  0.00    -0.268 OA
HETATM   14  C   UNL     1     -45.673 -54.089  13.645  1.00  0.00     0.023 A 
HETATM   15  C   UNL     1     -45.274 -52.750  13.260  1.00  0.00     0.063 A 
HETATM   16  C   UNL     1     -43.992 -52.382  13.434  1.00  0.00     0.110 A 
BRANCH  15  17
HETATM   17  C   UNL     1     -46.299 -51.778  12.748  1.00  0.00     0.418 C 
HETATM   18  F   UNL     1     -47.068 -52.291  11.754  1.00  0.00    -0.166 F 
HETATM   19  F   UNL     1     -45.726 -50.649  12.260  1.00  0.00    -0.166 F 
HETATM   20  F   UNL     1     -47.150 -51.389  13.735  1.00  0.00    -0.166 F 
ENDBRANCH  15  17
ENDBRANCH   9  10
ENDBRANCH   1   9
BRANCH   6  21
HETATM   21  C   UNL     1     -41.380 -47.814  12.636  1.00  0.00     0.086 C 
HETATM   22  C   UNL     1     -42.674 -47.564  11.859  1.00  0.00     0.025 C 
HETATM   23  C   UNL     1     -42.428 -47.182  10.403  1.00  0.00     0.002 C 
HETATM   24  C   UNL     1     -41.448 -46.019  10.280  1.00  0.00     0.000 C 
HETATM   25  C   UNL     1     -40.138 -46.302  11.009  1.00  0.00     0.002 C 
HETATM   26  C   UNL     1     -40.382 -46.658  12.472  1.00  0.00     0.025 C 
ENDBRANCH   6  21
TORSDOF 4
ENDMDL
MODEL 6
REMARK VINA RESULT:      -6.4      2.009      2.561
REMARK  4 active torsions:
REMARK  status: ('A' for Active; 'I' for Inactive)
REMARK    1  A    between atoms: C_2  and  C_5 
REMARK    2  A    between atoms: N_10  and  C_11 
REMARK    3  A    between atoms: C_11  and  C_12 
REMARK       I    between atoms: C_12  and  N_14 
REMARK       I    between atoms: N_14  and  C_15 
REMARK       I    between atoms: C_15  and  N_17 
REMARK    4  A    between atoms: N_17  and  C_18 
ROOT
HETATM    1  C   UNL     1     -41.042 -48.891  13.649  1.00  0.00     0.243 C 
HETATM    2  O   UNL     1     -40.232 -48.323  14.388  1.00  0.00    -0.271 OA
HETATM    3  N   UNL     1     -42.027 -49.660  14.220  1.00  0.00    -0.278 N 
HETATM    4  C   UNL     1     -42.735 -50.651  13.592  1.00  0.00     0.323 C 
HETATM    5  O   UNL     1     -42.557 -51.002  12.437  1.00  0.00    -0.247 OA
HETATM    6  N   UNL     1     -43.751 -51.165  14.367  1.00  0.00    -0.338 N 
HETATM    7  H   UNL     1     -42.052 -49.618  15.226  1.00  0.00     0.173 HD
HETATM    8  H   UNL     1     -43.596 -51.239  15.362  1.00  0.00     0.164 HD
ENDROOT
BRANCH   1   9
HETATM    9  C   UNL     1     -40.914 -48.842  12.118  1.00  0.00     0.234 C 
BRANCH   9  10
HETATM   10  N   UNL     1     -41.585 -47.758  11.394  1.00  0.00    -0.315 N 
HETATM   11  C   UNL     1     -40.849 -46.583  11.217  1.00  0.00     0.247 A 
HETATM   12  C   UNL     1     -41.476 -45.547  10.355  1.00  0.00     0.075 A 
HETATM   13  O   UNL     1     -39.730 -46.377  11.679  1.00  0.00    -0.268 OA
HETATM   14  C   UNL     1     -42.655 -45.777   9.762  1.00  0.00     0.023 A 
HETATM   15  C   UNL     1     -43.356 -47.030   9.965  1.00  0.00     0.063 A 
HETATM   16  C   UNL     1     -42.809 -47.955  10.773  1.00  0.00     0.110 A 
BRANCH  15  17
HETATM   17  C   UNL     1     -44.632 -47.305   9.219  1.00  0.00     0.418 C 
HETATM   18  F   UNL     1     -45.278 -46.174   8.835  1.00  0.00    -0.166 F 
HETATM   19  F   UNL     1     -45.507 -48.025   9.966  1.00  0.00    -0.166 F 
HETATM   20  F   UNL     1     -44.400 -48.023   8.089  1.00  0.00    -0.166 F 
ENDBRANCH  15  17
ENDBRANCH   9  10
ENDBRANCH   1   9
BRANCH   6  21
HETATM   21  C   UNL     1     -44.682 -52.103  13.748  1.00  0.00     0.086 C 
HETATM   22  C   UNL     1     -46.067 -51.478  13.569  1.00  0.00     0.025 C 
HETATM   23  C   UNL     1     -46.849 -51.383  14.875  1.00  0.00     0.002 C 
HETATM   24  C   UNL     1     -46.912 -52.726  15.596  1.00  0.00     0.000 C 
HETATM   25  C   UNL     1     -45.522 -53.314  15.822  1.00  0.00     0.002 C 
HETATM   26  C   UNL     1     -44.750 -53.433  14.512  1.00  0.00     0.025 C 
ENDBRANCH   6  21
TORSDOF 4
ENDMDL
MODEL 7
REMARK VINA RESULT:      -6.2      4.312      5.539
REMARK  4 active torsions:
REMARK  status: ('A' for Active; 'I' for Inactive)
REMARK    1  A    between atoms: C_2  and  C_5 
REMARK    2  A    between atoms: N_10  and  C_11 
REMARK    3  A    between atoms: C_11  and  C_12 
REMARK       I    between atoms: C_12  and  N_14 
REMARK       I    between atoms: N_14  and  C_15 
REMARK       I    between atoms: C_15  and  N_17 
REMARK    4  A    between atoms: N_17  and  C_18 
ROOT
HETATM    1  C   UNL     1     -39.784 -52.559  15.017  1.00  0.00     0.243 C 
HETATM    2  O   UNL     1     -39.148 -52.371  16.058  1.00  0.00    -0.271 OA
HETATM    3  N   UNL     1     -41.113 -52.896  15.109  1.00  0.00    -0.278 N 
HETATM    4  C   UNL     1     -41.852 -53.516  14.136  1.00  0.00     0.323 C 
HETATM    5  O   UNL     1     -41.410 -53.880  13.059  1.00  0.00    -0.247 OA
HETATM    6  N   UNL     1     -43.190 -53.611  14.450  1.00  0.00    -0.338 N 
HETATM    7  H   UNL     1     -41.481 -52.872  16.047  1.00  0.00     0.173 HD
HETATM    8  H   UNL     1     -43.439 -53.763  15.416  1.00  0.00     0.164 HD
ENDROOT
BRANCH   1   9
HETATM    9  C   UNL     1     -39.107 -52.527  13.638  1.00  0.00     0.234 C 
BRANCH   9  10
HETATM   10  N   UNL     1     -38.927 -51.231  12.976  1.00  0.00    -0.315 N 
HETATM   11  C   UNL     1     -37.668 -50.991  12.418  1.00  0.00     0.247 A 
HETATM   12  C   UNL     1     -37.537 -49.742  11.622  1.00  0.00     0.075 A 
HETATM   13  O   UNL     1     -36.704 -51.747  12.504  1.00  0.00    -0.268 OA
HETATM   14  C   UNL     1     -38.595 -48.942  11.432  1.00  0.00     0.023 A 
HETATM   15  C   UNL     1     -39.883 -49.262  12.017  1.00  0.00     0.063 A 
HETATM   16  C   UNL     1     -39.995 -50.371  12.768  1.00  0.00     0.110 A 
BRANCH  15  17
HETATM   17  C   UNL     1     -41.078 -48.401  11.718  1.00  0.00     0.418 C 
HETATM   18  F   UNL     1     -41.441 -47.614  12.763  1.00  0.00    -0.166 F 
HETATM   19  F   UNL     1     -42.165 -49.144  11.388  1.00  0.00    -0.166 F 
HETATM   20  F   UNL     1     -40.839 -47.569  10.670  1.00  0.00    -0.166 F 
ENDBRANCH  15  17
ENDBRANCH   9  10
ENDBRANCH   1   9
BRANCH   6  21
HETATM   21  C   UNL     1     -44.106 -54.095  13.422  1.00  0.00     0.086 C 
HETATM   22  C   UNL     1     -44.657 -52.943  12.579  1.00  0.00     0.025 C 
HETATM   23  C   UNL     1     -45.721 -52.130  13.308  1.00  0.00     0.002 C 
HETATM   24  C   UNL     1     -46.829 -53.018  13.866  1.00  0.00     0.000 C 
HETATM   25  C   UNL     1     -46.274 -54.128  14.753  1.00  0.00     0.002 C 
HETATM   26  C   UNL     1     -45.229 -54.958  14.015  1.00  0.00     0.025 C 
ENDBRANCH   6  21
TORSDOF 4
ENDMDL
MODEL 8
REMARK VINA RESULT:      -6.2      3.064      7.322
REMARK  4 active torsions:
REMARK  status: ('A' for Active; 'I' for Inactive)
REMARK    1  A    between atoms: C_2  and  C_5 
REMARK    2  A    between atoms: N_10  and  C_11 
REMARK    3  A    between atoms: C_11  and  C_12 
REMARK       I    between atoms: C_12  and  N_14 
REMARK       I    between atoms: N_14  and  C_15 
REMARK       I    between atoms: C_15  and  N_17 
REMARK    4  A    between atoms: N_17  and  C_18 
ROOT
HETATM    1  C   UNL     1     -39.912 -50.202  13.314  1.00  0.00     0.243 C 
HETATM    2  O   UNL     1     -39.623 -50.556  14.461  1.00  0.00    -0.271 OA
HETATM    3  N   UNL     1     -39.957 -48.859  13.031  1.00  0.00    -0.278 N 
HETATM    4  C   UNL     1     -40.624 -48.282  11.982  1.00  0.00     0.323 C 
HETATM    5  O   UNL     1     -41.296 -48.896  11.170  1.00  0.00    -0.247 OA
HETATM    6  N   UNL     1     -40.387 -46.931  11.867  1.00  0.00    -0.338 N 
HETATM    7  H   UNL     1     -39.655 -48.267  13.789  1.00  0.00     0.173 HD
HETATM    8  H   UNL     1     -40.270 -46.397  12.715  1.00  0.00     0.164 HD
ENDROOT
BRANCH   1   9
HETATM    9  C   UNL     1     -40.317 -51.216  12.232  1.00  0.00     0.234 C 
BRANCH   9  10
HETATM   10  N   UNL     1     -41.351 -52.205  12.551  1.00  0.00    -0.315 N 
HETATM   11  C   UNL     1     -40.902 -53.434  13.040  1.00  0.00     0.247 A 
HETATM   12  C   UNL     1     -41.957 -54.375  13.501  1.00  0.00     0.075 A 
HETATM   13  O   UNL     1     -39.723 -53.759  13.153  1.00  0.00    -0.268 OA
HETATM   14  C   UNL     1     -43.247 -54.016  13.477  1.00  0.00     0.023 A 
HETATM   15  C   UNL     1     -43.646 -52.713  12.981  1.00  0.00     0.063 A 
HETATM   16  C   UNL     1     -42.697 -51.874  12.530  1.00  0.00     0.110 A 
BRANCH  15  17
HETATM   17  C   UNL     1     -45.088 -52.294  13.047  1.00  0.00     0.418 C 
HETATM   18  F   UNL     1     -45.761 -52.867  14.077  1.00  0.00    -0.166 F 
HETATM   19  F   UNL     1     -45.758 -52.614  11.911  1.00  0.00    -0.166 F 
HETATM   20  F   UNL     1     -45.206 -50.950  13.206  1.00  0.00    -0.166 F 
ENDBRANCH  15  17
ENDBRANCH   9  10
ENDBRANCH   1   9
BRANCH   6  21
HETATM   21  C   UNL     1     -40.901 -46.239  10.689  1.00  0.00     0.086 C 
HETATM   22  C   UNL     1     -39.942 -45.142  10.223  1.00  0.00     0.025 C 
HETATM   23  C   UNL     1     -39.982 -43.903  11.111  1.00  0.00     0.002 C 
HETATM   24  C   UNL     1     -41.405 -43.384  11.296  1.00  0.00     0.000 C 
HETATM   25  C   UNL     1     -42.341 -44.470  11.817  1.00  0.00     0.002 C 
HETATM   26  C   UNL     1     -42.321 -45.700  10.914  1.00  0.00     0.025 C 
ENDBRANCH   6  21
TORSDOF 4
ENDMDL
MODEL 9
REMARK VINA RESULT:      -6.1     18.514     20.500
REMARK  4 active torsions:
REMARK  status: ('A' for Active; 'I' for Inactive)
REMARK    1  A    between atoms: C_2  and  C_5 
REMARK    2  A    between atoms: N_10  and  C_11 
REMARK    3  A    between atoms: C_11  and  C_12 
REMARK       I    between atoms: C_12  and  N_14 
REMARK       I    between atoms: N_14  and  C_15 
REMARK       I    between atoms: C_15  and  N_17 
REMARK    4  A    between atoms: N_17  and  C_18 
ROOT
HETATM    1  C   UNL     1     -30.368 -46.286  -1.753  1.00  0.00     0.243 C 
HETATM    2  O   UNL     1     -31.181 -46.899  -1.054  1.00  0.00    -0.271 OA
HETATM    3  N   UNL     1     -29.242 -45.772  -1.157  1.00  0.00    -0.278 N 
HETATM    4  C   UNL     1     -28.463 -44.760  -1.653  1.00  0.00     0.323 C 
HETATM    5  O   UNL     1     -28.690 -44.158  -2.690  1.00  0.00    -0.247 OA
HETATM    6  N   UNL     1     -27.324 -44.540  -0.911  1.00  0.00    -0.338 N 
HETATM    7  H   UNL     1     -29.137 -46.026  -0.187  1.00  0.00     0.173 HD
HETATM    8  H   UNL     1     -27.382 -44.658   0.090  1.00  0.00     0.164 HD
ENDROOT
BRANCH   1   9
HETATM    9  C   UNL     1     -30.632 -46.001  -3.240  1.00  0.00     0.234 C 
BRANCH   9  10
HETATM   10  N   UNL     1     -31.982 -46.222  -3.767  1.00  0.00    -0.315 N 
HETATM   11  C   UNL     1     -32.269 -47.515  -4.213  1.00  0.00     0.247 A 
HETATM   12  C   UNL     1     -33.680 -47.770  -4.605  1.00  0.00     0.075 A 
HETATM   13  O   UNL     1     -31.462 -48.440  -4.256  1.00  0.00    -0.268 OA
HETATM   14  C   UNL     1     -34.605 -46.808  -4.482  1.00  0.00     0.023 A 
HETATM   15  C   UNL     1     -34.248 -45.493  -3.988  1.00  0.00     0.063 A 
HETATM   16  C   UNL     1     -32.965 -45.249  -3.666  1.00  0.00     0.110 A 
BRANCH  15  17
HETATM   17  C   UNL     1     -35.315 -44.457  -3.772  1.00  0.00     0.418 C 
HETATM   18  F   UNL     1     -34.819 -43.198  -3.665  1.00  0.00    -0.166 F 
HETATM   19  F   UNL     1     -36.029 -44.696  -2.643  1.00  0.00    -0.166 F 
HETATM   20  F   UNL     1     -36.203 -44.439  -4.800  1.00  0.00    -0.166 F 
ENDBRANCH  15  17
ENDBRANCH   9  10
ENDBRANCH   1   9
BRANCH   6  21
HETATM   21  C   UNL     1     -26.331 -43.607  -1.434  1.00  0.00     0.086 C 
HETATM   22  C   UNL     1     -24.907 -44.097  -1.160  1.00  0.00     0.025 C 
HETATM   23  C   UNL     1     -24.486 -43.912   0.294  1.00  0.00     0.002 C 
HETATM   24  C   UNL     1     -24.704 -42.478   0.768  1.00  0.00     0.000 C 
HETATM   25  C   UNL     1     -26.141 -42.019   0.544  1.00  0.00     0.002 C 
HETATM   26  C   UNL     1     -26.554 -42.179  -0.915  1.00  0.00     0.025 C 
ENDBRANCH   6  21
TORSDOF 4
ENDMDL
