MODEL 1
REMARK VINA RESULT:      -6.4      0.000      0.000
REMARK  5 active torsions:
REMARK  status: ('A' for Active; 'I' for Inactive)
REMARK    1  A    between atoms: N_5  and  C_6 
REMARK    2  A    between atoms: C_6  and  C_7 
REMARK    3  A    between atoms: C_7  and  N_8 
REMARK       I    between atoms: N_8  and  C_9 
REMARK       I    between atoms: C_9  and  N_11 
REMARK    4  A    between atoms: N_11  and  C_12 
REMARK    5  A    between atoms: C_15  and  N_19 
ROOT
HETATM    1  N   UNL     1     -41.079 -51.001  11.299  1.00  0.00    -0.341 N 
HETATM    2  C   UNL     1     -41.174 -49.687  11.696  1.00  0.00     0.320 C 
HETATM    3  O   UNL     1     -41.295 -49.339  12.864  1.00  0.00    -0.247 OA
HETATM    4  N   UNL     1     -41.204 -48.845  10.601  1.00  0.00    -0.308 N 
HETATM    5  H   UNL     1     -40.378 -51.157  10.588  1.00  0.00     0.164 HD
HETATM    6  H   UNL     1     -41.621 -49.271   9.786  1.00  0.00     0.170 HD
ENDROOT
BRANCH   1   7
HETATM    7  C   UNL     1     -41.261 -52.061  12.280  1.00  0.00     0.154 C 
BRANCH   7   8
HETATM    8  C   UNL     1     -42.638 -52.746  12.126  1.00  0.00     0.292 C 
BRANCH   8   9
HETATM    9  N   UNL     1     -43.371 -52.956  13.388  1.00  0.00     0.090 N 
HETATM   10  C   UNL     1     -44.676 -53.602  13.226  1.00  0.00     0.273 C 
HETATM   11  C   UNL     1     -45.727 -52.711  12.559  1.00  0.00     0.034 C 
HETATM   12  C   UNL     1     -45.895 -51.368  13.284  1.00  0.00    -0.015 C 
HETATM   13  C   UNL     1     -46.674 -51.532  14.591  1.00  0.00     0.010 C 
HETATM   14  C   UNL     1     -44.525 -50.718  13.524  1.00  0.00     0.034 C 
HETATM   15  C   UNL     1     -43.509 -51.693  14.134  1.00  0.00     0.273 C 
ENDBRANCH   8   9
ENDBRANCH   7   8
ENDBRANCH   1   7
BRANCH   4  16
HETATM   16  C   UNL     1     -41.330 -47.454  10.739  1.00  0.00     0.051 A 
HETATM   17  C   UNL     1     -40.192 -46.685  10.900  1.00  0.00     0.035 A 
HETATM   18  C   UNL     1     -40.316 -45.295  10.993  1.00  0.00     0.050 A 
HETATM   19  C   UNL     1     -41.572 -44.681  11.010  1.00  0.00     0.102 A 
HETATM   20  N   UNL     1     -42.678 -45.440  10.879  1.00  0.00    -0.350 N 
HETATM   21  C   UNL     1     -42.547 -46.787  10.715  1.00  0.00     0.119 A 
ATOM     22  HN  UNL     1     -43.603 -45.011  10.902  1.00  0.00     0.166 HD
BRANCH  19  23
HETATM   23  N   UNL     1     -41.714 -43.294  11.071  1.00  0.00    -0.376 N 
HETATM   24  C   UNL     1     -43.086 -42.810  11.247  1.00  0.00     0.150 C 
HETATM   25  C   UNL     1     -40.715 -42.499  11.781  1.00  0.00     0.150 C 
ENDBRANCH  19  23
ENDBRANCH   4  16
TORSDOF 5
ENDMDL
MODEL 2
REMARK VINA RESULT:      -6.4      1.749      2.123
REMARK  5 active torsions:
REMARK  status: ('A' for Active; 'I' for Inactive)
REMARK    1  A    between atoms: N_5  and  C_6 
REMARK    2  A    between atoms: C_6  and  C_7 
REMARK    3  A    between atoms: C_7  and  N_8 
REMARK       I    between atoms: N_8  and  C_9 
REMARK       I    between atoms: C_9  and  N_11 
REMARK    4  A    between atoms: N_11  and  C_12 
REMARK    5  A    between atoms: C_15  and  N_19 
ROOT
HETATM    1  N   UNL     1     -41.438 -52.830  11.994  1.00  0.00    -0.341 N 
HETATM    2  C   UNL     1     -41.259 -51.491  12.255  1.00  0.00     0.320 C 
HETATM    3  O   UNL     1     -41.512 -50.972  13.336  1.00  0.00    -0.247 OA
HETATM    4  N   UNL     1     -40.850 -50.819  11.119  1.00  0.00    -0.308 N 
HETATM    5  H   UNL     1     -40.677 -53.243  11.472  1.00  0.00     0.164 HD
HETATM    6  H   UNL     1     -41.196 -51.237  10.267  1.00  0.00     0.170 HD
ENDROOT
BRANCH   1   7
HETATM    7  C   UNL     1     -42.083 -53.675  12.989  1.00  0.00     0.154 C 
BRANCH   7   8
HETATM    8  C   UNL     1     -43.621 -53.651  12.842  1.00  0.00     0.292 C 
BRANCH   8   9
HETATM    9  N   UNL     1     -44.365 -53.697  14.114  1.00  0.00     0.090 N 
HETATM   10  C   UNL     1     -45.805 -53.925  13.962  1.00  0.00     0.273 C 
HETATM   11  C   UNL     1     -46.557 -52.735  13.361  1.00  0.00     0.034 C 
HETATM   12  C   UNL     1     -46.314 -51.438  14.145  1.00  0.00    -0.015 C 
HETATM   13  C   UNL     1     -47.088 -51.429  15.466  1.00  0.00     0.010 C 
HETATM   14  C   UNL     1     -44.811 -51.229  14.374  1.00  0.00     0.034 C 
HETATM   15  C   UNL     1     -44.117 -52.486  14.916  1.00  0.00     0.273 C 
ENDBRANCH   8   9
ENDBRANCH   7   8
ENDBRANCH   1   7
BRANCH   4  16
HETATM   16  C   UNL     1     -40.630 -49.433  11.117  1.00  0.00     0.051 A 
HETATM   17  C   UNL     1     -39.553 -48.919  11.815  1.00  0.00     0.035 A 
HETATM   18  C   UNL     1     -39.309 -47.543  11.775  1.00  0.00     0.050 A 
HETATM   19  C   UNL     1     -40.181 -46.673  11.112  1.00  0.00     0.102 A 
HETATM   20  N   UNL     1     -41.243 -47.179  10.455  1.00  0.00    -0.350 N 
HETATM   21  C   UNL     1     -41.434 -48.529  10.437  1.00  0.00     0.119 A 
ATOM     22  HN  UNL     1     -41.896 -46.560   9.977  1.00  0.00     0.166 HD
BRANCH  19  23
HETATM   23  N   UNL     1     -39.936 -45.301  11.035  1.00  0.00    -0.376 N 
HETATM   24  C   UNL     1     -39.485 -44.673  12.281  1.00  0.00     0.150 C 
HETATM   25  C   UNL     1     -39.308 -44.749   9.839  1.00  0.00     0.150 C 
ENDBRANCH  19  23
ENDBRANCH   4  16
TORSDOF 5
ENDMDL
MODEL 3
REMARK VINA RESULT:      -6.1      0.837      1.469
REMARK  5 active torsions:
REMARK  status: ('A' for Active; 'I' for Inactive)
REMARK    1  A    between atoms: N_5  and  C_6 
REMARK    2  A    between atoms: C_6  and  C_7 
REMARK    3  A    between atoms: C_7  and  N_8 
REMARK       I    between atoms: N_8  and  C_9 
REMARK       I    between atoms: C_9  and  N_11 
REMARK    4  A    between atoms: N_11  and  C_12 
REMARK    5  A    between atoms: C_15  and  N_19 
ROOT
HETATM    1  N   UNL     1     -40.930 -51.088  11.164  1.00  0.00    -0.341 N 
HETATM    2  C   UNL     1     -41.090 -49.811  11.653  1.00  0.00     0.320 C 
HETATM    3  O   UNL     1     -41.205 -49.552  12.845  1.00  0.00    -0.247 OA
HETATM    4  N   UNL     1     -41.193 -48.899  10.620  1.00  0.00    -0.308 N 
HETATM    5  H   UNL     1     -40.238 -51.154  10.431  1.00  0.00     0.164 HD
HETATM    6  H   UNL     1     -41.604 -49.292   9.785  1.00  0.00     0.170 HD
ENDROOT
BRANCH   1   7
HETATM    7  C   UNL     1     -41.029 -52.221  12.072  1.00  0.00     0.154 C 
BRANCH   7   8
HETATM    8  C   UNL     1     -42.485 -52.724  12.195  1.00  0.00     0.292 C 
BRANCH   8   9
HETATM    9  N   UNL     1     -43.154 -52.382  13.463  1.00  0.00     0.090 N 
HETATM   10  C   UNL     1     -43.193 -53.475  14.438  1.00  0.00     0.273 C 
HETATM   11  C   UNL     1     -44.132 -54.619  14.046  1.00  0.00     0.034 C 
HETATM   12  C   UNL     1     -45.557 -54.126  13.758  1.00  0.00    -0.015 C 
HETATM   13  C   UNL     1     -46.302 -53.781  15.050  1.00  0.00     0.010 C 
HETATM   14  C   UNL     1     -45.523 -52.933  12.794  1.00  0.00     0.034 C 
HETATM   15  C   UNL     1     -44.511 -51.860  13.220  1.00  0.00     0.273 C 
ENDBRANCH   8   9
ENDBRANCH   7   8
ENDBRANCH   1   7
BRANCH   4  16
HETATM   16  C   UNL     1     -41.395 -47.531  10.857  1.00  0.00     0.051 A 
HETATM   17  C   UNL     1     -40.299 -46.708  11.043  1.00  0.00     0.035 A 
HETATM   18  C   UNL     1     -40.500 -45.338  11.235  1.00  0.00     0.050 A 
HETATM   19  C   UNL     1     -41.789 -44.802  11.325  1.00  0.00     0.102 A 
HETATM   20  N   UNL     1     -42.852 -45.614  11.168  1.00  0.00    -0.350 N 
HETATM   21  C   UNL     1     -42.648 -46.937  10.908  1.00  0.00     0.119 A 
ATOM     22  HN  UNL     1     -43.799 -45.244  11.243  1.00  0.00     0.166 HD
BRANCH  19  23
HETATM   23  N   UNL     1     -42.008 -43.433  11.485  1.00  0.00    -0.376 N 
HETATM   24  C   UNL     1     -40.810 -42.592  11.409  1.00  0.00     0.150 C 
HETATM   25  C   UNL     1     -43.192 -42.821  10.889  1.00  0.00     0.150 C 
ENDBRANCH  19  23
ENDBRANCH   4  16
TORSDOF 5
ENDMDL
MODEL 4
REMARK VINA RESULT:      -5.5      2.723      8.012
REMARK  5 active torsions:
REMARK  status: ('A' for Active; 'I' for Inactive)
REMARK    1  A    between atoms: N_5  and  C_6 
REMARK    2  A    between atoms: C_6  and  C_7 
REMARK    3  A    between atoms: C_7  and  N_8 
REMARK       I    between atoms: N_8  and  C_9 
REMARK       I    between atoms: C_9  and  N_11 
REMARK    4  A    between atoms: N_11  and  C_12 
REMARK    5  A    between atoms: C_15  and  N_19 
ROOT
HETATM    1  N   UNL     1     -41.641 -48.389   9.936  1.00  0.00    -0.341 N 
HETATM    2  C   UNL     1     -41.572 -49.165  11.070  1.00  0.00     0.320 C 
HETATM    3  O   UNL     1     -42.276 -48.988  12.056  1.00  0.00    -0.247 OA
HETATM    4  N   UNL     1     -40.553 -50.093  10.968  1.00  0.00    -0.308 N 
HETATM    5  H   UNL     1     -41.599 -48.923   9.079  1.00  0.00     0.164 HD
HETATM    6  H   UNL     1     -39.784 -49.775  10.395  1.00  0.00     0.170 HD
ENDROOT
BRANCH   1   7
HETATM    7  C   UNL     1     -42.491 -47.207   9.927  1.00  0.00     0.154 C 
BRANCH   7   8
HETATM    8  C   UNL     1     -41.688 -45.928  10.253  1.00  0.00     0.292 C 
BRANCH   8   9
HETATM    9  N   UNL     1     -42.086 -45.246  11.498  1.00  0.00     0.090 N 
HETATM   10  C   UNL     1     -42.177 -43.788  11.383  1.00  0.00     0.273 C 
HETATM   11  C   UNL     1     -40.820 -43.095  11.230  1.00  0.00     0.034 C 
HETATM   12  C   UNL     1     -39.846 -43.471  12.355  1.00  0.00    -0.015 C 
HETATM   13  C   UNL     1     -40.206 -42.766  13.666  1.00  0.00     0.010 C 
HETATM   14  C   UNL     1     -39.801 -44.995  12.533  1.00  0.00     0.034 C 
HETATM   15  C   UNL     1     -41.199 -45.621  12.613  1.00  0.00     0.273 C 
ENDBRANCH   8   9
ENDBRANCH   7   8
ENDBRANCH   1   7
BRANCH   4  16
HETATM   16  C   UNL     1     -40.255 -50.985  12.009  1.00  0.00     0.051 A 
HETATM   17  C   UNL     1     -39.199 -50.706  12.857  1.00  0.00     0.035 A 
HETATM   18  C   UNL     1     -38.932 -51.572  13.922  1.00  0.00     0.050 A 
HETATM   19  C   UNL     1     -39.659 -52.755  14.092  1.00  0.00     0.102 A 
HETATM   20  N   UNL     1     -40.671 -53.033  13.246  1.00  0.00    -0.350 N 
HETATM   21  C   UNL     1     -40.974 -52.147  12.254  1.00  0.00     0.119 A 
ATOM     22  HN  UNL     1     -41.204 -53.896  13.346  1.00  0.00     0.166 HD
BRANCH  19  23
HETATM   23  N   UNL     1     -39.428 -53.615  15.166  1.00  0.00    -0.376 N 
HETATM   24  C   UNL     1     -38.976 -54.962  14.805  1.00  0.00     0.150 C 
HETATM   25  C   UNL     1     -38.810 -53.096  16.382  1.00  0.00     0.150 C 
ENDBRANCH  19  23
ENDBRANCH   4  16
TORSDOF 5
ENDMDL
MODEL 5
REMARK VINA RESULT:      -5.4      2.711      3.429
REMARK  5 active torsions:
REMARK  status: ('A' for Active; 'I' for Inactive)
REMARK    1  A    between atoms: N_5  and  C_6 
REMARK    2  A    between atoms: C_6  and  C_7 
REMARK    3  A    between atoms: C_7  and  N_8 
REMARK       I    between atoms: N_8  and  C_9 
REMARK       I    between atoms: C_9  and  N_11 
REMARK    4  A    between atoms: N_11  and  C_12 
REMARK    5  A    between atoms: C_15  and  N_19 
ROOT
HETATM    1  N   UNL     1     -40.770 -52.422  11.783  1.00  0.00    -0.341 N 
HETATM    2  C   UNL     1     -41.100 -51.100  11.973  1.00  0.00     0.320 C 
HETATM    3  O   UNL     1     -41.915 -50.718  12.803  1.00  0.00    -0.247 OA
HETATM    4  N   UNL     1     -40.460 -50.296  11.049  1.00  0.00    -0.308 N 
HETATM    5  H   UNL     1     -39.778 -52.575  11.659  1.00  0.00     0.164 HD
HETATM    6  H   UNL     1     -40.286 -50.765  10.171  1.00  0.00     0.170 HD
ENDROOT
BRANCH   1   7
HETATM    7  C   UNL     1     -41.505 -53.454  12.499  1.00  0.00     0.154 C 
BRANCH   7   8
HETATM    8  C   UNL     1     -40.682 -54.026  13.675  1.00  0.00     0.292 C 
BRANCH   8   9
HETATM    9  N   UNL     1     -41.138 -53.606  15.012  1.00  0.00     0.090 N 
HETATM   10  C   UNL     1     -40.332 -54.133  16.117  1.00  0.00     0.273 C 
HETATM   11  C   UNL     1     -40.498 -55.638  16.339  1.00  0.00     0.034 C 
HETATM   12  C   UNL     1     -41.968 -56.037  16.530  1.00  0.00    -0.015 C 
HETATM   13  C   UNL     1     -42.480 -55.642  17.917  1.00  0.00     0.010 C 
HETATM   14  C   UNL     1     -42.833 -55.428  15.418  1.00  0.00     0.034 C 
HETATM   15  C   UNL     1     -42.561 -53.932  15.212  1.00  0.00     0.273 C 
ENDBRANCH   8   9
ENDBRANCH   7   8
ENDBRANCH   1   7
BRANCH   4  16
HETATM   16  C   UNL     1     -40.657 -48.908  11.011  1.00  0.00     0.051 A 
HETATM   17  C   UNL     1     -39.808 -48.085  11.728  1.00  0.00     0.035 A 
HETATM   18  C   UNL     1     -39.978 -46.699  11.655  1.00  0.00     0.050 A 
HETATM   19  C   UNL     1     -41.040 -46.138  10.938  1.00  0.00     0.102 A 
HETATM   20  N   UNL     1     -41.879 -46.948  10.263  1.00  0.00    -0.350 N 
HETATM   21  C   UNL     1     -41.664 -48.294  10.279  1.00  0.00     0.119 A 
ATOM     22  HN  UNL     1     -42.666 -46.558   9.745  1.00  0.00     0.166 HD
BRANCH  19  23
HETATM   23  N   UNL     1     -41.207 -44.757  10.828  1.00  0.00    -0.376 N 
HETATM   24  C   UNL     1     -42.504 -44.244  11.277  1.00  0.00     0.150 C 
HETATM   25  C   UNL     1     -40.087 -43.871  11.134  1.00  0.00     0.150 C 
ENDBRANCH  19  23
ENDBRANCH   4  16
TORSDOF 5
ENDMDL
MODEL 6
REMARK VINA RESULT:      -5.3      2.543      8.570
REMARK  5 active torsions:
REMARK  status: ('A' for Active; 'I' for Inactive)
REMARK    1  A    between atoms: N_5  and  C_6 
REMARK    2  A    between atoms: C_6  and  C_7 
REMARK    3  A    between atoms: C_7  and  N_8 
REMARK       I    between atoms: N_8  and  C_9 
REMARK       I    between atoms: C_9  and  N_11 
REMARK    4  A    between atoms: N_11  and  C_12 
REMARK    5  A    between atoms: C_15  and  N_19 
ROOT
HETATM    1  N   UNL     1     -41.536 -49.223  10.596  1.00  0.00    -0.341 N 
HETATM    2  C   UNL     1     -41.503 -50.007  11.727  1.00  0.00     0.320 C 
HETATM    3  O   UNL     1     -41.985 -49.668  12.800  1.00  0.00    -0.247 OA
HETATM    4  N   UNL     1     -40.782 -51.164  11.501  1.00  0.00    -0.308 N 
HETATM    5  H   UNL     1     -41.758 -49.739   9.755  1.00  0.00     0.164 HD
HETATM    6  H   UNL     1     -40.050 -51.046  10.814  1.00  0.00     0.170 HD
ENDROOT
BRANCH   1   7
HETATM    7  C   UNL     1     -42.047 -47.863  10.682  1.00  0.00     0.154 C 
BRANCH   7   8
HETATM    8  C   UNL     1     -40.920 -46.852  10.992  1.00  0.00     0.292 C 
BRANCH   8   9
HETATM    9  N   UNL     1     -41.072 -45.537  10.344  1.00  0.00     0.090 N 
HETATM   10  C   UNL     1     -39.873 -44.696  10.401  1.00  0.00     0.273 C 
HETATM   11  C   UNL     1     -39.556 -44.166  11.801  1.00  0.00     0.034 C 
HETATM   12  C   UNL     1     -40.745 -43.422  12.424  1.00  0.00    -0.015 C 
HETATM   13  C   UNL     1     -40.928 -42.037  11.798  1.00  0.00     0.010 C 
HETATM   14  C   UNL     1     -42.022 -44.265  12.303  1.00  0.00     0.034 C 
HETATM   15  C   UNL     1     -42.236 -44.813  10.886  1.00  0.00     0.273 C 
ENDBRANCH   8   9
ENDBRANCH   7   8
ENDBRANCH   1   7
BRANCH   4  16
HETATM   16  C   UNL     1     -40.573 -52.117  12.510  1.00  0.00     0.051 A 
HETATM   17  C   UNL     1     -41.459 -53.170  12.638  1.00  0.00     0.035 A 
HETATM   18  C   UNL     1     -41.225 -54.143  13.615  1.00  0.00     0.050 A 
HETATM   19  C   UNL     1     -40.162 -54.022  14.516  1.00  0.00     0.102 A 
HETATM   20  N   UNL     1     -39.317 -52.978  14.401  1.00  0.00    -0.350 N 
HETATM   21  C   UNL     1     -39.508 -52.073  13.399  1.00  0.00     0.119 A 
ATOM     22  HN  UNL     1     -38.544 -52.866  15.056  1.00  0.00     0.166 HD
BRANCH  19  23
HETATM   23  N   UNL     1     -39.895 -54.998  15.477  1.00  0.00    -0.376 N 
HETATM   24  C   UNL     1     -38.621 -54.848  16.187  1.00  0.00     0.150 C 
HETATM   25  C   UNL     1     -40.980 -55.495  16.318  1.00  0.00     0.150 C 
ENDBRANCH  19  23
ENDBRANCH   4  16
TORSDOF 5
ENDMDL
MODEL 7
REMARK VINA RESULT:      -5.3      2.426      3.350
REMARK  5 active torsions:
REMARK  status: ('A' for Active; 'I' for Inactive)
REMARK    1  A    between atoms: N_5  and  C_6 
REMARK    2  A    between atoms: C_6  and  C_7 
REMARK    3  A    between atoms: C_7  and  N_8 
REMARK       I    between atoms: N_8  and  C_9 
REMARK       I    between atoms: C_9  and  N_11 
REMARK    4  A    between atoms: N_11  and  C_12 
REMARK    5  A    between atoms: C_15  and  N_19 
ROOT
HETATM    1  N   UNL     1     -40.586 -49.347  10.721  1.00  0.00    -0.341 N 
HETATM    2  C   UNL     1     -40.990 -48.142  11.248  1.00  0.00     0.320 C 
HETATM    3  O   UNL     1     -41.530 -48.028  12.341  1.00  0.00    -0.247 OA
HETATM    4  N   UNL     1     -40.784 -47.117  10.344  1.00  0.00    -0.308 N 
HETATM    5  H   UNL     1     -39.678 -49.308  10.278  1.00  0.00     0.164 HD
HETATM    6  H   UNL     1     -40.851 -47.419   9.382  1.00  0.00     0.170 HD
ENDROOT
BRANCH   1   7
HETATM    7  C   UNL     1     -40.922 -50.582  11.414  1.00  0.00     0.154 C 
BRANCH   7   8
HETATM    8  C   UNL     1     -39.806 -51.003  12.396  1.00  0.00     0.292 C 
BRANCH   8   9
HETATM    9  N   UNL     1     -40.264 -51.305  13.764  1.00  0.00     0.090 N 
HETATM   10  C   UNL     1     -39.286 -52.026  14.583  1.00  0.00     0.273 C 
HETATM   11  C   UNL     1     -39.067 -53.477  14.147  1.00  0.00     0.034 C 
HETATM   12  C   UNL     1     -40.381 -54.269  14.085  1.00  0.00    -0.015 C 
HETATM   13  C   UNL     1     -40.885 -54.627  15.486  1.00  0.00     0.010 C 
HETATM   14  C   UNL     1     -41.436 -53.487  13.292  1.00  0.00     0.034 C 
HETATM   15  C   UNL     1     -41.550 -52.025  13.744  1.00  0.00     0.273 C 
ENDBRANCH   8   9
ENDBRANCH   7   8
ENDBRANCH   1   7
BRANCH   4  16
HETATM   16  C   UNL     1     -41.145 -45.792  10.632  1.00  0.00     0.051 A 
HETATM   17  C   UNL     1     -40.154 -44.859  10.874  1.00  0.00     0.035 A 
HETATM   18  C   UNL     1     -40.513 -43.530  11.117  1.00  0.00     0.050 A 
HETATM   19  C   UNL     1     -41.856 -43.148  11.202  1.00  0.00     0.102 A 
HETATM   20  N   UNL     1     -42.817 -44.068  10.990  1.00  0.00    -0.350 N 
HETATM   21  C   UNL     1     -42.459 -45.347  10.681  1.00  0.00     0.119 A 
ATOM     22  HN  UNL     1     -43.801 -43.811  11.059  1.00  0.00     0.166 HD
BRANCH  19  23
HETATM   23  N   UNL     1     -42.233 -41.820  11.412  1.00  0.00    -0.376 N 
HETATM   24  C   UNL     1     -43.573 -41.630  11.975  1.00  0.00     0.150 C 
HETATM   25  C   UNL     1     -41.248 -40.862  11.905  1.00  0.00     0.150 C 
ENDBRANCH  19  23
ENDBRANCH   4  16
TORSDOF 5
ENDMDL
MODEL 8
REMARK VINA RESULT:      -5.3      2.481      3.482
REMARK  5 active torsions:
REMARK  status: ('A' for Active; 'I' for Inactive)
REMARK    1  A    between atoms: N_5  and  C_6 
REMARK    2  A    between atoms: C_6  and  C_7 
REMARK    3  A    between atoms: C_7  and  N_8 
REMARK       I    between atoms: N_8  and  C_9 
REMARK       I    between atoms: C_9  and  N_11 
REMARK    4  A    between atoms: N_11  and  C_12 
REMARK    5  A    between atoms: C_15  and  N_19 
ROOT
HETATM    1  N   UNL     1     -40.759 -51.035  11.204  1.00  0.00    -0.341 N 
HETATM    2  C   UNL     1     -41.137 -49.775  11.609  1.00  0.00     0.320 C 
HETATM    3  O   UNL     1     -41.874 -49.563  12.563  1.00  0.00    -0.247 OA
HETATM    4  N   UNL     1     -40.647 -48.814  10.744  1.00  0.00    -0.308 N 
HETATM    5  H   UNL     1     -39.781 -51.102  10.958  1.00  0.00     0.164 HD
HETATM    6  H   UNL     1     -40.546 -49.149   9.797  1.00  0.00     0.170 HD
ENDROOT
BRANCH   1   7
HETATM    7  C   UNL     1     -41.354 -52.201  11.840  1.00  0.00     0.154 C 
BRANCH   7   8
HETATM    8  C   UNL     1     -40.528 -52.666  13.060  1.00  0.00     0.292 C 
BRANCH   8   9
HETATM    9  N   UNL     1     -40.610 -54.108  13.351  1.00  0.00     0.090 N 
HETATM   10  C   UNL     1     -41.719 -54.483  14.233  1.00  0.00     0.273 C 
HETATM   11  C   UNL     1     -41.538 -54.021  15.682  1.00  0.00     0.034 C 
HETATM   12  C   UNL     1     -40.209 -54.500  16.282  1.00  0.00    -0.015 C 
HETATM   13  C   UNL     1     -40.255 -55.991  16.624  1.00  0.00     0.010 C 
HETATM   14  C   UNL     1     -39.049 -54.178  15.330  1.00  0.00     0.034 C 
HETATM   15  C   UNL     1     -39.333 -54.613  13.886  1.00  0.00     0.273 C 
ENDBRANCH   8   9
ENDBRANCH   7   8
ENDBRANCH   1   7
BRANCH   4  16
HETATM   16  C   UNL     1     -40.921 -47.449  10.921  1.00  0.00     0.051 A 
HETATM   17  C   UNL     1     -42.065 -46.911  10.360  1.00  0.00     0.035 A 
HETATM   18  C   UNL     1     -42.360 -45.562  10.575  1.00  0.00     0.050 A 
HETATM   19  C   UNL     1     -41.478 -44.731  11.273  1.00  0.00     0.102 A 
HETATM   20  N   UNL     1     -40.352 -45.257  11.795  1.00  0.00    -0.350 N 
HETATM   21  C   UNL     1     -40.107 -46.590  11.645  1.00  0.00     0.119 A 
ATOM     22  HN  UNL     1     -39.691 -44.664  12.297  1.00  0.00     0.166 HD
BRANCH  19  23
HETATM   23  N   UNL     1     -41.771 -43.390  11.524  1.00  0.00    -0.376 N 
HETATM   24  C   UNL     1     -42.744 -43.149  12.594  1.00  0.00     0.150 C 
HETATM   25  C   UNL     1     -40.700 -42.398  11.471  1.00  0.00     0.150 C 
ENDBRANCH  19  23
ENDBRANCH   4  16
TORSDOF 5
ENDMDL
MODEL 9
REMARK VINA RESULT:      -4.8      2.588      8.521
REMARK  5 active torsions:
REMARK  status: ('A' for Active; 'I' for Inactive)
REMARK    1  A    between atoms: N_5  and  C_6 
REMARK    2  A    between atoms: C_6  and  C_7 
REMARK    3  A    between atoms: C_7  and  N_8 
REMARK       I    between atoms: N_8  and  C_9 
REMARK       I    between atoms: C_9  and  N_11 
REMARK    4  A    between atoms: N_11  and  C_12 
REMARK    5  A    between atoms: C_15  and  N_19 
ROOT
HETATM    1  N   UNL     1     -39.979 -46.922  10.648  1.00  0.00    -0.341 N 
HETATM    2  C   UNL     1     -40.132 -47.901  11.603  1.00  0.00     0.320 C 
HETATM    3  O   UNL     1     -40.247 -47.667  12.800  1.00  0.00    -0.247 OA
HETATM    4  N   UNL     1     -40.048 -49.158  11.036  1.00  0.00    -0.308 N 
HETATM    5  H   UNL     1     -40.530 -47.082   9.816  1.00  0.00     0.164 HD
HETATM    6  H   UNL     1     -39.451 -49.184  10.221  1.00  0.00     0.170 HD
ENDROOT
BRANCH   1   7
HETATM    7  C   UNL     1     -39.808 -45.537  11.062  1.00  0.00     0.154 C 
BRANCH   7   8
HETATM    8  C   UNL     1     -41.030 -44.674  10.674  1.00  0.00     0.292 C 
BRANCH   8   9
HETATM    9  N   UNL     1     -41.763 -44.091  11.812  1.00  0.00     0.090 N 
HETATM   10  C   UNL     1     -42.723 -43.048  11.440  1.00  0.00     0.273 C 
HETATM   11  C   UNL     1     -42.069 -41.747  10.967  1.00  0.00     0.034 C 
HETATM   12  C   UNL     1     -41.069 -41.194  11.993  1.00  0.00    -0.015 C 
HETATM   13  C   UNL     1     -41.787 -40.555  13.185  1.00  0.00     0.010 C 
HETATM   14  C   UNL     1     -40.105 -42.299  12.445  1.00  0.00     0.034 C 
HETATM   15  C   UNL     1     -40.833 -43.592  12.840  1.00  0.00     0.273 C 
ENDBRANCH   8   9
ENDBRANCH   7   8
ENDBRANCH   1   7
BRANCH   4  16
HETATM   16  C   UNL     1     -40.140 -50.327  11.807  1.00  0.00     0.051 A 
HETATM   17  C   UNL     1     -41.323 -51.043  11.809  1.00  0.00     0.035 A 
HETATM   18  C   UNL     1     -41.399 -52.231  12.543  1.00  0.00     0.050 A 
HETATM   19  C   UNL     1     -40.331 -52.660  13.338  1.00  0.00     0.102 A 
HETATM   20  N   UNL     1     -39.190 -51.942  13.350  1.00  0.00    -0.350 N 
HETATM   21  C   UNL     1     -39.097 -50.824  12.575  1.00  0.00     0.119 A 
ATOM     22  HN  UNL     1     -38.405 -52.233  13.933  1.00  0.00     0.166 HD
BRANCH  19  23
HETATM   23  N   UNL     1     -40.378 -53.859  14.051  1.00  0.00    -0.376 N 
HETATM   24  C   UNL     1     -39.080 -54.372  14.501  1.00  0.00     0.150 C 
HETATM   25  C   UNL     1     -41.461 -54.087  15.003  1.00  0.00     0.150 C 
ENDBRANCH  19  23
ENDBRANCH   4  16
TORSDOF 5
ENDMDL
