MODEL 1
REMARK VINA RESULT:      -6.9      0.000      0.000
REMARK  8 active torsions:
REMARK  status: ('A' for Active; 'I' for Inactive)
REMARK    1  A    between atoms: O_1  and  C_2 
REMARK    2  A    between atoms: C_2  and  C_3 
REMARK    3  A    between atoms: C_3  and  C_4 
REMARK    4  A    between atoms: C_4  and  C_5 
REMARK    5  A    between atoms: N_14  and  C_15 
REMARK    6  A    between atoms: C_15  and  C_16 
REMARK    7  A    between atoms: C_16  and  O_17 
REMARK    8  A    between atoms: C_16  and  C_18 
ROOT
HETATM    1  C   UNL     1     -39.196 -49.806  11.623  1.00  0.00     0.084 A 
HETATM    2  N   UNL     1     -39.440 -48.625  11.090  1.00  0.00    -0.344 N 
ATOM      3  HN  UNL     1     -38.794 -48.054  10.545  1.00  0.00     0.167 HD
HETATM    4  C   UNL     1     -40.732 -48.322  11.416  1.00  0.00     0.060 A 
HETATM    5  C   UNL     1     -41.482 -47.185  11.084  1.00  0.00     0.032 A 
HETATM    6  C   UNL     1     -42.809 -47.103  11.516  1.00  0.00     0.002 A 
HETATM    7  C   UNL     1     -43.374 -48.134  12.269  1.00  0.00     0.002 A 
HETATM    8  C   UNL     1     -42.637 -49.276  12.612  1.00  0.00     0.032 A 
HETATM    9  C   UNL     1     -41.310 -49.342  12.166  1.00  0.00     0.062 A 
HETATM   10  N   UNL     1     -40.309 -50.284  12.286  1.00  0.00    -0.332 N 
ENDROOT
BRANCH  10  11
HETATM   11  C   UNL     1     -40.454 -51.603  12.885  1.00  0.00     0.167 C 
BRANCH  11  12
HETATM   12  C   UNL     1     -41.290 -52.587  12.042  1.00  0.00     0.172 C 
BRANCH  12  13
HETATM   13  O   UNL     1     -40.466 -53.552  11.388  1.00  0.00    -0.389 OA
HETATM   14  H   UNL     1     -39.546 -53.404  11.668  1.00  0.00     0.210 HD
ENDBRANCH  12  13
BRANCH  12  15
HETATM   15  C   UNL     1     -42.311 -53.339  12.871  1.00  0.00     0.013 A 
HETATM   16  C   UNL     1     -43.683 -53.232  12.598  1.00  0.00     0.055 A 
HETATM   17  C   UNL     1     -44.609 -53.950  13.356  1.00  0.00     0.117 A 
HETATM   18  F   UNL     1     -45.914 -53.839  13.080  1.00  0.00    -0.206 F 
HETATM   19  C   UNL     1     -44.201 -54.782  14.395  1.00  0.00     0.045 A 
HETATM   20  C   UNL     1     -42.842 -54.904  14.676  1.00  0.00     0.046 A 
HETATM   21  C   UNL     1     -41.917 -54.190  13.916  1.00  0.00     0.125 A 
HETATM   22  F   UNL     1     -40.612 -54.342  14.186  1.00  0.00    -0.205 F 
ENDBRANCH  12  15
ENDBRANCH  11  12
ENDBRANCH  10  11
BRANCH   1  23
HETATM   23  C   UNL     1     -37.893 -50.532  11.510  1.00  0.00     0.079 C 
BRANCH  23  24
HETATM   24  C   UNL     1     -36.911 -49.811  10.581  1.00  0.00     0.033 C 
BRANCH  24  25
HETATM   25  C   UNL     1     -36.436 -50.683   9.425  1.00  0.00     0.164 C 
BRANCH  25  26
HETATM   26  O   UNL     1     -36.529 -49.954   8.206  1.00  0.00    -0.401 OA
HETATM   27  H   UNL     1     -36.094 -49.098   8.369  1.00  0.00     0.209 HD
ENDBRANCH  25  26
ENDBRANCH  24  25
ENDBRANCH  23  24
ENDBRANCH   1  23
TORSDOF 8
ENDMDL
MODEL 2
REMARK VINA RESULT:      -6.7      4.124      6.411
REMARK  8 active torsions:
REMARK  status: ('A' for Active; 'I' for Inactive)
REMARK    1  A    between atoms: O_1  and  C_2 
REMARK    2  A    between atoms: C_2  and  C_3 
REMARK    3  A    between atoms: C_3  and  C_4 
REMARK    4  A    between atoms: C_4  and  C_5 
REMARK    5  A    between atoms: N_14  and  C_15 
REMARK    6  A    between atoms: C_15  and  C_16 
REMARK    7  A    between atoms: C_16  and  O_17 
REMARK    8  A    between atoms: C_16  and  C_18 
ROOT
HETATM    1  C   UNL     1     -43.327 -46.827  10.312  1.00  0.00     0.084 A 
HETATM    2  N   UNL     1     -43.458 -45.528  10.495  1.00  0.00    -0.344 N 
ATOM      3  HN  UNL     1     -44.323 -44.988  10.459  1.00  0.00     0.167 HD
HETATM    4  C   UNL     1     -42.201 -45.052  10.743  1.00  0.00     0.060 A 
HETATM    5  C   UNL     1     -41.794 -43.737  11.013  1.00  0.00     0.032 A 
HETATM    6  C   UNL     1     -40.440 -43.489  11.260  1.00  0.00     0.002 A 
HETATM    7  C   UNL     1     -39.512 -44.531  11.232  1.00  0.00     0.002 A 
HETATM    8  C   UNL     1     -39.903 -45.850  10.960  1.00  0.00     0.032 A 
HETATM    9  C   UNL     1     -41.264 -46.080  10.719  1.00  0.00     0.062 A 
HETATM   10  N   UNL     1     -42.006 -47.209  10.443  1.00  0.00    -0.332 N 
ENDROOT
BRANCH  10  11
HETATM   11  C   UNL     1     -41.500 -48.575  10.434  1.00  0.00     0.167 C 
BRANCH  11  12
HETATM   12  C   UNL     1     -41.486 -49.249  11.820  1.00  0.00     0.172 C 
BRANCH  12  13
HETATM   13  O   UNL     1     -41.993 -50.583  11.763  1.00  0.00    -0.389 OA
HETATM   14  H   UNL     1     -41.872 -50.989  12.639  1.00  0.00     0.210 HD
ENDBRANCH  12  13
BRANCH  12  15
HETATM   15  C   UNL     1     -40.097 -49.309  12.422  1.00  0.00     0.013 A 
HETATM   16  C   UNL     1     -39.164 -50.265  11.991  1.00  0.00     0.055 A 
HETATM   17  C   UNL     1     -37.882 -50.293  12.540  1.00  0.00     0.117 A 
HETATM   18  F   UNL     1     -37.003 -51.208  12.114  1.00  0.00    -0.206 F 
HETATM   19  C   UNL     1     -37.496 -49.383  13.520  1.00  0.00     0.045 A 
HETATM   20  C   UNL     1     -38.408 -48.425  13.957  1.00  0.00     0.046 A 
HETATM   21  C   UNL     1     -39.688 -48.394  13.406  1.00  0.00     0.125 A 
HETATM   22  F   UNL     1     -40.542 -47.447  13.820  1.00  0.00    -0.205 F 
ENDBRANCH  12  15
ENDBRANCH  11  12
ENDBRANCH  10  11
BRANCH   1  23
HETATM   23  C   UNL     1     -44.460 -47.759  10.016  1.00  0.00     0.079 C 
BRANCH  23  24
HETATM   24  C   UNL     1     -45.530 -47.102   9.138  1.00  0.00     0.033 C 
BRANCH  24  25
HETATM   25  C   UNL     1     -46.666 -48.051   8.776  1.00  0.00     0.164 C 
BRANCH  25  26
HETATM   26  O   UNL     1     -46.448 -48.583   7.474  1.00  0.00    -0.401 OA
HETATM   27  H   UNL     1     -45.876 -49.363   7.592  1.00  0.00     0.209 HD
ENDBRANCH  25  26
ENDBRANCH  24  25
ENDBRANCH  23  24
ENDBRANCH   1  23
TORSDOF 8
ENDMDL
MODEL 3
REMARK VINA RESULT:      -6.6      2.880      4.761
REMARK  8 active torsions:
REMARK  status: ('A' for Active; 'I' for Inactive)
REMARK    1  A    between atoms: O_1  and  C_2 
REMARK    2  A    between atoms: C_2  and  C_3 
REMARK    3  A    between atoms: C_3  and  C_4 
REMARK    4  A    between atoms: C_4  and  C_5 
REMARK    5  A    between atoms: N_14  and  C_15 
REMARK    6  A    between atoms: C_15  and  C_16 
REMARK    7  A    between atoms: C_16  and  O_17 
REMARK    8  A    between atoms: C_16  and  C_18 
ROOT
HETATM    1  C   UNL     1     -40.009 -52.049  13.380  1.00  0.00     0.084 A 
HETATM    2  N   UNL     1     -39.090 -52.928  13.730  1.00  0.00    -0.344 N 
ATOM      3  HN  UNL     1     -38.118 -52.953  13.422  1.00  0.00     0.167 HD
HETATM    4  C   UNL     1     -39.704 -53.797  14.588  1.00  0.00     0.060 A 
HETATM    5  C   UNL     1     -39.166 -54.908  15.252  1.00  0.00     0.032 A 
HETATM    6  C   UNL     1     -39.990 -55.646  16.108  1.00  0.00     0.002 A 
HETATM    7  C   UNL     1     -41.325 -55.284  16.291  1.00  0.00     0.002 A 
HETATM    8  C   UNL     1     -41.880 -54.178  15.631  1.00  0.00     0.032 A 
HETATM    9  C   UNL     1     -41.037 -53.449  14.781  1.00  0.00     0.062 A 
HETATM   10  N   UNL     1     -41.211 -52.325  14.000  1.00  0.00    -0.332 N 
ENDROOT
BRANCH  10  11
HETATM   11  C   UNL     1     -42.412 -51.502  13.954  1.00  0.00     0.167 C 
BRANCH  11  12
HETATM   12  C   UNL     1     -43.444 -51.956  12.903  1.00  0.00     0.172 C 
BRANCH  12  13
HETATM   13  O   UNL     1     -42.838 -52.734  11.871  1.00  0.00    -0.389 OA
HETATM   14  H   UNL     1     -42.074 -53.200  12.253  1.00  0.00     0.210 HD
ENDBRANCH  12  13
BRANCH  12  15
HETATM   15  C   UNL     1     -44.562 -52.782  13.506  1.00  0.00     0.013 A 
HETATM   16  C   UNL     1     -44.637 -54.166  13.285  1.00  0.00     0.055 A 
HETATM   17  C   UNL     1     -45.660 -54.916  13.867  1.00  0.00     0.117 A 
HETATM   18  F   UNL     1     -45.714 -56.236  13.649  1.00  0.00    -0.206 F 
HETATM   19  C   UNL     1     -46.625 -54.319  14.673  1.00  0.00     0.045 A 
HETATM   20  C   UNL     1     -46.563 -52.947  14.906  1.00  0.00     0.046 A 
HETATM   21  C   UNL     1     -45.539 -52.198  14.328  1.00  0.00     0.125 A 
HETATM   22  F   UNL     1     -45.482 -50.883  14.587  1.00  0.00    -0.205 F 
ENDBRANCH  12  15
ENDBRANCH  11  12
ENDBRANCH  10  11
BRANCH   1  23
HETATM   23  C   UNL     1     -39.772 -50.903  12.448  1.00  0.00     0.079 C 
BRANCH  23  24
HETATM   24  C   UNL     1     -38.436 -50.204  12.725  1.00  0.00     0.033 C 
BRANCH  24  25
HETATM   25  C   UNL     1     -37.351 -50.580  11.723  1.00  0.00     0.164 C 
BRANCH  25  26
HETATM   26  O   UNL     1     -36.763 -51.821  12.100  1.00  0.00    -0.401 OA
HETATM   27  H   UNL     1     -36.438 -51.702  13.010  1.00  0.00     0.209 HD
ENDBRANCH  25  26
ENDBRANCH  24  25
ENDBRANCH  23  24
ENDBRANCH   1  23
TORSDOF 8
ENDMDL
MODEL 4
REMARK VINA RESULT:      -6.6      3.124      4.780
REMARK  8 active torsions:
REMARK  status: ('A' for Active; 'I' for Inactive)
REMARK    1  A    between atoms: O_1  and  C_2 
REMARK    2  A    between atoms: C_2  and  C_3 
REMARK    3  A    between atoms: C_3  and  C_4 
REMARK    4  A    between atoms: C_4  and  C_5 
REMARK    5  A    between atoms: N_14  and  C_15 
REMARK    6  A    between atoms: C_15  and  C_16 
REMARK    7  A    between atoms: C_16  and  O_17 
REMARK    8  A    between atoms: C_16  and  C_18 
ROOT
HETATM    1  C   UNL     1     -40.179 -53.156  13.886  1.00  0.00     0.084 A 
HETATM    2  N   UNL     1     -38.931 -52.759  14.036  1.00  0.00    -0.344 N 
ATOM      3  HN  UNL     1     -38.207 -53.212  14.594  1.00  0.00     0.167 HD
HETATM    4  C   UNL     1     -38.805 -51.618  13.294  1.00  0.00     0.060 A 
HETATM    5  C   UNL     1     -37.676 -50.808  13.108  1.00  0.00     0.032 A 
HETATM    6  C   UNL     1     -37.780 -49.688  12.277  1.00  0.00     0.002 A 
HETATM    7  C   UNL     1     -38.988 -49.381  11.650  1.00  0.00     0.002 A 
HETATM    8  C   UNL     1     -40.128 -50.178  11.830  1.00  0.00     0.032 A 
HETATM    9  C   UNL     1     -40.002 -51.299  12.662  1.00  0.00     0.062 A 
HETATM   10  N   UNL     1     -40.869 -52.298  13.053  1.00  0.00    -0.332 N 
ENDROOT
BRANCH  10  11
HETATM   11  C   UNL     1     -42.226 -52.485  12.558  1.00  0.00     0.167 C 
BRANCH  11  12
HETATM   12  C   UNL     1     -43.291 -51.673  13.323  1.00  0.00     0.172 C 
BRANCH  12  13
HETATM   13  O   UNL     1     -43.848 -50.638  12.512  1.00  0.00    -0.389 OA
HETATM   14  H   UNL     1     -44.246 -51.052  11.726  1.00  0.00     0.210 HD
ENDBRANCH  12  13
BRANCH  12  15
HETATM   15  C   UNL     1     -44.434 -52.536  13.817  1.00  0.00     0.013 A 
HETATM   16  C   UNL     1     -44.515 -53.894  13.472  1.00  0.00     0.055 A 
HETATM   17  C   UNL     1     -45.563 -54.680  13.954  1.00  0.00     0.117 A 
HETATM   18  F   UNL     1     -45.623 -55.974  13.618  1.00  0.00    -0.206 F 
HETATM   19  C   UNL     1     -46.546 -54.145  14.781  1.00  0.00     0.045 A 
HETATM   20  C   UNL     1     -46.478 -52.800  15.138  1.00  0.00     0.046 A 
HETATM   21  C   UNL     1     -45.429 -52.015  14.659  1.00  0.00     0.125 A 
HETATM   22  F   UNL     1     -45.368 -50.730  15.036  1.00  0.00    -0.205 F 
ENDBRANCH  12  15
ENDBRANCH  11  12
ENDBRANCH  10  11
BRANCH   1  23
HETATM   23  C   UNL     1     -40.760 -54.379  14.523  1.00  0.00     0.079 C 
BRANCH  23  24
HETATM   24  C   UNL     1     -40.292 -54.550  15.972  1.00  0.00     0.033 C 
BRANCH  24  25
HETATM   25  C   UNL     1     -39.347 -55.732  16.155  1.00  0.00     0.164 C 
BRANCH  25  26
HETATM   26  O   UNL     1     -38.354 -55.713  15.135  1.00  0.00    -0.401 OA
HETATM   27  H   UNL     1     -38.798 -56.004  14.318  1.00  0.00     0.209 HD
ENDBRANCH  25  26
ENDBRANCH  24  25
ENDBRANCH  23  24
ENDBRANCH   1  23
TORSDOF 8
ENDMDL
MODEL 5
REMARK VINA RESULT:      -6.5      3.171      5.533
REMARK  8 active torsions:
REMARK  status: ('A' for Active; 'I' for Inactive)
REMARK    1  A    between atoms: O_1  and  C_2 
REMARK    2  A    between atoms: C_2  and  C_3 
REMARK    3  A    between atoms: C_3  and  C_4 
REMARK    4  A    between atoms: C_4  and  C_5 
REMARK    5  A    between atoms: N_14  and  C_15 
REMARK    6  A    between atoms: C_15  and  C_16 
REMARK    7  A    between atoms: C_16  and  O_17 
REMARK    8  A    between atoms: C_16  and  C_18 
ROOT
HETATM    1  C   UNL     1     -41.220 -52.111  12.738  1.00  0.00     0.084 A 
HETATM    2  N   UNL     1     -42.344 -52.077  12.049  1.00  0.00    -0.344 N 
ATOM      3  HN  UNL     1     -42.532 -51.528  11.210  1.00  0.00     0.167 HD
HETATM    4  C   UNL     1     -43.205 -52.926  12.687  1.00  0.00     0.060 A 
HETATM    5  C   UNL     1     -44.526 -53.255  12.353  1.00  0.00     0.032 A 
HETATM    6  C   UNL     1     -45.212 -54.176  13.151  1.00  0.00     0.002 A 
HETATM    7  C   UNL     1     -44.594 -54.751  14.262  1.00  0.00     0.002 A 
HETATM    8  C   UNL     1     -43.274 -54.428  14.612  1.00  0.00     0.032 A 
HETATM    9  C   UNL     1     -42.601 -53.507  13.797  1.00  0.00     0.062 A 
HETATM   10  N   UNL     1     -41.330 -52.973  13.811  1.00  0.00    -0.332 N 
ENDROOT
BRANCH  10  11
HETATM   11  C   UNL     1     -40.257 -53.362  14.716  1.00  0.00     0.167 C 
BRANCH  11  12
HETATM   12  C   UNL     1     -39.687 -54.768  14.445  1.00  0.00     0.172 C 
BRANCH  12  13
HETATM   13  O   UNL     1     -38.599 -54.727  13.521  1.00  0.00    -0.389 OA
HETATM   14  H   UNL     1     -38.906 -55.100  12.676  1.00  0.00     0.210 HD
ENDBRANCH  12  13
BRANCH  12  15
HETATM   15  C   UNL     1     -39.193 -55.447  15.707  1.00  0.00     0.013 A 
HETATM   16  C   UNL     1     -37.841 -55.383  16.079  1.00  0.00     0.055 A 
HETATM   17  C   UNL     1     -37.407 -55.994  17.256  1.00  0.00     0.117 A 
HETATM   18  F   UNL     1     -36.115 -55.921  17.599  1.00  0.00    -0.206 F 
HETATM   19  C   UNL     1     -38.293 -56.678  18.084  1.00  0.00     0.045 A 
HETATM   20  C   UNL     1     -39.639 -56.747  17.732  1.00  0.00     0.046 A 
HETATM   21  C   UNL     1     -40.073 -56.133  16.559  1.00  0.00     0.125 A 
HETATM   22  F   UNL     1     -41.378 -56.188  16.251  1.00  0.00    -0.205 F 
ENDBRANCH  12  15
ENDBRANCH  11  12
ENDBRANCH  10  11
BRANCH   1  23
HETATM   23  C   UNL     1     -39.992 -51.331  12.391  1.00  0.00     0.079 C 
BRANCH  23  24
HETATM   24  C   UNL     1     -40.190 -49.825  12.598  1.00  0.00     0.033 C 
BRANCH  24  25
HETATM   25  C   UNL     1     -40.584 -49.097  11.318  1.00  0.00     0.164 C 
BRANCH  25  26
HETATM   26  O   UNL     1     -40.485 -49.987  10.212  1.00  0.00    -0.401 OA
HETATM   27  H   UNL     1     -41.398 -50.230   9.977  1.00  0.00     0.209 HD
ENDBRANCH  25  26
ENDBRANCH  24  25
ENDBRANCH  23  24
ENDBRANCH   1  23
TORSDOF 8
ENDMDL
MODEL 6
REMARK VINA RESULT:      -6.5      2.807      5.903
REMARK  8 active torsions:
REMARK  status: ('A' for Active; 'I' for Inactive)
REMARK    1  A    between atoms: O_1  and  C_2 
REMARK    2  A    between atoms: C_2  and  C_3 
REMARK    3  A    between atoms: C_3  and  C_4 
REMARK    4  A    between atoms: C_4  and  C_5 
REMARK    5  A    between atoms: N_14  and  C_15 
REMARK    6  A    between atoms: C_15  and  C_16 
REMARK    7  A    between atoms: C_16  and  O_17 
REMARK    8  A    between atoms: C_16  and  C_18 
ROOT
HETATM    1  C   UNL     1     -43.655 -50.732  13.630  1.00  0.00     0.084 A 
HETATM    2  N   UNL     1     -44.723 -50.919  14.380  1.00  0.00    -0.344 N 
ATOM      3  HN  UNL     1     -45.219 -50.214  14.927  1.00  0.00     0.167 HD
HETATM    4  C   UNL     1     -45.032 -52.247  14.276  1.00  0.00     0.060 A 
HETATM    5  C   UNL     1     -46.085 -52.956  14.870  1.00  0.00     0.032 A 
HETATM    6  C   UNL     1     -46.215 -54.321  14.598  1.00  0.00     0.002 A 
HETATM    7  C   UNL     1     -45.309 -54.965  13.754  1.00  0.00     0.002 A 
HETATM    8  C   UNL     1     -44.247 -54.271  13.156  1.00  0.00     0.032 A 
HETATM    9  C   UNL     1     -44.136 -52.902  13.437  1.00  0.00     0.062 A 
HETATM   10  N   UNL     1     -43.263 -51.913  13.033  1.00  0.00    -0.332 N 
ENDROOT
BRANCH  10  11
HETATM   11  C   UNL     1     -42.207 -52.068  12.042  1.00  0.00     0.167 C 
BRANCH  11  12
HETATM   12  C   UNL     1     -40.901 -52.663  12.605  1.00  0.00     0.172 C 
BRANCH  12  13
HETATM   13  O   UNL     1     -40.386 -53.695  11.763  1.00  0.00    -0.389 OA
HETATM   14  H   UNL     1     -39.563 -53.371  11.357  1.00  0.00     0.210 HD
ENDBRANCH  12  13
BRANCH  12  15
HETATM   15  C   UNL     1     -39.814 -51.620  12.772  1.00  0.00     0.013 A 
HETATM   16  C   UNL     1     -39.827 -50.436  12.019  1.00  0.00     0.055 A 
HETATM   17  C   UNL     1     -38.830 -49.476  12.201  1.00  0.00     0.117 A 
HETATM   18  F   UNL     1     -38.860 -48.351  11.478  1.00  0.00    -0.206 F 
HETATM   19  C   UNL     1     -37.806 -49.665  13.125  1.00  0.00     0.045 A 
HETATM   20  C   UNL     1     -37.780 -50.833  13.884  1.00  0.00     0.046 A 
HETATM   21  C   UNL     1     -38.778 -51.790  13.705  1.00  0.00     0.125 A 
HETATM   22  F   UNL     1     -38.750 -52.895  14.464  1.00  0.00    -0.205 F 
ENDBRANCH  12  15
ENDBRANCH  11  12
ENDBRANCH  10  11
BRANCH   1  23
HETATM   23  C   UNL     1     -42.971 -49.414  13.445  1.00  0.00     0.079 C 
BRANCH  23  24
HETATM   24  C   UNL     1     -43.471 -48.677  12.198  1.00  0.00     0.033 C 
BRANCH  24  25
HETATM   25  C   UNL     1     -42.354 -47.976  11.435  1.00  0.00     0.164 C 
BRANCH  25  26
HETATM   26  O   UNL     1     -42.202 -48.575  10.153  1.00  0.00    -0.401 OA
HETATM   27  H   UNL     1     -41.244 -48.684  10.016  1.00  0.00     0.209 HD
ENDBRANCH  25  26
ENDBRANCH  24  25
ENDBRANCH  23  24
ENDBRANCH   1  23
TORSDOF 8
ENDMDL
MODEL 7
REMARK VINA RESULT:      -6.5      1.954      4.138
REMARK  8 active torsions:
REMARK  status: ('A' for Active; 'I' for Inactive)
REMARK    1  A    between atoms: O_1  and  C_2 
REMARK    2  A    between atoms: C_2  and  C_3 
REMARK    3  A    between atoms: C_3  and  C_4 
REMARK    4  A    between atoms: C_4  and  C_5 
REMARK    5  A    between atoms: N_14  and  C_15 
REMARK    6  A    between atoms: C_15  and  C_16 
REMARK    7  A    between atoms: C_16  and  O_17 
REMARK    8  A    between atoms: C_16  and  C_18 
ROOT
HETATM    1  C   UNL     1     -41.384 -49.040  11.567  1.00  0.00     0.084 A 
HETATM    2  N   UNL     1     -40.199 -48.634  11.156  1.00  0.00    -0.344 N 
ATOM      3  HN  UNL     1     -40.000 -47.843  10.543  1.00  0.00     0.167 HD
HETATM    4  C   UNL     1     -39.291 -49.487  11.720  1.00  0.00     0.060 A 
HETATM    5  C   UNL     1     -37.893 -49.485  11.608  1.00  0.00     0.032 A 
HETATM    6  C   UNL     1     -37.161 -50.454  12.301  1.00  0.00     0.002 A 
HETATM    7  C   UNL     1     -37.812 -51.409  13.083  1.00  0.00     0.002 A 
HETATM    8  C   UNL     1     -39.210 -51.427  13.201  1.00  0.00     0.032 A 
HETATM    9  C   UNL     1     -39.926 -50.445  12.504  1.00  0.00     0.062 A 
HETATM   10  N   UNL     1     -41.266 -50.140  12.393  1.00  0.00    -0.332 N 
ENDROOT
BRANCH  10  11
HETATM   11  C   UNL     1     -42.345 -50.781  13.133  1.00  0.00     0.167 C 
BRANCH  11  12
HETATM   12  C   UNL     1     -42.892 -52.057  12.464  1.00  0.00     0.172 C 
BRANCH  12  13
HETATM   13  O   UNL     1     -42.097 -52.449  11.345  1.00  0.00    -0.389 OA
HETATM   14  H   UNL     1     -41.542 -53.201  11.617  1.00  0.00     0.210 HD
ENDBRANCH  12  13
BRANCH  12  15
HETATM   15  C   UNL     1     -42.952 -53.232  13.419  1.00  0.00     0.013 A 
HETATM   16  C   UNL     1     -41.845 -53.576  14.211  1.00  0.00     0.055 A 
HETATM   17  C   UNL     1     -41.925 -54.647  15.102  1.00  0.00     0.117 A 
HETATM   18  F   UNL     1     -40.862 -54.959  15.853  1.00  0.00    -0.206 F 
HETATM   19  C   UNL     1     -43.091 -55.397  15.228  1.00  0.00     0.045 A 
HETATM   20  C   UNL     1     -44.200 -55.067  14.453  1.00  0.00     0.046 A 
HETATM   21  C   UNL     1     -44.122 -53.994  13.566  1.00  0.00     0.125 A 
HETATM   22  F   UNL     1     -45.210 -53.676  12.848  1.00  0.00    -0.205 F 
ENDBRANCH  12  15
ENDBRANCH  11  12
ENDBRANCH  10  11
BRANCH   1  23
HETATM   23  C   UNL     1     -42.678 -48.387  11.194  1.00  0.00     0.079 C 
BRANCH  23  24
HETATM   24  C   UNL     1     -42.656 -47.845   9.761  1.00  0.00     0.033 C 
BRANCH  24  25
HETATM   25  C   UNL     1     -42.768 -46.326   9.699  1.00  0.00     0.164 C 
BRANCH  25  26
HETATM   26  O   UNL     1     -42.813 -45.905   8.340  1.00  0.00    -0.401 OA
HETATM   27  H   UNL     1     -43.734 -45.642   8.168  1.00  0.00     0.209 HD
ENDBRANCH  25  26
ENDBRANCH  24  25
ENDBRANCH  23  24
ENDBRANCH   1  23
TORSDOF 8
ENDMDL
MODEL 8
REMARK VINA RESULT:      -6.5      3.241      7.266
REMARK  8 active torsions:
REMARK  status: ('A' for Active; 'I' for Inactive)
REMARK    1  A    between atoms: O_1  and  C_2 
REMARK    2  A    between atoms: C_2  and  C_3 
REMARK    3  A    between atoms: C_3  and  C_4 
REMARK    4  A    between atoms: C_4  and  C_5 
REMARK    5  A    between atoms: N_14  and  C_15 
REMARK    6  A    between atoms: C_15  and  C_16 
REMARK    7  A    between atoms: C_16  and  O_17 
REMARK    8  A    between atoms: C_16  and  C_18 
ROOT
HETATM    1  C   UNL     1     -43.559 -54.110  13.819  1.00  0.00     0.084 A 
HETATM    2  N   UNL     1     -43.612 -55.185  14.581  1.00  0.00    -0.344 N 
ATOM      3  HN  UNL     1     -44.309 -55.929  14.544  1.00  0.00     0.167 HD
HETATM    4  C   UNL     1     -42.543 -55.100  15.429  1.00  0.00     0.060 A 
HETATM    5  C   UNL     1     -42.139 -55.995  16.430  1.00  0.00     0.032 A 
HETATM    6  C   UNL     1     -40.986 -55.706  17.166  1.00  0.00     0.002 A 
HETATM    7  C   UNL     1     -40.255 -54.545  16.912  1.00  0.00     0.002 A 
HETATM    8  C   UNL     1     -40.649 -53.638  15.917  1.00  0.00     0.032 A 
HETATM    9  C   UNL     1     -41.804 -53.947  15.187  1.00  0.00     0.062 A 
HETATM   10  N   UNL     1     -42.471 -53.327  14.150  1.00  0.00    -0.332 N 
ENDROOT
BRANCH  10  11
HETATM   11  C   UNL     1     -42.021 -52.135  13.445  1.00  0.00     0.167 C 
BRANCH  11  12
HETATM   12  C   UNL     1     -40.852 -52.386  12.472  1.00  0.00     0.172 C 
BRANCH  12  13
HETATM   13  O   UNL     1     -41.303 -52.494  11.122  1.00  0.00    -0.389 OA
HETATM   14  H   UNL     1     -41.472 -53.434  10.935  1.00  0.00     0.210 HD
ENDBRANCH  12  13
BRANCH  12  15
HETATM   15  C   UNL     1     -39.810 -51.286  12.522  1.00  0.00     0.013 A 
HETATM   16  C   UNL     1     -40.034 -50.051  11.895  1.00  0.00     0.055 A 
HETATM   17  C   UNL     1     -39.074 -49.041  11.969  1.00  0.00     0.117 A 
HETATM   18  F   UNL     1     -39.305 -47.867  11.369  1.00  0.00    -0.206 F 
HETATM   19  C   UNL     1     -37.880 -49.229  12.660  1.00  0.00     0.045 A 
HETATM   20  C   UNL     1     -37.643 -50.448  13.292  1.00  0.00     0.046 A 
HETATM   21  C   UNL     1     -38.604 -51.455  13.221  1.00  0.00     0.125 A 
HETATM   22  F   UNL     1     -38.369 -52.612  13.858  1.00  0.00    -0.205 F 
ENDBRANCH  12  15
ENDBRANCH  11  12
ENDBRANCH  10  11
BRANCH   1  23
HETATM   23  C   UNL     1     -44.541 -53.793  12.735  1.00  0.00     0.079 C 
BRANCH  23  24
HETATM   24  C   UNL     1     -45.856 -53.239  13.295  1.00  0.00     0.033 C 
BRANCH  24  25
HETATM   25  C   UNL     1     -46.355 -52.015  12.536  1.00  0.00     0.164 C 
BRANCH  25  26
HETATM   26  O   UNL     1     -46.882 -52.417  11.276  1.00  0.00    -0.401 OA
HETATM   27  H   UNL     1     -46.663 -51.703  10.650  1.00  0.00     0.209 HD
ENDBRANCH  25  26
ENDBRANCH  24  25
ENDBRANCH  23  24
ENDBRANCH   1  23
TORSDOF 8
ENDMDL
MODEL 9
REMARK VINA RESULT:      -6.5      3.136      4.866
REMARK  8 active torsions:
REMARK  status: ('A' for Active; 'I' for Inactive)
REMARK    1  A    between atoms: O_1  and  C_2 
REMARK    2  A    between atoms: C_2  and  C_3 
REMARK    3  A    between atoms: C_3  and  C_4 
REMARK    4  A    between atoms: C_4  and  C_5 
REMARK    5  A    between atoms: N_14  and  C_15 
REMARK    6  A    between atoms: C_15  and  C_16 
REMARK    7  A    between atoms: C_16  and  O_17 
REMARK    8  A    between atoms: C_16  and  C_18 
ROOT
HETATM    1  C   UNL     1     -41.687 -46.995  10.478  1.00  0.00     0.084 A 
HETATM    2  N   UNL     1     -41.264 -45.752  10.364  1.00  0.00    -0.344 N 
ATOM      3  HN  UNL     1     -41.531 -45.077   9.647  1.00  0.00     0.167 HD
HETATM    4  C   UNL     1     -40.398 -45.550  11.402  1.00  0.00     0.060 A 
HETATM    5  C   UNL     1     -39.682 -44.392  11.741  1.00  0.00     0.032 A 
HETATM    6  C   UNL     1     -38.863 -44.414  12.874  1.00  0.00     0.002 A 
HETATM    7  C   UNL     1     -38.756 -45.570  13.648  1.00  0.00     0.002 A 
HETATM    8  C   UNL     1     -39.461 -46.737  13.321  1.00  0.00     0.032 A 
HETATM    9  C   UNL     1     -40.281 -46.694  12.185  1.00  0.00     0.062 A 
HETATM   10  N   UNL     1     -41.116 -47.608  11.576  1.00  0.00    -0.332 N 
ENDROOT
BRANCH  10  11
HETATM   11  C   UNL     1     -41.441 -48.932  12.088  1.00  0.00     0.167 C 
BRANCH  11  12
HETATM   12  C   UNL     1     -40.741 -50.084  11.339  1.00  0.00     0.172 C 
BRANCH  12  13
HETATM   13  O   UNL     1     -39.529 -49.651  10.720  1.00  0.00    -0.389 OA
HETATM   14  H   UNL     1     -39.496 -50.028   9.824  1.00  0.00     0.210 HD
ENDBRANCH  12  13
BRANCH  12  15
HETATM   15  C   UNL     1     -40.403 -51.247  12.250  1.00  0.00     0.013 A 
HETATM   16  C   UNL     1     -41.053 -52.483  12.114  1.00  0.00     0.055 A 
HETATM   17  C   UNL     1     -40.714 -53.550  12.946  1.00  0.00     0.117 A 
HETATM   18  F   UNL     1     -41.341 -54.724  12.801  1.00  0.00    -0.206 F 
HETATM   19  C   UNL     1     -39.731 -53.420  13.923  1.00  0.00     0.045 A 
HETATM   20  C   UNL     1     -39.072 -52.202  14.068  1.00  0.00     0.046 A 
HETATM   21  C   UNL     1     -39.408 -51.136  13.235  1.00  0.00     0.125 A 
HETATM   22  F   UNL     1     -38.743 -49.980  13.373  1.00  0.00    -0.205 F 
ENDBRANCH  12  15
ENDBRANCH  11  12
ENDBRANCH  10  11
BRANCH   1  23
HETATM   23  C   UNL     1     -42.662 -47.646   9.548  1.00  0.00     0.079 C 
BRANCH  23  24
HETATM   24  C   UNL     1     -44.095 -47.159   9.786  1.00  0.00     0.033 C 
BRANCH  24  25
HETATM   25  C   UNL     1     -44.521 -46.068   8.810  1.00  0.00     0.164 C 
BRANCH  25  26
HETATM   26  O   UNL     1     -44.010 -44.812   9.245  1.00  0.00    -0.401 OA
HETATM   27  H   UNL     1     -43.055 -44.943   9.387  1.00  0.00     0.209 HD
ENDBRANCH  25  26
ENDBRANCH  24  25
ENDBRANCH  23  24
ENDBRANCH   1  23
TORSDOF 8
ENDMDL
