MODEL 1
REMARK VINA RESULT:      -5.3      0.000      0.000
REMARK  4 active torsions:
REMARK  status: ('A' for Active; 'I' for Inactive)
REMARK    1  A    between atoms: C_2  and  C_3 
REMARK    2  A    between atoms: C_3  and  N_6 
REMARK       I    between atoms: N_6  and  C_7 
REMARK    3  A    between atoms: C_7  and  C_9 
REMARK    4  A    between atoms: C_9  and  N_10 
ROOT
HETATM    1  C   UNL     1     -41.768 -52.316  14.368  1.00  0.00     0.235 C 
ENDROOT
BRANCH   1   2
HETATM    2  C   UNL     1     -42.996 -52.876  13.652  1.00  0.00     0.236 C 
HETATM    3  N   UNL     1     -44.181 -52.717  14.350  1.00  0.00    -0.351 N 
HETATM    4  H   UNL     1     -44.083 -52.489  15.339  1.00  0.00     0.163 HD
HETATM    5  O   UNL     1     -42.890 -53.479  12.586  1.00  0.00    -0.272 OA
BRANCH   3   6
HETATM    6  C   UNL     1     -45.483 -53.248  13.910  1.00  0.00     0.025 C 
HETATM    7  C   UNL     1     -45.419 -54.783  13.784  1.00  0.00     0.038 C 
HETATM    8  C   UNL     1     -45.888 -52.640  12.554  1.00  0.00     0.038 C 
BRANCH   6   9
HETATM    9  C   UNL     1     -46.567 -52.923  14.979  1.00  0.00     0.026 C 
HETATM   10  C   UNL     1     -46.961 -51.455  15.097  1.00  0.00     0.007 C 
ENDBRANCH   6   9
ENDBRANCH   3   6
ENDBRANCH   1   2
BRANCH   1  11
HETATM   11  N   UNL     1     -40.846 -53.416  14.634  1.00  0.00    -0.301 N 
HETATM   12  C   UNL     1     -41.096 -54.280  15.681  1.00  0.00     0.102 C 
HETATM   13  C   UNL     1     -40.213 -55.209  16.047  1.00  0.00     0.092 C 
HETATM   14  C   UNL     1     -38.937 -55.293  15.321  1.00  0.00     0.250 C 
HETATM   15  O   UNL     1     -38.041 -56.041  15.701  1.00  0.00    -0.268 OA
HETATM   16  N   UNL     1     -38.810 -54.480  14.234  1.00  0.00    -0.275 N 
HETATM   17  C   UNL     1     -39.669 -53.469  13.901  1.00  0.00     0.329 C 
HETATM   18  H   UNL     1     -37.925 -54.500  13.753  1.00  0.00     0.173 HD
HETATM   19  O   UNL     1     -39.375 -52.649  13.032  1.00  0.00    -0.246 OA
ENDBRANCH   1  11
TORSDOF 4
ENDMDL
MODEL 2
REMARK VINA RESULT:      -5.1      2.893      4.221
REMARK  4 active torsions:
REMARK  status: ('A' for Active; 'I' for Inactive)
REMARK    1  A    between atoms: C_2  and  C_3 
REMARK    2  A    between atoms: C_3  and  N_6 
REMARK       I    between atoms: N_6  and  C_7 
REMARK    3  A    between atoms: C_7  and  C_9 
REMARK    4  A    between atoms: C_9  and  N_10 
ROOT
HETATM    1  C   UNL     1     -44.974 -54.916  14.186  1.00  0.00     0.235 C 
ENDROOT
BRANCH   1   2
HETATM    2  C   UNL     1     -45.195 -54.188  15.510  1.00  0.00     0.236 C 
HETATM    3  N   UNL     1     -45.949 -53.033  15.403  1.00  0.00    -0.351 N 
HETATM    4  H   UNL     1     -46.053 -52.661  14.459  1.00  0.00     0.163 HD
HETATM    5  O   UNL     1     -44.667 -54.582  16.548  1.00  0.00    -0.272 OA
BRANCH   3   6
HETATM    6  C   UNL     1     -46.226 -52.113  16.520  1.00  0.00     0.025 C 
HETATM    7  C   UNL     1     -45.049 -51.136  16.712  1.00  0.00     0.038 C 
HETATM    8  C   UNL     1     -46.457 -52.897  17.826  1.00  0.00     0.038 C 
BRANCH   6   9
HETATM    9  C   UNL     1     -47.482 -51.255  16.190  1.00  0.00     0.026 C 
HETATM   10  C   UNL     1     -48.328 -50.833  17.386  1.00  0.00     0.007 C 
ENDBRANCH   6   9
ENDBRANCH   3   6
ENDBRANCH   1   2
BRANCH   1  11
HETATM   11  N   UNL     1     -43.888 -54.252  13.469  1.00  0.00    -0.301 N 
HETATM   12  C   UNL     1     -42.585 -54.428  13.887  1.00  0.00     0.102 C 
HETATM   13  C   UNL     1     -41.580 -53.733  13.353  1.00  0.00     0.092 C 
HETATM   14  C   UNL     1     -41.883 -52.746  12.307  1.00  0.00     0.250 C 
HETATM   15  O   UNL     1     -41.016 -51.992  11.877  1.00  0.00    -0.268 OA
HETATM   16  N   UNL     1     -43.176 -52.709  11.874  1.00  0.00    -0.275 N 
HETATM   17  C   UNL     1     -44.226 -53.352  12.468  1.00  0.00     0.329 C 
HETATM   18  H   UNL     1     -43.403 -52.008  11.185  1.00  0.00     0.173 HD
HETATM   19  O   UNL     1     -45.387 -53.101  12.147  1.00  0.00    -0.246 OA
ENDBRANCH   1  11
TORSDOF 4
ENDMDL
MODEL 3
REMARK VINA RESULT:      -5.0      3.897      5.746
REMARK  4 active torsions:
REMARK  status: ('A' for Active; 'I' for Inactive)
REMARK    1  A    between atoms: C_2  and  C_3 
REMARK    2  A    between atoms: C_3  and  N_6 
REMARK       I    between atoms: N_6  and  C_7 
REMARK    3  A    between atoms: C_7  and  C_9 
REMARK    4  A    between atoms: C_9  and  N_10 
ROOT
HETATM    1  C   UNL     1     -42.033 -50.294  13.223  1.00  0.00     0.235 C 
ENDROOT
BRANCH   1   2
HETATM    2  C   UNL     1     -43.108 -51.367  13.049  1.00  0.00     0.236 C 
HETATM    3  N   UNL     1     -44.246 -51.157  13.808  1.00  0.00    -0.351 N 
HETATM    4  H   UNL     1     -44.151 -50.483  14.567  1.00  0.00     0.163 HD
HETATM    5  O   UNL     1     -42.910 -52.356  12.347  1.00  0.00    -0.272 OA
BRANCH   3   6
HETATM    6  C   UNL     1     -45.383 -52.091  13.879  1.00  0.00     0.025 C 
HETATM    7  C   UNL     1     -45.904 -52.407  12.463  1.00  0.00     0.038 C 
HETATM    8  C   UNL     1     -46.525 -51.495  14.723  1.00  0.00     0.038 C 
BRANCH   6   9
HETATM    9  C   UNL     1     -44.912 -53.438  14.502  1.00  0.00     0.026 C 
HETATM   10  C   UNL     1     -45.323 -54.696  13.744  1.00  0.00     0.007 C 
ENDBRANCH   6   9
ENDBRANCH   3   6
ENDBRANCH   1   2
BRANCH   1  11
HETATM   11  N   UNL     1     -42.174 -49.320  12.144  1.00  0.00    -0.301 N 
HETATM   12  C   UNL     1     -43.279 -48.495  12.108  1.00  0.00     0.102 C 
HETATM   13  C   UNL     1     -43.519 -47.692  11.071  1.00  0.00     0.092 C 
HETATM   14  C   UNL     1     -42.585 -47.709   9.936  1.00  0.00     0.250 C 
HETATM   15  O   UNL     1     -42.828 -47.089   8.906  1.00  0.00    -0.268 OA
HETATM   16  N   UNL     1     -41.463 -48.469  10.094  1.00  0.00    -0.275 N 
HETATM   17  C   UNL     1     -41.249 -49.357  11.111  1.00  0.00     0.329 C 
HETATM   18  H   UNL     1     -40.835 -48.519   9.306  1.00  0.00     0.173 HD
HETATM   19  O   UNL     1     -40.312 -50.154  11.069  1.00  0.00    -0.246 OA
ENDBRANCH   1  11
TORSDOF 4
ENDMDL
MODEL 4
REMARK VINA RESULT:      -4.9      2.268      6.161
REMARK  4 active torsions:
REMARK  status: ('A' for Active; 'I' for Inactive)
REMARK    1  A    between atoms: C_2  and  C_3 
REMARK    2  A    between atoms: C_3  and  N_6 
REMARK       I    between atoms: N_6  and  C_7 
REMARK    3  A    between atoms: C_7  and  C_9 
REMARK    4  A    between atoms: C_9  and  N_10 
ROOT
HETATM    1  C   UNL     1     -44.543 -54.190  12.877  1.00  0.00     0.235 C 
ENDROOT
BRANCH   1   2
HETATM    2  C   UNL     1     -43.126 -53.704  13.178  1.00  0.00     0.236 C 
HETATM    3  N   UNL     1     -42.485 -54.410  14.181  1.00  0.00    -0.351 N 
HETATM    4  H   UNL     1     -43.089 -54.984  14.771  1.00  0.00     0.163 HD
HETATM    5  O   UNL     1     -42.658 -52.719  12.611  1.00  0.00    -0.272 OA
BRANCH   3   6
HETATM    6  C   UNL     1     -41.151 -54.079  14.710  1.00  0.00     0.025 C 
HETATM    7  C   UNL     1     -41.142 -52.646  15.278  1.00  0.00     0.038 C 
HETATM    8  C   UNL     1     -40.084 -54.197  13.606  1.00  0.00     0.038 C 
BRANCH   6   9
HETATM    9  C   UNL     1     -40.803 -55.037  15.887  1.00  0.00     0.026 C 
HETATM   10  C   UNL     1     -41.962 -55.869  16.426  1.00  0.00     0.007 C 
ENDBRANCH   6   9
ENDBRANCH   3   6
ENDBRANCH   1   2
BRANCH   1  11
HETATM   11  N   UNL     1     -45.478 -53.423  13.695  1.00  0.00    -0.301 N 
HETATM   12  C   UNL     1     -45.943 -52.206  13.240  1.00  0.00     0.102 C 
HETATM   13  C   UNL     1     -46.684 -51.409  14.011  1.00  0.00     0.092 C 
HETATM   14  C   UNL     1     -46.991 -51.841  15.382  1.00  0.00     0.250 C 
HETATM   15  O   UNL     1     -47.556 -51.090  16.171  1.00  0.00    -0.268 OA
HETATM   16  N   UNL     1     -46.588 -53.099  15.719  1.00  0.00    -0.275 N 
HETATM   17  C   UNL     1     -45.759 -53.888  14.971  1.00  0.00     0.329 C 
HETATM   18  H   UNL     1     -46.758 -53.390  16.669  1.00  0.00     0.173 HD
HETATM   19  O   UNL     1     -45.274 -54.919  15.438  1.00  0.00    -0.246 OA
ENDBRANCH   1  11
TORSDOF 4
ENDMDL
MODEL 5
REMARK VINA RESULT:      -4.9      2.826      6.049
REMARK  4 active torsions:
REMARK  status: ('A' for Active; 'I' for Inactive)
REMARK    1  A    between atoms: C_2  and  C_3 
REMARK    2  A    between atoms: C_3  and  N_6 
REMARK       I    between atoms: N_6  and  C_7 
REMARK    3  A    between atoms: C_7  and  C_9 
REMARK    4  A    between atoms: C_9  and  N_10 
ROOT
HETATM    1  C   UNL     1     -39.851 -53.614  13.849  1.00  0.00     0.235 C 
ENDROOT
BRANCH   1   2
HETATM    2  C   UNL     1     -39.506 -52.275  14.500  1.00  0.00     0.236 C 
HETATM    3  N   UNL     1     -38.899 -51.370  13.647  1.00  0.00    -0.351 N 
HETATM    4  H   UNL     1     -38.522 -51.762  12.784  1.00  0.00     0.163 HD
HETATM    5  O   UNL     1     -39.696 -52.084  15.699  1.00  0.00    -0.272 OA
BRANCH   3   6
HETATM    6  C   UNL     1     -38.396 -50.048  14.059  1.00  0.00     0.025 C 
HETATM    7  C   UNL     1     -37.270 -50.206  15.101  1.00  0.00     0.038 C 
HETATM    8  C   UNL     1     -39.531 -49.196  14.658  1.00  0.00     0.038 C 
BRANCH   6   9
HETATM    9  C   UNL     1     -37.780 -49.318  12.830  1.00  0.00     0.026 C 
HETATM   10  C   UNL     1     -37.656 -50.152  11.559  1.00  0.00     0.007 C 
ENDBRANCH   6   9
ENDBRANCH   3   6
ENDBRANCH   1   2
BRANCH   1  11
HETATM   11  N   UNL     1     -41.290 -53.650  13.601  1.00  0.00    -0.301 N 
HETATM   12  C   UNL     1     -42.110 -54.376  14.440  1.00  0.00     0.102 C 
HETATM   13  C   UNL     1     -43.404 -54.553  14.172  1.00  0.00     0.092 C 
HETATM   14  C   UNL     1     -43.954 -53.969  12.939  1.00  0.00     0.250 C 
HETATM   15  O   UNL     1     -45.103 -54.211  12.583  1.00  0.00    -0.268 OA
HETATM   16  N   UNL     1     -43.108 -53.178  12.221  1.00  0.00    -0.275 N 
HETATM   17  C   UNL     1     -41.763 -53.059  12.439  1.00  0.00     0.329 C 
HETATM   18  H   UNL     1     -43.462 -52.805  11.353  1.00  0.00     0.173 HD
HETATM   19  O   UNL     1     -41.037 -52.494  11.621  1.00  0.00    -0.246 OA
ENDBRANCH   1  11
TORSDOF 4
ENDMDL
MODEL 6
REMARK VINA RESULT:      -4.9      4.444      6.272
REMARK  4 active torsions:
REMARK  status: ('A' for Active; 'I' for Inactive)
REMARK    1  A    between atoms: C_2  and  C_3 
REMARK    2  A    between atoms: C_3  and  N_6 
REMARK       I    between atoms: N_6  and  C_7 
REMARK    3  A    between atoms: C_7  and  C_9 
REMARK    4  A    between atoms: C_9  and  N_10 
ROOT
HETATM    1  C   UNL     1     -41.015 -50.481  13.216  1.00  0.00     0.235 C 
ENDROOT
BRANCH   1   2
HETATM    2  C   UNL     1     -40.885 -49.484  12.066  1.00  0.00     0.236 C 
HETATM    3  N   UNL     1     -41.522 -48.276  12.288  1.00  0.00    -0.351 N 
HETATM    4  H   UNL     1     -42.202 -48.269  13.048  1.00  0.00     0.163 HD
HETATM    5  O   UNL     1     -40.322 -49.793  11.018  1.00  0.00    -0.272 OA
BRANCH   3   6
HETATM    6  C   UNL     1     -41.613 -47.189  11.298  1.00  0.00     0.025 C 
HETATM    7  C   UNL     1     -42.440 -46.018  11.865  1.00  0.00     0.038 C 
HETATM    8  C   UNL     1     -42.266 -47.692   9.997  1.00  0.00     0.038 C 
BRANCH   6   9
HETATM    9  C   UNL     1     -40.189 -46.637  10.996  1.00  0.00     0.026 C 
HETATM   10  C   UNL     1     -40.133 -45.212  10.458  1.00  0.00     0.007 C 
ENDBRANCH   6   9
ENDBRANCH   3   6
ENDBRANCH   1   2
BRANCH   1  11
HETATM   11  N   UNL     1     -42.101 -51.407  12.905  1.00  0.00    -0.301 N 
HETATM   12  C   UNL     1     -43.392 -51.097  13.280  1.00  0.00     0.102 C 
HETATM   13  C   UNL     1     -44.389 -51.971  13.143  1.00  0.00     0.092 C 
HETATM   14  C   UNL     1     -44.088 -53.302  12.595  1.00  0.00     0.250 C 
HETATM   15  O   UNL     1     -44.941 -54.184  12.570  1.00  0.00    -0.268 OA
HETATM   16  N   UNL     1     -42.814 -53.494  12.149  1.00  0.00    -0.275 N 
HETATM   17  C   UNL     1     -41.768 -52.639  12.360  1.00  0.00     0.329 C 
HETATM   18  H   UNL     1     -42.586 -54.415  11.808  1.00  0.00     0.173 HD
HETATM   19  O   UNL     1     -40.611 -52.979  12.113  1.00  0.00    -0.246 OA
ENDBRANCH   1  11
TORSDOF 4
ENDMDL
MODEL 7
REMARK VINA RESULT:      -4.8      2.300      6.283
REMARK  4 active torsions:
REMARK  status: ('A' for Active; 'I' for Inactive)
REMARK    1  A    between atoms: C_2  and  C_3 
REMARK    2  A    between atoms: C_3  and  N_6 
REMARK       I    between atoms: N_6  and  C_7 
REMARK    3  A    between atoms: C_7  and  C_9 
REMARK    4  A    between atoms: C_9  and  N_10 
ROOT
HETATM    1  C   UNL     1     -43.697 -53.993  12.787  1.00  0.00     0.235 C 
ENDROOT
BRANCH   1   2
HETATM    2  C   UNL     1     -42.537 -54.079  13.778  1.00  0.00     0.236 C 
HETATM    3  N   UNL     1     -41.479 -53.237  13.486  1.00  0.00    -0.351 N 
HETATM    4  H   UNL     1     -41.467 -52.855  12.540  1.00  0.00     0.163 HD
HETATM    5  O   UNL     1     -42.546 -54.894  14.698  1.00  0.00    -0.272 OA
BRANCH   3   6
HETATM    6  C   UNL     1     -40.213 -53.198  14.239  1.00  0.00     0.025 C 
HETATM    7  C   UNL     1     -39.442 -54.521  14.055  1.00  0.00     0.038 C 
HETATM    8  C   UNL     1     -40.480 -52.967  15.739  1.00  0.00     0.038 C 
BRANCH   6   9
HETATM    9  C   UNL     1     -39.308 -52.061  13.682  1.00  0.00     0.026 C 
HETATM   10  C   UNL     1     -38.912 -50.981  14.683  1.00  0.00     0.007 C 
ENDBRANCH   6   9
ENDBRANCH   3   6
ENDBRANCH   1   2
BRANCH   1  11
HETATM   11  N   UNL     1     -44.867 -53.473  13.490  1.00  0.00    -0.301 N 
HETATM   12  C   UNL     1     -44.949 -52.126  13.776  1.00  0.00     0.102 C 
HETATM   13  C   UNL     1     -45.927 -51.631  14.535  1.00  0.00     0.092 C 
HETATM   14  C   UNL     1     -46.926 -52.557  15.090  1.00  0.00     0.250 C 
HETATM   15  O   UNL     1     -47.766 -52.172  15.897  1.00  0.00    -0.268 OA
HETATM   16  N   UNL     1     -46.839 -53.853  14.674  1.00  0.00    -0.275 N 
HETATM   17  C   UNL     1     -45.797 -54.386  13.967  1.00  0.00     0.329 C 
HETATM   18  H   UNL     1     -47.493 -54.504  15.080  1.00  0.00     0.173 HD
HETATM   19  O   UNL     1     -45.692 -55.603  13.814  1.00  0.00    -0.246 OA
ENDBRANCH   1  11
TORSDOF 4
ENDMDL
MODEL 8
REMARK VINA RESULT:      -4.8      3.577      5.113
REMARK  4 active torsions:
REMARK  status: ('A' for Active; 'I' for Inactive)
REMARK    1  A    between atoms: C_2  and  C_3 
REMARK    2  A    between atoms: C_3  and  N_6 
REMARK       I    between atoms: N_6  and  C_7 
REMARK    3  A    between atoms: C_7  and  C_9 
REMARK    4  A    between atoms: C_9  and  N_10 
ROOT
HETATM    1  C   UNL     1     -41.186 -52.344  12.014  1.00  0.00     0.235 C 
ENDROOT
BRANCH   1   2
HETATM    2  C   UNL     1     -41.445 -50.890  12.405  1.00  0.00     0.236 C 
HETATM    3  N   UNL     1     -41.660 -50.044  11.331  1.00  0.00    -0.351 N 
HETATM    4  H   UNL     1     -41.376 -50.407  10.421  1.00  0.00     0.163 HD
HETATM    5  O   UNL     1     -41.384 -50.527  13.578  1.00  0.00    -0.272 OA
BRANCH   3   6
HETATM    6  C   UNL     1     -41.846 -48.587  11.445  1.00  0.00     0.025 C 
HETATM    7  C   UNL     1     -42.201 -47.986  10.070  1.00  0.00     0.038 C 
HETATM    8  C   UNL     1     -40.567 -47.916  11.980  1.00  0.00     0.038 C 
BRANCH   6   9
HETATM    9  C   UNL     1     -43.040 -48.286  12.396  1.00  0.00     0.026 C 
HETATM   10  C   UNL     1     -42.877 -47.065  13.296  1.00  0.00     0.007 C 
ENDBRANCH   6   9
ENDBRANCH   3   6
ENDBRANCH   1   2
BRANCH   1  11
HETATM   11  N   UNL     1     -42.173 -53.187  12.684  1.00  0.00    -0.301 N 
HETATM   12  C   UNL     1     -43.511 -53.048  12.374  1.00  0.00     0.102 C 
HETATM   13  C   UNL     1     -44.457 -53.693  13.058  1.00  0.00     0.092 C 
HETATM   14  C   UNL     1     -44.052 -54.556  14.178  1.00  0.00     0.250 C 
HETATM   15  O   UNL     1     -44.888 -55.066  14.917  1.00  0.00    -0.268 OA
HETATM   16  N   UNL     1     -42.710 -54.724  14.351  1.00  0.00    -0.275 N 
HETATM   17  C   UNL     1     -41.737 -54.006  13.714  1.00  0.00     0.329 C 
HETATM   18  H   UNL     1     -42.421 -55.281  15.141  1.00  0.00     0.173 HD
HETATM   19  O   UNL     1     -40.563 -54.069  14.078  1.00  0.00    -0.246 OA
ENDBRANCH   1  11
TORSDOF 4
ENDMDL
MODEL 9
REMARK VINA RESULT:      -4.8      3.149      5.844
REMARK  4 active torsions:
REMARK  status: ('A' for Active; 'I' for Inactive)
REMARK    1  A    between atoms: C_2  and  C_3 
REMARK    2  A    between atoms: C_3  and  N_6 
REMARK       I    between atoms: N_6  and  C_7 
REMARK    3  A    between atoms: C_7  and  C_9 
REMARK    4  A    between atoms: C_9  and  N_10 
ROOT
HETATM    1  C   UNL     1     -41.476 -52.320  11.879  1.00  0.00     0.235 C 
ENDROOT
BRANCH   1   2
HETATM    2  C   UNL     1     -40.594 -51.201  12.430  1.00  0.00     0.236 C 
HETATM    3  N   UNL     1     -39.420 -51.005  11.725  1.00  0.00    -0.351 N 
HETATM    4  H   UNL     1     -39.151 -51.764  11.098  1.00  0.00     0.163 HD
HETATM    5  O   UNL     1     -40.898 -50.602  13.460  1.00  0.00    -0.272 OA
BRANCH   3   6
HETATM    6  C   UNL     1     -38.368 -50.048  12.109  1.00  0.00     0.025 C 
HETATM    7  C   UNL     1     -38.976 -48.649  12.334  1.00  0.00     0.038 C 
HETATM    8  C   UNL     1     -37.284 -49.965  11.018  1.00  0.00     0.038 C 
BRANCH   6   9
HETATM    9  C   UNL     1     -37.728 -50.489  13.457  1.00  0.00     0.026 C 
HETATM   10  C   UNL     1     -37.612 -49.403  14.521  1.00  0.00     0.007 C 
ENDBRANCH   6   9
ENDBRANCH   3   6
ENDBRANCH   1   2
BRANCH   1  11
HETATM   11  N   UNL     1     -41.926 -53.147  12.996  1.00  0.00    -0.301 N 
HETATM   12  C   UNL     1     -40.999 -53.676  13.871  1.00  0.00     0.102 C 
HETATM   13  C   UNL     1     -41.349 -54.548  14.817  1.00  0.00     0.092 C 
HETATM   14  C   UNL     1     -42.757 -54.962  14.908  1.00  0.00     0.250 C 
HETATM   15  O   UNL     1     -43.106 -55.855  15.672  1.00  0.00    -0.268 OA
HETATM   16  N   UNL     1     -43.627 -54.315  14.080  1.00  0.00    -0.275 N 
HETATM   17  C   UNL     1     -43.270 -53.485  13.053  1.00  0.00     0.329 C 
HETATM   18  H   UNL     1     -44.588 -54.619  14.106  1.00  0.00     0.173 HD
HETATM   19  O   UNL     1     -44.099 -53.111  12.225  1.00  0.00    -0.246 OA
ENDBRANCH   1  11
TORSDOF 4
ENDMDL
