MODEL 1
REMARK VINA RESULT:      -6.5      0.000      0.000
REMARK  5 active torsions:
REMARK  status: ('A' for Active; 'I' for Inactive)
REMARK    1  A    between atoms: O_2  and  C_3 
REMARK    2  A    between atoms: C_3  and  C_4 
REMARK    3  A    between atoms: C_4  and  N_5 
REMARK    4  A    between atoms: C_8  and  C_13 
REMARK       I    between atoms: C_13  and  N_15 
REMARK    5  A    between atoms: N_15  and  C_16 
ROOT
HETATM    1  N   UNL     1     -42.452 -47.113  10.173  1.00  0.00    -0.255 N 
HETATM    2  N   UNL     1     -42.775 -48.358  10.715  1.00  0.00    -0.290 N 
ATOM      3  HN  UNL     1     -43.618 -48.860  10.438  1.00  0.00     0.187 HD
HETATM    4  C   UNL     1     -41.946 -48.844  11.590  1.00  0.00     0.116 A 
HETATM    5  C   UNL     1     -40.727 -48.162  12.074  1.00  0.00     0.042 A 
HETATM    6  C   UNL     1     -40.422 -46.994  11.515  1.00  0.00     0.078 A 
HETATM    7  C   UNL     1     -41.295 -46.402  10.482  1.00  0.00     0.262 A 
HETATM    8  O   UNL     1     -40.968 -45.330   9.980  1.00  0.00    -0.267 OA
ENDROOT
BRANCH   4   9
HETATM    9  C   UNL     1     -42.196 -50.223  12.206  1.00  0.00     0.269 C 
HETATM   10  O   UNL     1     -41.269 -51.021  12.268  1.00  0.00    -0.266 OA
HETATM   11  N   UNL     1     -43.470 -50.470  12.670  1.00  0.00    -0.351 N 
HETATM   12  H   UNL     1     -44.186 -49.786  12.430  1.00  0.00     0.163 HD
BRANCH  11  13
HETATM   13  C   UNL     1     -43.824 -51.754  13.266  1.00  0.00     0.084 C 
HETATM   14  C   UNL     1     -45.088 -52.359  12.646  1.00  0.00     0.025 C 
HETATM   15  C   UNL     1     -46.368 -51.632  13.060  1.00  0.00     0.006 C 
HETATM   16  C   UNL     1     -46.507 -51.401  14.574  1.00  0.00    -0.019 C 
HETATM   17  C   UNL     1     -47.036 -52.647  15.290  1.00  0.00     0.010 C 
HETATM   18  C   UNL     1     -45.209 -50.892  15.217  1.00  0.00     0.006 C 
HETATM   19  C   UNL     1     -43.966 -51.664  14.786  1.00  0.00     0.025 C 
ENDBRANCH  11  13
ENDBRANCH   4   9
BRANCH   1  20
HETATM   20  C   UNL     1     -43.433 -46.500   9.280  1.00  0.00     0.178 C 
BRANCH  20  21
HETATM   21  C   UNL     1     -44.437 -47.490   8.686  1.00  0.00     0.189 C 
BRANCH  21  22
HETATM   22  O   UNL     1     -45.496 -47.704   9.627  1.00  0.00    -0.394 OA
HETATM   23  C   UNL     1     -46.770 -47.487   9.034  1.00  0.00     0.201 C 
ENDBRANCH  21  22
ENDBRANCH  20  21
ENDBRANCH   1  20
TORSDOF 5
ENDMDL
MODEL 2
REMARK VINA RESULT:      -5.8      5.981      7.691
REMARK  5 active torsions:
REMARK  status: ('A' for Active; 'I' for Inactive)
REMARK    1  A    between atoms: O_2  and  C_3 
REMARK    2  A    between atoms: C_3  and  C_4 
REMARK    3  A    between atoms: C_4  and  N_5 
REMARK    4  A    between atoms: C_8  and  C_13 
REMARK       I    between atoms: C_13  and  N_15 
REMARK    5  A    between atoms: N_15  and  C_16 
ROOT
HETATM    1  N   UNL     1     -40.102 -54.137  15.147  1.00  0.00    -0.255 N 
HETATM    2  N   UNL     1     -41.414 -54.401  15.542  1.00  0.00    -0.290 N 
ATOM      3  HN  UNL     1     -41.650 -54.609  16.511  1.00  0.00     0.187 HD
HETATM    4  C   UNL     1     -42.320 -54.367  14.610  1.00  0.00     0.116 A 
HETATM    5  C   UNL     1     -42.055 -54.114  13.178  1.00  0.00     0.042 A 
HETATM    6  C   UNL     1     -40.802 -53.829  12.833  1.00  0.00     0.078 A 
HETATM    7  C   UNL     1     -39.729 -53.806  13.846  1.00  0.00     0.262 A 
HETATM    8  O   UNL     1     -38.589 -53.521  13.488  1.00  0.00    -0.267 OA
ENDROOT
BRANCH   4   9
HETATM    9  C   UNL     1     -43.793 -54.601  14.958  1.00  0.00     0.269 C 
HETATM   10  O   UNL     1     -44.340 -55.621  14.559  1.00  0.00    -0.266 OA
HETATM   11  N   UNL     1     -44.407 -53.634  15.722  1.00  0.00    -0.351 N 
HETATM   12  H   UNL     1     -43.891 -52.767  15.867  1.00  0.00     0.163 HD
BRANCH  11  13
HETATM   13  C   UNL     1     -45.812 -53.747  16.103  1.00  0.00     0.084 C 
HETATM   14  C   UNL     1     -46.741 -53.000  15.142  1.00  0.00     0.025 C 
HETATM   15  C   UNL     1     -46.659 -51.479  15.286  1.00  0.00     0.006 C 
HETATM   16  C   UNL     1     -46.774 -50.969  16.732  1.00  0.00    -0.019 C 
HETATM   17  C   UNL     1     -48.233 -50.889  17.189  1.00  0.00     0.010 C 
HETATM   18  C   UNL     1     -45.921 -51.783  17.716  1.00  0.00     0.006 C 
HETATM   19  C   UNL     1     -46.056 -53.293  17.544  1.00  0.00     0.025 C 
ENDBRANCH  11  13
ENDBRANCH   4   9
BRANCH   1  20
HETATM   20  C   UNL     1     -39.058 -54.290  16.157  1.00  0.00     0.178 C 
BRANCH  20  21
HETATM   21  C   UNL     1     -39.326 -55.411  17.163  1.00  0.00     0.189 C 
BRANCH  21  22
HETATM   22  O   UNL     1     -39.459 -56.650  16.457  1.00  0.00    -0.394 OA
HETATM   23  C   UNL     1     -39.960 -57.679  17.301  1.00  0.00     0.201 C 
ENDBRANCH  21  22
ENDBRANCH  20  21
ENDBRANCH   1  20
TORSDOF 5
ENDMDL
MODEL 3
REMARK VINA RESULT:      -5.8      2.907      6.667
REMARK  5 active torsions:
REMARK  status: ('A' for Active; 'I' for Inactive)
REMARK    1  A    between atoms: O_2  and  C_3 
REMARK    2  A    between atoms: C_3  and  C_4 
REMARK    3  A    between atoms: C_4  and  N_5 
REMARK    4  A    between atoms: C_8  and  C_13 
REMARK       I    between atoms: C_13  and  N_15 
REMARK    5  A    between atoms: N_15  and  C_16 
ROOT
HETATM    1  N   UNL     1     -44.575 -53.222  13.186  1.00  0.00    -0.255 N 
HETATM    2  N   UNL     1     -43.692 -52.323  12.586  1.00  0.00    -0.290 N 
ATOM      3  HN  UNL     1     -44.025 -51.517  12.058  1.00  0.00     0.187 HD
HETATM    4  C   UNL     1     -42.424 -52.566  12.734  1.00  0.00     0.116 A 
HETATM    5  C   UNL     1     -41.862 -53.732  13.447  1.00  0.00     0.042 A 
HETATM    6  C   UNL     1     -42.723 -54.554  14.043  1.00  0.00     0.078 A 
HETATM    7  C   UNL     1     -44.177 -54.314  13.953  1.00  0.00     0.262 A 
HETATM    8  O   UNL     1     -44.937 -55.088  14.531  1.00  0.00    -0.267 OA
ENDROOT
BRANCH   4   9
HETATM    9  C   UNL     1     -41.381 -51.611  12.147  1.00  0.00     0.269 C 
HETATM   10  O   UNL     1     -40.226 -51.997  12.026  1.00  0.00    -0.266 OA
HETATM   11  N   UNL     1     -41.830 -50.362  11.775  1.00  0.00    -0.351 N 
HETATM   12  H   UNL     1     -42.775 -50.110  12.059  1.00  0.00     0.163 HD
BRANCH  11  13
HETATM   13  C   UNL     1     -40.921 -49.366  11.215  1.00  0.00     0.084 C 
HETATM   14  C   UNL     1     -40.027 -48.724  12.280  1.00  0.00     0.025 C 
HETATM   15  C   UNL     1     -40.781 -47.756  13.194  1.00  0.00     0.006 C 
HETATM   16  C   UNL     1     -41.648 -46.725  12.452  1.00  0.00    -0.019 C 
HETATM   17  C   UNL     1     -40.816 -45.539  11.957  1.00  0.00     0.010 C 
HETATM   18  C   UNL     1     -42.469 -47.350  11.316  1.00  0.00     0.006 C 
HETATM   19  C   UNL     1     -41.665 -48.290  10.422  1.00  0.00     0.025 C 
ENDBRANCH  11  13
ENDBRANCH   4   9
BRANCH   1  20
HETATM   20  C   UNL     1     -46.000 -53.030  12.927  1.00  0.00     0.178 C 
BRANCH  20  21
HETATM   21  C   UNL     1     -46.486 -51.597  13.155  1.00  0.00     0.189 C 
BRANCH  21  22
HETATM   22  O   UNL     1     -46.011 -51.139  14.427  1.00  0.00    -0.394 OA
HETATM   23  C   UNL     1     -46.902 -51.502  15.475  1.00  0.00     0.201 C 
ENDBRANCH  21  22
ENDBRANCH  20  21
ENDBRANCH   1  20
TORSDOF 5
ENDMDL
MODEL 4
REMARK VINA RESULT:      -5.7      1.567      1.790
REMARK  5 active torsions:
REMARK  status: ('A' for Active; 'I' for Inactive)
REMARK    1  A    between atoms: O_2  and  C_3 
REMARK    2  A    between atoms: C_3  and  C_4 
REMARK    3  A    between atoms: C_4  and  N_5 
REMARK    4  A    between atoms: C_8  and  C_13 
REMARK       I    between atoms: C_13  and  N_15 
REMARK    5  A    between atoms: N_15  and  C_16 
ROOT
HETATM    1  N   UNL     1     -41.421 -48.105  10.881  1.00  0.00    -0.255 N 
HETATM    2  N   UNL     1     -41.837 -49.407  11.162  1.00  0.00    -0.290 N 
ATOM      3  HN  UNL     1     -42.741 -49.759  10.852  1.00  0.00     0.187 HD
HETATM    4  C   UNL     1     -41.012 -50.147  11.841  1.00  0.00     0.116 A 
HETATM    5  C   UNL     1     -39.703 -49.699  12.362  1.00  0.00     0.042 A 
HETATM    6  C   UNL     1     -39.313 -48.466  12.049  1.00  0.00     0.078 A 
HETATM    7  C   UNL     1     -40.181 -47.584  11.243  1.00  0.00     0.262 A 
HETATM    8  O   UNL     1     -39.776 -46.459  10.962  1.00  0.00    -0.267 OA
ENDROOT
BRANCH   4   9
HETATM    9  C   UNL     1     -41.364 -51.603  12.160  1.00  0.00     0.269 C 
HETATM   10  O   UNL     1     -40.481 -52.449  12.113  1.00  0.00    -0.266 OA
HETATM   11  N   UNL     1     -42.675 -51.859  12.498  1.00  0.00    -0.351 N 
HETATM   12  H   UNL     1     -43.341 -51.102  12.360  1.00  0.00     0.163 HD
BRANCH  11  13
HETATM   13  C   UNL     1     -43.126 -53.212  12.810  1.00  0.00     0.084 C 
HETATM   14  C   UNL     1     -44.531 -53.500  12.271  1.00  0.00     0.025 C 
HETATM   15  C   UNL     1     -45.633 -52.781  13.050  1.00  0.00     0.006 C 
HETATM   16  C   UNL     1     -45.543 -52.942  14.577  1.00  0.00    -0.019 C 
HETATM   17  C   UNL     1     -46.145 -54.271  15.041  1.00  0.00     0.010 C 
HETATM   18  C   UNL     1     -44.115 -52.755  15.108  1.00  0.00     0.006 C 
HETATM   19  C   UNL     1     -43.057 -53.510  14.309  1.00  0.00     0.025 C 
ENDBRANCH  11  13
ENDBRANCH   4   9
BRANCH   1  20
HETATM   20  C   UNL     1     -42.385 -47.224  10.225  1.00  0.00     0.178 C 
BRANCH  20  21
HETATM   21  C   UNL     1     -43.845 -47.552  10.546  1.00  0.00     0.189 C 
BRANCH  21  22
HETATM   22  O   UNL     1     -44.654 -47.250   9.403  1.00  0.00    -0.394 OA
HETATM   23  C   UNL     1     -44.304 -45.994   8.835  1.00  0.00     0.201 C 
ENDBRANCH  21  22
ENDBRANCH  20  21
ENDBRANCH   1  20
TORSDOF 5
ENDMDL
MODEL 5
REMARK VINA RESULT:      -5.4      2.380      2.736
REMARK  5 active torsions:
REMARK  status: ('A' for Active; 'I' for Inactive)
REMARK    1  A    between atoms: O_2  and  C_3 
REMARK    2  A    between atoms: C_3  and  C_4 
REMARK    3  A    between atoms: C_4  and  N_5 
REMARK    4  A    between atoms: C_8  and  C_13 
REMARK       I    between atoms: C_13  and  N_15 
REMARK    5  A    between atoms: N_15  and  C_16 
ROOT
HETATM    1  N   UNL     1     -41.902 -46.842  10.125  1.00  0.00    -0.255 N 
HETATM    2  N   UNL     1     -41.438 -48.121  10.437  1.00  0.00    -0.290 N 
ATOM      3  HN  UNL     1     -41.827 -48.954   9.997  1.00  0.00     0.187 HD
HETATM    4  C   UNL     1     -40.486 -48.195  11.319  1.00  0.00     0.116 A 
HETATM    5  C   UNL     1     -39.898 -47.041  12.032  1.00  0.00     0.042 A 
HETATM    6  C   UNL     1     -40.331 -45.830  11.689  1.00  0.00     0.078 A 
HETATM    7  C   UNL     1     -41.380 -45.668  10.664  1.00  0.00     0.262 A 
HETATM    8  O   UNL     1     -41.739 -44.532  10.365  1.00  0.00    -0.267 OA
ENDROOT
BRANCH   4   9
HETATM    9  C   UNL     1     -39.885 -49.553  11.693  1.00  0.00     0.269 C 
HETATM   10  O   UNL     1     -38.714 -49.778  11.416  1.00  0.00    -0.266 OA
HETATM   11  N   UNL     1     -40.718 -50.438  12.341  1.00  0.00    -0.351 N 
HETATM   12  H   UNL     1     -41.705 -50.192  12.384  1.00  0.00     0.163 HD
BRANCH  11  13
HETATM   13  C   UNL     1     -40.255 -51.765  12.735  1.00  0.00     0.084 C 
HETATM   14  C   UNL     1     -41.102 -52.886  12.124  1.00  0.00     0.025 C 
HETATM   15  C   UNL     1     -42.489 -53.006  12.759  1.00  0.00     0.006 C 
HETATM   16  C   UNL     1     -42.484 -53.042  14.297  1.00  0.00    -0.019 C 
HETATM   17  C   UNL     1     -42.168 -54.443  14.828  1.00  0.00     0.010 C 
HETATM   18  C   UNL     1     -41.555 -51.985  14.910  1.00  0.00     0.006 C 
HETATM   19  C   UNL     1     -40.178 -51.921  14.255  1.00  0.00     0.025 C 
ENDBRANCH  11  13
ENDBRANCH   4   9
BRANCH   1  20
HETATM   20  C   UNL     1     -43.052 -46.751   9.228  1.00  0.00     0.178 C 
BRANCH  20  21
HETATM   21  C   UNL     1     -44.338 -47.346   9.805  1.00  0.00     0.189 C 
BRANCH  21  22
HETATM   22  O   UNL     1     -45.264 -47.581   8.737  1.00  0.00    -0.394 OA
HETATM   23  C   UNL     1     -46.583 -47.188   9.096  1.00  0.00     0.201 C 
ENDBRANCH  21  22
ENDBRANCH  20  21
ENDBRANCH   1  20
TORSDOF 5
ENDMDL
MODEL 6
REMARK VINA RESULT:      -5.3      4.192      7.486
REMARK  5 active torsions:
REMARK  status: ('A' for Active; 'I' for Inactive)
REMARK    1  A    between atoms: O_2  and  C_3 
REMARK    2  A    between atoms: C_3  and  C_4 
REMARK    3  A    between atoms: C_4  and  N_5 
REMARK    4  A    between atoms: C_8  and  C_13 
REMARK       I    between atoms: C_13  and  N_15 
REMARK    5  A    between atoms: N_15  and  C_16 
ROOT
HETATM    1  N   UNL     1     -42.037 -53.246  14.234  1.00  0.00    -0.255 N 
HETATM    2  N   UNL     1     -41.237 -52.247  13.679  1.00  0.00    -0.290 N 
ATOM      3  HN  UNL     1     -41.640 -51.416  13.247  1.00  0.00     0.187 HD
HETATM    4  C   UNL     1     -39.952 -52.429  13.740  1.00  0.00     0.116 A 
HETATM    5  C   UNL     1     -39.290 -53.622  14.311  1.00  0.00     0.042 A 
HETATM    6  C   UNL     1     -40.073 -54.543  14.868  1.00  0.00     0.078 A 
HETATM    7  C   UNL     1     -41.541 -54.380  14.873  1.00  0.00     0.262 A 
HETATM    8  O   UNL     1     -42.226 -55.245  15.412  1.00  0.00    -0.267 OA
ENDROOT
BRANCH   4   9
HETATM    9  C   UNL     1     -38.994 -51.366  13.195  1.00  0.00     0.269 C 
HETATM   10  O   UNL     1     -37.890 -51.712  12.796  1.00  0.00    -0.266 OA
HETATM   11  N   UNL     1     -39.458 -50.068  13.180  1.00  0.00    -0.351 N 
HETATM   12  H   UNL     1     -40.331 -49.888  13.672  1.00  0.00     0.163 HD
BRANCH  11  13
HETATM   13  C   UNL     1     -38.627 -48.972  12.693  1.00  0.00     0.084 C 
HETATM   14  C   UNL     1     -37.806 -48.318  13.810  1.00  0.00     0.025 C 
HETATM   15  C   UNL     1     -38.652 -47.468  14.759  1.00  0.00     0.006 C 
HETATM   16  C   UNL     1     -39.590 -46.472  14.057  1.00  0.00    -0.019 C 
HETATM   17  C   UNL     1     -38.852 -45.196  13.644  1.00  0.00     0.010 C 
HETATM   18  C   UNL     1     -40.338 -47.098  12.872  1.00  0.00     0.006 C 
HETATM   19  C   UNL     1     -39.445 -47.918  11.945  1.00  0.00     0.025 C 
ENDBRANCH  11  13
ENDBRANCH   4   9
BRANCH   1  20
HETATM   20  C   UNL     1     -43.482 -53.113  14.066  1.00  0.00     0.178 C 
BRANCH  20  21
HETATM   21  C   UNL     1     -43.952 -53.230  12.614  1.00  0.00     0.189 C 
BRANCH  21  22
HETATM   22  O   UNL     1     -44.742 -54.417  12.473  1.00  0.00    -0.394 OA
HETATM   23  C   UNL     1     -45.312 -54.812  13.714  1.00  0.00     0.201 C 
ENDBRANCH  21  22
ENDBRANCH  20  21
ENDBRANCH   1  20
TORSDOF 5
ENDMDL
MODEL 7
REMARK VINA RESULT:      -5.2      2.019      3.627
REMARK  5 active torsions:
REMARK  status: ('A' for Active; 'I' for Inactive)
REMARK    1  A    between atoms: O_2  and  C_3 
REMARK    2  A    between atoms: C_3  and  C_4 
REMARK    3  A    between atoms: C_4  and  N_5 
REMARK    4  A    between atoms: C_8  and  C_13 
REMARK       I    between atoms: C_13  and  N_15 
REMARK    5  A    between atoms: N_15  and  C_16 
ROOT
HETATM    1  N   UNL     1     -42.640 -45.571  10.976  1.00  0.00    -0.255 N 
HETATM    2  N   UNL     1     -42.527 -46.445  12.057  1.00  0.00    -0.290 N 
ATOM      3  HN  UNL     1     -42.090 -46.161  12.933  1.00  0.00     0.187 HD
HETATM    4  C   UNL     1     -43.009 -47.641  11.892  1.00  0.00     0.116 A 
HETATM    5  C   UNL     1     -43.621 -48.143  10.643  1.00  0.00     0.042 A 
HETATM    6  C   UNL     1     -43.750 -47.279   9.639  1.00  0.00     0.078 A 
HETATM    7  C   UNL     1     -43.265 -45.892   9.773  1.00  0.00     0.262 A 
HETATM    8  O   UNL     1     -43.418 -45.121   8.828  1.00  0.00    -0.267 OA
ENDROOT
BRANCH   4   9
HETATM    9  C   UNL     1     -42.969 -48.655  13.038  1.00  0.00     0.269 C 
HETATM   10  O   UNL     1     -42.299 -48.401  14.030  1.00  0.00    -0.266 OA
HETATM   11  N   UNL     1     -43.719 -49.800  12.875  1.00  0.00    -0.351 N 
HETATM   12  H   UNL     1     -44.115 -49.961  11.950  1.00  0.00     0.163 HD
BRANCH  11  13
HETATM   13  C   UNL     1     -43.747 -50.840  13.898  1.00  0.00     0.084 C 
HETATM   14  C   UNL     1     -42.916 -52.067  13.508  1.00  0.00     0.025 C 
HETATM   15  C   UNL     1     -43.565 -52.908  12.408  1.00  0.00     0.006 C 
HETATM   16  C   UNL     1     -45.043 -53.252  12.657  1.00  0.00    -0.019 C 
HETATM   17  C   UNL     1     -45.193 -54.450  13.599  1.00  0.00     0.010 C 
HETATM   18  C   UNL     1     -45.857 -52.046  13.147  1.00  0.00     0.006 C 
HETATM   19  C   UNL     1     -45.175 -51.254  14.259  1.00  0.00     0.025 C 
ENDBRANCH  11  13
ENDBRANCH   4   9
BRANCH   1  20
HETATM   20  C   UNL     1     -41.996 -44.265  11.104  1.00  0.00     0.178 C 
BRANCH  20  21
HETATM   21  C   UNL     1     -41.014 -44.169  12.274  1.00  0.00     0.189 C 
BRANCH  21  22
HETATM   22  O   UNL     1     -39.928 -45.074  12.047  1.00  0.00    -0.394 OA
HETATM   23  C   UNL     1     -39.219 -45.347  13.250  1.00  0.00     0.201 C 
ENDBRANCH  21  22
ENDBRANCH  20  21
ENDBRANCH   1  20
TORSDOF 5
ENDMDL
MODEL 8
REMARK VINA RESULT:      -5.1      1.958      3.065
REMARK  5 active torsions:
REMARK  status: ('A' for Active; 'I' for Inactive)
REMARK    1  A    between atoms: O_2  and  C_3 
REMARK    2  A    between atoms: C_3  and  C_4 
REMARK    3  A    between atoms: C_4  and  N_5 
REMARK    4  A    between atoms: C_8  and  C_13 
REMARK       I    between atoms: C_13  and  N_15 
REMARK    5  A    between atoms: N_15  and  C_16 
ROOT
HETATM    1  N   UNL     1     -41.671 -46.046  11.752  1.00  0.00    -0.255 N 
HETATM    2  N   UNL     1     -41.639 -47.314  12.333  1.00  0.00    -0.290 N 
ATOM      3  HN  UNL     1     -41.023 -47.530  13.116  1.00  0.00     0.187 HD
HETATM    4  C   UNL     1     -42.435 -48.208  11.824  1.00  0.00     0.116 A 
HETATM    5  C   UNL     1     -43.327 -47.988  10.666  1.00  0.00     0.042 A 
HETATM    6  C   UNL     1     -43.367 -46.761  10.154  1.00  0.00     0.078 A 
HETATM    7  C   UNL     1     -42.523 -45.685  10.710  1.00  0.00     0.262 A 
HETATM    8  O   UNL     1     -42.602 -44.562  10.219  1.00  0.00    -0.267 OA
ENDROOT
BRANCH   4   9
HETATM    9  C   UNL     1     -42.499 -49.615  12.424  1.00  0.00     0.269 C 
HETATM   10  O   UNL     1     -41.456 -50.232  12.601  1.00  0.00    -0.266 OA
HETATM   11  N   UNL     1     -43.751 -50.093  12.742  1.00  0.00    -0.351 N 
HETATM   12  H   UNL     1     -44.547 -49.548  12.414  1.00  0.00     0.163 HD
BRANCH  11  13
HETATM   13  C   UNL     1     -43.933 -51.426  13.308  1.00  0.00     0.084 C 
HETATM   14  C   UNL     1     -45.172 -52.134  12.753  1.00  0.00     0.025 C 
HETATM   15  C   UNL     1     -46.485 -51.556  13.283  1.00  0.00     0.006 C 
HETATM   16  C   UNL     1     -46.536 -51.390  14.812  1.00  0.00    -0.019 C 
HETATM   17  C   UNL     1     -46.886 -52.707  15.511  1.00  0.00     0.010 C 
HETATM   18  C   UNL     1     -45.252 -50.774  15.383  1.00  0.00     0.006 C 
HETATM   19  C   UNL     1     -43.972 -51.401  14.837  1.00  0.00     0.025 C 
ENDBRANCH  11  13
ENDBRANCH   4   9
BRANCH   1  20
HETATM   20  C   UNL     1     -40.699 -45.067  12.232  1.00  0.00     0.178 C 
BRANCH  20  21
HETATM   21  C   UNL     1     -41.184 -44.243  13.426  1.00  0.00     0.189 C 
BRANCH  21  22
HETATM   22  O   UNL     1     -41.686 -45.130  14.434  1.00  0.00    -0.394 OA
HETATM   23  C   UNL     1     -43.021 -44.802  14.797  1.00  0.00     0.201 C 
ENDBRANCH  21  22
ENDBRANCH  20  21
ENDBRANCH   1  20
TORSDOF 5
ENDMDL
MODEL 9
REMARK VINA RESULT:      -5.1      3.725      7.101
REMARK  5 active torsions:
REMARK  status: ('A' for Active; 'I' for Inactive)
REMARK    1  A    between atoms: O_2  and  C_3 
REMARK    2  A    between atoms: C_3  and  C_4 
REMARK    3  A    between atoms: C_4  and  N_5 
REMARK    4  A    between atoms: C_8  and  C_13 
REMARK       I    between atoms: C_13  and  N_15 
REMARK    5  A    between atoms: N_15  and  C_16 
ROOT
HETATM    1  N   UNL     1     -44.474 -52.586  14.890  1.00  0.00    -0.255 N 
HETATM    2  N   UNL     1     -43.436 -51.981  14.180  1.00  0.00    -0.290 N 
ATOM      3  HN  UNL     1     -43.400 -50.972  14.040  1.00  0.00     0.187 HD
HETATM    4  C   UNL     1     -42.518 -52.770  13.707  1.00  0.00     0.116 A 
HETATM    5  C   UNL     1     -42.519 -54.243  13.831  1.00  0.00     0.042 A 
HETATM    6  C   UNL     1     -43.499 -54.793  14.545  1.00  0.00     0.078 A 
HETATM    7  C   UNL     1     -44.552 -53.953  15.149  1.00  0.00     0.262 A 
HETATM    8  O   UNL     1     -45.430 -54.498  15.813  1.00  0.00    -0.267 OA
ENDROOT
BRANCH   4   9
HETATM    9  C   UNL     1     -41.318 -52.192  12.952  1.00  0.00     0.269 C 
HETATM   10  O   UNL     1     -41.075 -52.602  11.824  1.00  0.00    -0.266 OA
HETATM   11  N   UNL     1     -40.590 -51.220  13.603  1.00  0.00    -0.351 N 
HETATM   12  H   UNL     1     -40.803 -51.070  14.588  1.00  0.00     0.163 HD
BRANCH  11  13
HETATM   13  C   UNL     1     -39.420 -50.607  12.983  1.00  0.00     0.084 C 
HETATM   14  C   UNL     1     -38.132 -50.878  13.767  1.00  0.00     0.025 C 
HETATM   15  C   UNL     1     -38.048 -50.093  15.077  1.00  0.00     0.006 C 
HETATM   16  C   UNL     1     -38.348 -48.591  14.940  1.00  0.00    -0.019 C 
HETATM   17  C   UNL     1     -37.125 -47.813  14.447  1.00  0.00     0.010 C 
HETATM   18  C   UNL     1     -39.581 -48.312  14.068  1.00  0.00     0.006 C 
HETATM   19  C   UNL     1     -39.605 -49.104  12.764  1.00  0.00     0.025 C 
ENDBRANCH  11  13
ENDBRANCH   4   9
BRANCH   1  20
HETATM   20  C   UNL     1     -45.575 -51.728  15.323  1.00  0.00     0.178 C 
BRANCH  20  21
HETATM   21  C   UNL     1     -46.660 -51.527  14.264  1.00  0.00     0.189 C 
BRANCH  21  22
HETATM   22  O   UNL     1     -46.037 -51.300  12.994  1.00  0.00    -0.394 OA
HETATM   23  C   UNL     1     -46.679 -52.037  11.961  1.00  0.00     0.201 C 
ENDBRANCH  21  22
ENDBRANCH  20  21
ENDBRANCH   1  20
TORSDOF 5
ENDMDL
