MODEL 1
REMARK VINA RESULT:      -6.4      0.000      0.000
REMARK  6 active torsions:
REMARK  status: ('A' for Active; 'I' for Inactive)
REMARK    1  A    between atoms: C_2  and  C_4 
REMARK    2  A    between atoms: C_4  and  C_5 
REMARK    3  A    between atoms: C_5  and  C_6 
REMARK    4  A    between atoms: C_10  and  N_11 
REMARK       I    between atoms: N_11  and  C_12 
REMARK    5  A    between atoms: C_12  and  C_14 
REMARK    6  A    between atoms: C_14  and  N_15 
ROOT
HETATM    1  N   UNL     1     -41.275 -52.978  14.362  1.00  0.00    -0.355 N 
HETATM    2  C   UNL     1     -39.987 -52.631  13.995  1.00  0.00     0.236 C 
HETATM    3  O   UNL     1     -39.111 -53.425  13.669  1.00  0.00    -0.272 OA
HETATM    4  H   UNL     1     -41.918 -52.219  14.551  1.00  0.00     0.162 HD
ENDROOT
BRANCH   1   5
HETATM    5  C   UNL     1     -41.894 -54.309  14.316  1.00  0.00     0.088 C 
HETATM    6  C   UNL     1     -43.397 -54.363  13.982  1.00  0.00     0.008 C 
HETATM    7  C   UNL     1     -44.079 -54.168  15.340  1.00  0.00     0.007 C 
HETATM    8  C   UNL     1     -43.138 -54.804  16.364  1.00  0.00     0.002 C 
HETATM    9  C   UNL     1     -41.835 -55.116  15.619  1.00  0.00     0.025 C 
BRANCH   6  10
HETATM   10  C   UNL     1     -43.949 -53.426  12.905  1.00  0.00     0.007 C 
BRANCH  10  11
HETATM   11  C   UNL     1     -45.478 -53.276  12.863  1.00  0.00     0.004 C 
BRANCH  11  12
HETATM   12  C   UNL     1     -46.023 -51.834  12.797  1.00  0.00    -0.023 C 
HETATM   13  C   UNL     1     -47.069 -51.646  11.690  1.00  0.00     0.009 C 
HETATM   14  C   UNL     1     -46.641 -51.448  14.145  1.00  0.00     0.009 C 
ENDBRANCH  11  12
ENDBRANCH  10  11
ENDBRANCH   6  10
ENDBRANCH   1   5
BRANCH   2  15
HETATM   15  C   UNL     1     -39.691 -51.129  13.998  1.00  0.00     0.237 C 
BRANCH  15  16
HETATM   16  N   UNL     1     -39.625 -50.657  12.633  1.00  0.00    -0.285 N 
HETATM   17  C   UNL     1     -38.542 -50.317  11.909  1.00  0.00     0.204 A 
HETATM   18  N   UNL     1     -38.794 -49.936  10.695  1.00  0.00    -0.292 N 
HETATM   19  N   UNL     1     -40.155 -50.062  10.592  1.00  0.00    -0.250 N 
ATOM     20  HN  UNL     1     -38.136 -49.618   9.984  1.00  0.00     0.187 HD
HETATM   21  C   UNL     1     -40.690 -50.527  11.787  1.00  0.00     0.342 A 
HETATM   22  H   UNL     1     -40.661 -49.858   9.740  1.00  0.00     0.192 HD
HETATM   23  O   UNL     1     -41.862 -50.765  12.026  1.00  0.00    -0.245 OA
ENDBRANCH  15  16
ENDBRANCH   2  15
TORSDOF 6
ENDMDL
MODEL 2
REMARK VINA RESULT:      -5.8      2.326      3.181
REMARK  6 active torsions:
REMARK  status: ('A' for Active; 'I' for Inactive)
REMARK    1  A    between atoms: C_2  and  C_4 
REMARK    2  A    between atoms: C_4  and  C_5 
REMARK    3  A    between atoms: C_5  and  C_6 
REMARK    4  A    between atoms: C_10  and  N_11 
REMARK       I    between atoms: N_11  and  C_12 
REMARK    5  A    between atoms: C_12  and  C_14 
REMARK    6  A    between atoms: C_14  and  N_15 
ROOT
HETATM    1  N   UNL     1     -42.449 -51.332  12.559  1.00  0.00    -0.355 N 
HETATM    2  C   UNL     1     -41.556 -50.365  12.134  1.00  0.00     0.236 C 
HETATM    3  O   UNL     1     -40.579 -50.574  11.423  1.00  0.00    -0.272 OA
HETATM    4  H   UNL     1     -43.247 -51.015  13.094  1.00  0.00     0.162 HD
ENDROOT
BRANCH   1   5
HETATM    5  C   UNL     1     -42.501 -52.744  12.160  1.00  0.00     0.088 C 
HETATM    6  C   UNL     1     -43.742 -53.544  12.598  1.00  0.00     0.008 C 
HETATM    7  C   UNL     1     -43.387 -54.026  14.007  1.00  0.00     0.007 C 
HETATM    8  C   UNL     1     -41.871 -54.232  13.998  1.00  0.00     0.002 C 
HETATM    9  C   UNL     1     -41.360 -53.626  12.685  1.00  0.00     0.025 C 
BRANCH   6  10
HETATM   10  C   UNL     1     -45.116 -52.870  12.534  1.00  0.00     0.007 C 
BRANCH  10  11
HETATM   11  C   UNL     1     -45.914 -52.844  13.846  1.00  0.00     0.004 C 
BRANCH  11  12
HETATM   12  C   UNL     1     -46.184 -51.453  14.457  1.00  0.00    -0.023 C 
HETATM   13  C   UNL     1     -47.274 -51.482  15.537  1.00  0.00     0.009 C 
HETATM   14  C   UNL     1     -44.893 -50.889  15.059  1.00  0.00     0.009 C 
ENDBRANCH  11  12
ENDBRANCH  10  11
ENDBRANCH   6  10
ENDBRANCH   1   5
BRANCH   2  15
HETATM   15  C   UNL     1     -41.865 -48.941  12.603  1.00  0.00     0.237 C 
BRANCH  15  16
HETATM   16  N   UNL     1     -41.669 -48.027  11.499  1.00  0.00    -0.285 N 
HETATM   17  C   UNL     1     -42.482 -47.778  10.456  1.00  0.00     0.204 A 
HETATM   18  N   UNL     1     -42.041 -46.889   9.620  1.00  0.00    -0.292 N 
HETATM   19  N   UNL     1     -40.850 -46.491  10.168  1.00  0.00    -0.250 N 
ATOM     20  HN  UNL     1     -42.478 -46.563   8.757  1.00  0.00     0.187 HD
HETATM   21  C   UNL     1     -40.609 -47.178  11.351  1.00  0.00     0.342 A 
HETATM   22  H   UNL     1     -40.267 -45.776   9.752  1.00  0.00     0.192 HD
HETATM   23  O   UNL     1     -39.651 -47.049  12.095  1.00  0.00    -0.245 OA
ENDBRANCH  15  16
ENDBRANCH   2  15
TORSDOF 6
ENDMDL
MODEL 3
REMARK VINA RESULT:      -5.6      1.661      2.338
REMARK  6 active torsions:
REMARK  status: ('A' for Active; 'I' for Inactive)
REMARK    1  A    between atoms: C_2  and  C_4 
REMARK    2  A    between atoms: C_4  and  C_5 
REMARK    3  A    between atoms: C_5  and  C_6 
REMARK    4  A    between atoms: C_10  and  N_11 
REMARK       I    between atoms: N_11  and  C_12 
REMARK    5  A    between atoms: C_12  and  C_14 
REMARK    6  A    between atoms: C_14  and  N_15 
ROOT
HETATM    1  N   UNL     1     -41.644 -53.396  13.875  1.00  0.00    -0.355 N 
HETATM    2  C   UNL     1     -40.362 -53.289  13.367  1.00  0.00     0.236 C 
HETATM    3  O   UNL     1     -39.514 -54.175  13.405  1.00  0.00    -0.272 OA
HETATM    4  H   UNL     1     -42.263 -52.610  13.725  1.00  0.00     0.162 HD
ENDROOT
BRANCH   1   5
HETATM    5  C   UNL     1     -42.293 -54.591  14.430  1.00  0.00     0.088 C 
HETATM    6  C   UNL     1     -43.829 -54.653  14.335  1.00  0.00     0.008 C 
HETATM    7  C   UNL     1     -44.301 -53.901  15.583  1.00  0.00     0.007 C 
HETATM    8  C   UNL     1     -43.236 -54.166  16.647  1.00  0.00     0.002 C 
HETATM    9  C   UNL     1     -42.063 -54.839  15.926  1.00  0.00     0.025 C 
BRANCH   6  10
HETATM   10  C   UNL     1     -44.511 -54.161  13.056  1.00  0.00     0.007 C 
BRANCH  10  11
HETATM   11  C   UNL     1     -44.899 -52.674  13.029  1.00  0.00     0.004 C 
BRANCH  11  12
HETATM   12  C   UNL     1     -46.405 -52.356  13.142  1.00  0.00    -0.023 C 
HETATM   13  C   UNL     1     -46.724 -51.412  14.309  1.00  0.00     0.009 C 
HETATM   14  C   UNL     1     -46.906 -51.731  11.837  1.00  0.00     0.009 C 
ENDBRANCH  11  12
ENDBRANCH  10  11
ENDBRANCH   6  10
ENDBRANCH   1   5
BRANCH   2  15
HETATM   15  C   UNL     1     -40.033 -51.948  12.706  1.00  0.00     0.237 C 
BRANCH  15  16
HETATM   16  N   UNL     1     -39.090 -51.231  13.535  1.00  0.00    -0.285 N 
HETATM   17  C   UNL     1     -39.316 -50.548  14.673  1.00  0.00     0.204 A 
HETATM   18  N   UNL     1     -38.262 -50.012  15.206  1.00  0.00    -0.292 N 
HETATM   19  N   UNL     1     -37.245 -50.394  14.371  1.00  0.00    -0.250 N 
ATOM     20  HN  UNL     1     -38.203 -49.440  16.049  1.00  0.00     0.187 HD
HETATM   21  C   UNL     1     -37.740 -51.170  13.330  1.00  0.00     0.342 A 
HETATM   22  H   UNL     1     -36.278 -50.146  14.536  1.00  0.00     0.192 HD
HETATM   23  O   UNL     1     -37.102 -51.684  12.427  1.00  0.00    -0.245 OA
ENDBRANCH  15  16
ENDBRANCH   2  15
TORSDOF 6
ENDMDL
MODEL 4
REMARK VINA RESULT:      -5.5      1.709      2.202
REMARK  6 active torsions:
REMARK  status: ('A' for Active; 'I' for Inactive)
REMARK    1  A    between atoms: C_2  and  C_4 
REMARK    2  A    between atoms: C_4  and  C_5 
REMARK    3  A    between atoms: C_5  and  C_6 
REMARK    4  A    between atoms: C_10  and  N_11 
REMARK       I    between atoms: N_11  and  C_12 
REMARK    5  A    between atoms: C_12  and  C_14 
REMARK    6  A    between atoms: C_14  and  N_15 
ROOT
HETATM    1  N   UNL     1     -42.466 -52.284  13.463  1.00  0.00    -0.355 N 
HETATM    2  C   UNL     1     -41.979 -51.399  12.518  1.00  0.00     0.236 C 
HETATM    3  O   UNL     1     -41.287 -51.710  11.554  1.00  0.00    -0.272 OA
HETATM    4  H   UNL     1     -43.076 -51.903  14.176  1.00  0.00     0.162 HD
ENDROOT
BRANCH   1   5
HETATM    5  C   UNL     1     -42.382 -53.750  13.448  1.00  0.00     0.088 C 
HETATM    6  C   UNL     1     -43.680 -54.523  13.745  1.00  0.00     0.008 C 
HETATM    7  C   UNL     1     -43.712 -54.608  15.274  1.00  0.00     0.007 C 
HETATM    8  C   UNL     1     -42.248 -54.674  15.710  1.00  0.00     0.002 C 
HETATM    9  C   UNL     1     -41.411 -54.370  14.462  1.00  0.00     0.025 C 
BRANCH   6  10
HETATM   10  C   UNL     1     -44.997 -54.011  13.155  1.00  0.00     0.007 C 
BRANCH  10  11
HETATM   11  C   UNL     1     -46.064 -53.572  14.169  1.00  0.00     0.004 C 
BRANCH  11  12
HETATM   12  C   UNL     1     -46.479 -52.087  14.129  1.00  0.00    -0.023 C 
HETATM   13  C   UNL     1     -45.549 -51.189  14.956  1.00  0.00     0.009 C 
HETATM   14  C   UNL     1     -46.503 -51.590  12.681  1.00  0.00     0.009 C 
ENDBRANCH  11  12
ENDBRANCH  10  11
ENDBRANCH   6  10
ENDBRANCH   1   5
BRANCH   2  15
HETATM   15  C   UNL     1     -42.373 -49.935  12.731  1.00  0.00     0.237 C 
BRANCH  15  16
HETATM   16  N   UNL     1     -41.443 -49.086  12.019  1.00  0.00    -0.285 N 
HETATM   17  C   UNL     1     -40.117 -48.948  12.204  1.00  0.00     0.204 A 
HETATM   18  N   UNL     1     -39.538 -48.111  11.398  1.00  0.00    -0.292 N 
HETATM   19  N   UNL     1     -40.558 -47.680  10.591  1.00  0.00    -0.250 N 
ATOM     20  HN  UNL     1     -38.556 -47.839  11.372  1.00  0.00     0.187 HD
HETATM   21  C   UNL     1     -41.753 -48.291  10.953  1.00  0.00     0.342 A 
HETATM   22  H   UNL     1     -40.417 -47.025   9.833  1.00  0.00     0.192 HD
HETATM   23  O   UNL     1     -42.843 -48.143  10.428  1.00  0.00    -0.245 OA
ENDBRANCH  15  16
ENDBRANCH   2  15
TORSDOF 6
ENDMDL
MODEL 5
REMARK VINA RESULT:      -5.4      2.248      4.252
REMARK  6 active torsions:
REMARK  status: ('A' for Active; 'I' for Inactive)
REMARK    1  A    between atoms: C_2  and  C_4 
REMARK    2  A    between atoms: C_4  and  C_5 
REMARK    3  A    between atoms: C_5  and  C_6 
REMARK    4  A    between atoms: C_10  and  N_11 
REMARK       I    between atoms: N_11  and  C_12 
REMARK    5  A    between atoms: C_12  and  C_14 
REMARK    6  A    between atoms: C_14  and  N_15 
ROOT
HETATM    1  N   UNL     1     -43.816 -50.001  13.669  1.00  0.00    -0.355 N 
HETATM    2  C   UNL     1     -42.711 -49.280  14.083  1.00  0.00     0.236 C 
HETATM    3  O   UNL     1     -42.036 -49.534  15.075  1.00  0.00    -0.272 OA
HETATM    4  H   UNL     1     -44.248 -49.719  12.798  1.00  0.00     0.162 HD
ENDROOT
BRANCH   1   5
HETATM    5  C   UNL     1     -44.326 -51.261  14.225  1.00  0.00     0.088 C 
HETATM    6  C   UNL     1     -44.238 -52.505  13.322  1.00  0.00     0.008 C 
HETATM    7  C   UNL     1     -45.517 -52.437  12.483  1.00  0.00     0.007 C 
HETATM    8  C   UNL     1     -46.564 -51.785  13.386  1.00  0.00     0.002 C 
HETATM    9  C   UNL     1     -45.810 -51.263  14.615  1.00  0.00     0.025 C 
BRANCH   6  10
HETATM   10  C   UNL     1     -42.983 -52.712  12.469  1.00  0.00     0.007 C 
BRANCH  10  11
HETATM   11  C   UNL     1     -41.657 -52.822  13.238  1.00  0.00     0.004 C 
BRANCH  11  12
HETATM   12  C   UNL     1     -41.225 -54.241  13.661  1.00  0.00    -0.023 C 
HETATM   13  C   UNL     1     -39.704 -54.376  13.815  1.00  0.00     0.009 C 
HETATM   14  C   UNL     1     -41.901 -54.620  14.982  1.00  0.00     0.009 C 
ENDBRANCH  11  12
ENDBRANCH  10  11
ENDBRANCH   6  10
ENDBRANCH   1   5
BRANCH   2  15
HETATM   15  C   UNL     1     -42.337 -48.092  13.192  1.00  0.00     0.237 C 
BRANCH  15  16
HETATM   16  N   UNL     1     -41.734 -48.587  11.974  1.00  0.00    -0.285 N 
HETATM   17  C   UNL     1     -40.804 -49.548  11.823  1.00  0.00     0.204 A 
HETATM   18  N   UNL     1     -40.459 -49.786  10.595  1.00  0.00    -0.292 N 
HETATM   19  N   UNL     1     -41.247 -48.935   9.865  1.00  0.00    -0.250 N 
ATOM     20  HN  UNL     1     -39.765 -50.451  10.252  1.00  0.00     0.187 HD
HETATM   21  C   UNL     1     -42.063 -48.189  10.708  1.00  0.00     0.342 A 
HETATM   22  H   UNL     1     -41.227 -48.900   8.855  1.00  0.00     0.192 HD
HETATM   23  O   UNL     1     -42.892 -47.357  10.383  1.00  0.00    -0.245 OA
ENDBRANCH  15  16
ENDBRANCH   2  15
TORSDOF 6
ENDMDL
MODEL 6
REMARK VINA RESULT:      -5.4      1.940      4.287
REMARK  6 active torsions:
REMARK  status: ('A' for Active; 'I' for Inactive)
REMARK    1  A    between atoms: C_2  and  C_4 
REMARK    2  A    between atoms: C_4  and  C_5 
REMARK    3  A    between atoms: C_5  and  C_6 
REMARK    4  A    between atoms: C_10  and  N_11 
REMARK       I    between atoms: N_11  and  C_12 
REMARK    5  A    between atoms: C_12  and  C_14 
REMARK    6  A    between atoms: C_14  and  N_15 
ROOT
HETATM    1  N   UNL     1     -42.916 -51.376  12.666  1.00  0.00    -0.355 N 
HETATM    2  C   UNL     1     -41.714 -50.737  12.911  1.00  0.00     0.236 C 
HETATM    3  O   UNL     1     -41.379 -50.260  13.991  1.00  0.00    -0.272 OA
HETATM    4  H   UNL     1     -43.042 -51.777  11.744  1.00  0.00     0.162 HD
ENDROOT
BRANCH   1   5
HETATM    5  C   UNL     1     -43.960 -51.730  13.636  1.00  0.00     0.088 C 
HETATM    6  C   UNL     1     -44.175 -53.231  13.906  1.00  0.00     0.008 C 
HETATM    7  C   UNL     1     -45.147 -53.664  12.805  1.00  0.00     0.007 C 
HETATM    8  C   UNL     1     -46.024 -52.441  12.531  1.00  0.00     0.002 C 
HETATM    9  C   UNL     1     -45.380 -51.270  13.282  1.00  0.00     0.025 C 
BRANCH   6  10
HETATM   10  C   UNL     1     -42.952 -54.147  14.007  1.00  0.00     0.007 C 
BRANCH  10  11
HETATM   11  C   UNL     1     -42.007 -53.882  15.189  1.00  0.00     0.004 C 
BRANCH  11  12
HETATM   12  C   UNL     1     -40.496 -53.923  14.883  1.00  0.00    -0.023 C 
HETATM   13  C   UNL     1     -39.770 -55.048  15.634  1.00  0.00     0.009 C 
HETATM   14  C   UNL     1     -40.274 -54.097  13.377  1.00  0.00     0.009 C 
ENDBRANCH  11  12
ENDBRANCH  10  11
ENDBRANCH   6  10
ENDBRANCH   1   5
BRANCH   2  15
HETATM   15  C   UNL     1     -40.761 -50.660  11.716  1.00  0.00     0.237 C 
BRANCH  15  16
HETATM   16  N   UNL     1     -40.603 -49.276  11.326  1.00  0.00    -0.285 N 
HETATM   17  C   UNL     1     -41.459 -48.488  10.649  1.00  0.00     0.204 A 
HETATM   18  N   UNL     1     -41.044 -47.274  10.453  1.00  0.00    -0.292 N 
HETATM   19  N   UNL     1     -39.825 -47.243  11.077  1.00  0.00    -0.250 N 
ATOM     20  HN  UNL     1     -41.515 -46.520   9.952  1.00  0.00     0.187 HD
HETATM   21  C   UNL     1     -39.539 -48.479  11.643  1.00  0.00     0.342 A 
HETATM   22  H   UNL     1     -39.252 -46.410  11.119  1.00  0.00     0.192 HD
HETATM   23  O   UNL     1     -38.548 -48.784  12.283  1.00  0.00    -0.245 OA
ENDBRANCH  15  16
ENDBRANCH   2  15
TORSDOF 6
ENDMDL
MODEL 7
REMARK VINA RESULT:      -5.4      1.884      3.140
REMARK  6 active torsions:
REMARK  status: ('A' for Active; 'I' for Inactive)
REMARK    1  A    between atoms: C_2  and  C_4 
REMARK    2  A    between atoms: C_4  and  C_5 
REMARK    3  A    between atoms: C_5  and  C_6 
REMARK    4  A    between atoms: C_10  and  N_11 
REMARK       I    between atoms: N_11  and  C_12 
REMARK    5  A    between atoms: C_12  and  C_14 
REMARK    6  A    between atoms: C_14  and  N_15 
ROOT
HETATM    1  N   UNL     1     -39.083 -53.548  15.070  1.00  0.00    -0.355 N 
HETATM    2  C   UNL     1     -39.417 -52.794  13.960  1.00  0.00     0.236 C 
HETATM    3  O   UNL     1     -39.941 -53.234  12.942  1.00  0.00    -0.272 OA
HETATM    4  H   UNL     1     -38.709 -53.049  15.868  1.00  0.00     0.162 HD
ENDROOT
BRANCH   1   5
HETATM    5  C   UNL     1     -39.392 -54.961  15.322  1.00  0.00     0.088 C 
HETATM    6  C   UNL     1     -40.728 -55.265  16.026  1.00  0.00     0.008 C 
HETATM    7  C   UNL     1     -40.390 -55.144  17.515  1.00  0.00     0.007 C 
HETATM    8  C   UNL     1     -38.934 -55.592  17.641  1.00  0.00     0.002 C 
HETATM    9  C   UNL     1     -38.393 -55.713  16.211  1.00  0.00     0.025 C 
BRANCH   6  10
HETATM   10  C   UNL     1     -41.970 -54.458  15.636  1.00  0.00     0.007 C 
BRANCH  10  11
HETATM   11  C   UNL     1     -43.161 -55.271  15.106  1.00  0.00     0.004 C 
BRANCH  11  12
HETATM   12  C   UNL     1     -44.486 -54.503  14.917  1.00  0.00    -0.023 C 
HETATM   13  C   UNL     1     -44.269 -53.015  14.610  1.00  0.00     0.009 C 
HETATM   14  C   UNL     1     -45.300 -55.138  13.786  1.00  0.00     0.009 C 
ENDBRANCH  11  12
ENDBRANCH  10  11
ENDBRANCH   6  10
ENDBRANCH   1   5
BRANCH   2  15
HETATM   15  C   UNL     1     -39.100 -51.300  14.067  1.00  0.00     0.237 C 
BRANCH  15  16
HETATM   16  N   UNL     1     -38.872 -50.769  12.741  1.00  0.00    -0.285 N 
HETATM   17  C   UNL     1     -39.684 -50.003  11.988  1.00  0.00     0.204 A 
HETATM   18  N   UNL     1     -39.200 -49.667  10.832  1.00  0.00    -0.292 N 
HETATM   19  N   UNL     1     -37.950 -50.230  10.827  1.00  0.00    -0.250 N 
ATOM     20  HN  UNL     1     -39.644 -49.114  10.099  1.00  0.00     0.187 HD
HETATM   21  C   UNL     1     -37.721 -50.908  12.018  1.00  0.00     0.342 A 
HETATM   22  H   UNL     1     -37.305 -50.123  10.056  1.00  0.00     0.192 HD
HETATM   23  O   UNL     1     -36.707 -51.501  12.343  1.00  0.00    -0.245 OA
ENDBRANCH  15  16
ENDBRANCH   2  15
TORSDOF 6
ENDMDL
MODEL 8
REMARK VINA RESULT:      -5.4      3.464      5.138
REMARK  6 active torsions:
REMARK  status: ('A' for Active; 'I' for Inactive)
REMARK    1  A    between atoms: C_2  and  C_4 
REMARK    2  A    between atoms: C_4  and  C_5 
REMARK    3  A    between atoms: C_5  and  C_6 
REMARK    4  A    between atoms: C_10  and  N_11 
REMARK       I    between atoms: N_11  and  C_12 
REMARK    5  A    between atoms: C_12  and  C_14 
REMARK    6  A    between atoms: C_14  and  N_15 
ROOT
HETATM    1  N   UNL     1     -42.163 -49.881  11.937  1.00  0.00    -0.355 N 
HETATM    2  C   UNL     1     -42.122 -48.695  11.227  1.00  0.00     0.236 C 
HETATM    3  O   UNL     1     -41.285 -48.412  10.377  1.00  0.00    -0.272 OA
HETATM    4  H   UNL     1     -42.944 -50.011  12.568  1.00  0.00     0.162 HD
ENDROOT
BRANCH   1   5
HETATM    5  C   UNL     1     -41.327 -51.073  11.743  1.00  0.00     0.088 C 
HETATM    6  C   UNL     1     -41.825 -52.381  12.385  1.00  0.00     0.008 C 
HETATM    7  C   UNL     1     -41.281 -52.316  13.815  1.00  0.00     0.007 C 
HETATM    8  C   UNL     1     -39.959 -51.554  13.714  1.00  0.00     0.002 C 
HETATM    9  C   UNL     1     -39.898 -50.980  12.294  1.00  0.00     0.025 C 
BRANCH   6  10
HETATM   10  C   UNL     1     -43.321 -52.706  12.338  1.00  0.00     0.007 C 
BRANCH  10  11
HETATM   11  C   UNL     1     -43.951 -53.172  13.659  1.00  0.00     0.004 C 
BRANCH  11  12
HETATM   12  C   UNL     1     -44.087 -54.697  13.854  1.00  0.00    -0.023 C 
HETATM   13  C   UNL     1     -43.334 -55.206  15.090  1.00  0.00     0.009 C 
HETATM   14  C   UNL     1     -45.566 -55.078  13.972  1.00  0.00     0.009 C 
ENDBRANCH  11  12
ENDBRANCH  10  11
ENDBRANCH   6  10
ENDBRANCH   1   5
BRANCH   2  15
HETATM   15  C   UNL     1     -43.239 -47.700  11.556  1.00  0.00     0.237 C 
BRANCH  15  16
HETATM   16  N   UNL     1     -43.824 -47.222  10.322  1.00  0.00    -0.285 N 
HETATM   17  C   UNL     1     -44.888 -47.701   9.653  1.00  0.00     0.204 A 
HETATM   18  N   UNL     1     -45.190 -47.052   8.570  1.00  0.00    -0.292 N 
HETATM   19  N   UNL     1     -44.268 -46.039   8.532  1.00  0.00    -0.250 N 
ATOM     20  HN  UNL     1     -45.937 -47.250   7.904  1.00  0.00     0.187 HD
HETATM   21  C   UNL     1     -43.417 -46.118   9.628  1.00  0.00     0.342 A 
HETATM   22  H   UNL     1     -44.257 -45.335   7.805  1.00  0.00     0.192 HD
HETATM   23  O   UNL     1     -42.502 -45.362   9.905  1.00  0.00    -0.245 OA
ENDBRANCH  15  16
ENDBRANCH   2  15
TORSDOF 6
ENDMDL
MODEL 9
REMARK VINA RESULT:      -5.0      3.091      4.733
REMARK  6 active torsions:
REMARK  status: ('A' for Active; 'I' for Inactive)
REMARK    1  A    between atoms: C_2  and  C_4 
REMARK    2  A    between atoms: C_4  and  C_5 
REMARK    3  A    between atoms: C_5  and  C_6 
REMARK    4  A    between atoms: C_10  and  N_11 
REMARK       I    between atoms: N_11  and  C_12 
REMARK    5  A    between atoms: C_12  and  C_14 
REMARK    6  A    between atoms: C_14  and  N_15 
ROOT
HETATM    1  N   UNL     1     -44.035 -51.651  14.330  1.00  0.00    -0.355 N 
HETATM    2  C   UNL     1     -42.918 -50.842  14.219  1.00  0.00     0.236 C 
HETATM    3  O   UNL     1     -42.940 -49.644  13.959  1.00  0.00    -0.272 OA
HETATM    4  H   UNL     1     -43.879 -52.612  14.608  1.00  0.00     0.162 HD
ENDROOT
BRANCH   1   5
HETATM    5  C   UNL     1     -45.445 -51.243  14.299  1.00  0.00     0.088 C 
HETATM    6  C   UNL     1     -46.159 -51.108  15.656  1.00  0.00     0.008 C 
HETATM    7  C   UNL     1     -46.647 -52.528  15.955  1.00  0.00     0.007 C 
HETATM    8  C   UNL     1     -46.949 -53.151  14.592  1.00  0.00     0.002 C 
HETATM    9  C   UNL     1     -46.392 -52.183  13.541  1.00  0.00     0.025 C 
BRANCH   6  10
HETATM   10  C   UNL     1     -45.400 -50.485  16.832  1.00  0.00     0.007 C 
BRANCH  10  11
HETATM   11  C   UNL     1     -46.164 -50.411  18.163  1.00  0.00     0.004 C 
BRANCH  11  12
HETATM   12  C   UNL     1     -46.815 -49.055  18.506  1.00  0.00    -0.023 C 
HETATM   13  C   UNL     1     -48.336 -49.155  18.682  1.00  0.00     0.009 C 
HETATM   14  C   UNL     1     -46.195 -48.488  19.787  1.00  0.00     0.009 C 
ENDBRANCH  11  12
ENDBRANCH  10  11
ENDBRANCH   6  10
ENDBRANCH   1   5
BRANCH   2  15
HETATM   15  C   UNL     1     -41.579 -51.544  14.460  1.00  0.00     0.237 C 
BRANCH  15  16
HETATM   16  N   UNL     1     -41.310 -52.442  13.358  1.00  0.00    -0.285 N 
HETATM   17  C   UNL     1     -41.080 -52.146  12.066  1.00  0.00     0.204 A 
HETATM   18  N   UNL     1     -40.857 -53.171  11.302  1.00  0.00    -0.292 N 
HETATM   19  N   UNL     1     -40.913 -54.236  12.164  1.00  0.00    -0.250 N 
ATOM     20  HN  UNL     1     -40.681 -53.183  10.298  1.00  0.00     0.187 HD
HETATM   21  C   UNL     1     -41.179 -53.799  13.456  1.00  0.00     0.342 A 
HETATM   22  H   UNL     1     -40.754 -55.190  11.867  1.00  0.00     0.192 HD
HETATM   23  O   UNL     1     -41.275 -54.484  14.459  1.00  0.00    -0.245 OA
ENDBRANCH  15  16
ENDBRANCH   2  15
TORSDOF 6
ENDMDL
