MODEL 1
REMARK VINA RESULT:      -6.1      0.000      0.000
REMARK  9 active torsions:
REMARK  status: ('A' for Active; 'I' for Inactive)
REMARK    1  A    between atoms: N_1  and  C_9 
REMARK    2  A    between atoms: C_6  and  N_8 
REMARK    3  A    between atoms: N_14  and  C_25 
REMARK    4  A    between atoms: C_15  and  C_23 
REMARK    5  A    between atoms: C_15  and  C_24 
REMARK    6  A    between atoms: C_23  and  O_26 
REMARK    7  A    between atoms: C_24  and  O_27 
REMARK    8  A    between atoms: C_25  and  C_30 
REMARK    9  A    between atoms: O_28  and  C_30 
ROOT
HETATM    1  N   UNL     1     -40.616 -47.637  12.034  1.00  0.00    -0.322 N 
HETATM    2  C   UNL     1     -40.325 -49.735  12.545  1.00  0.00     0.122 A 
HETATM    3  C   UNL     1     -39.697 -48.656  11.932  1.00  0.00     0.140 A 
HETATM    4  N   UNL     1     -41.591 -49.391  12.985  1.00  0.00    -0.346 N 
ATOM      5  HN  UNL     1     -42.271 -49.989  13.455  1.00  0.00     0.167 HD
HETATM    6  C   UNL     1     -39.628 -50.971  12.613  1.00  0.00     0.135 A 
HETATM    7  C   UNL     1     -41.724 -48.128  12.664  1.00  0.00     0.185 A 
HETATM    8  N   UNL     1     -38.476 -48.649  11.370  1.00  0.00    -0.336 N 
ATOM      9  HN  UNL     1     -38.042 -47.836  10.931  1.00  0.00     0.168 HD
HETATM   10  N   UNL     1     -38.393 -50.998  12.032  1.00  0.00    -0.337 N 
ATOM     11  HN  UNL     1     -37.846 -51.859  12.024  1.00  0.00     0.168 HD
HETATM   12  C   UNL     1     -37.903 -49.868  11.466  1.00  0.00     0.183 A 
ENDROOT
BRANCH   6  13
HETATM   13  N   UNL     1     -40.182 -52.124  13.177  1.00  0.00    -0.362 N 
HETATM   14  C   UNL     1     -40.528 -52.083  14.606  1.00  0.00     0.160 C 
HETATM   15  C   UNL     1     -40.825 -53.532  15.113  1.00  0.00     0.237 C 
HETATM   16  N   UNL     1     -41.872 -54.266  14.335  1.00  0.00     0.098 N 
HETATM   17  C   UNL     1     -41.049 -53.562  16.624  1.00  0.00     0.044 C 
HETATM   18  C   UNL     1     -41.414 -54.262  12.922  1.00  0.00     0.292 C 
HETATM   19  C   UNL     1     -41.146 -52.859  12.337  1.00  0.00     0.154 C 
BRANCH  16  20
HETATM   20  C   UNL     1     -43.236 -53.713  14.479  1.00  0.00     0.299 C 
BRANCH  20  21
HETATM   21  C   UNL     1     -44.340 -54.729  14.109  1.00  0.00     0.197 C 
BRANCH  21  22
HETATM   22  O   UNL     1     -44.886 -54.445  12.818  1.00  0.00    -0.394 OA
HETATM   23  C   UNL     1     -45.014 -53.036  12.629  1.00  0.00     0.201 C 
ENDBRANCH  21  22
ENDBRANCH  20  21
ENDBRANCH  16  20
ENDBRANCH   6  13
BRANCH   1  24
HETATM   24  C   UNL     1     -40.605 -46.273  11.603  1.00  0.00     0.094 C 
HETATM   25  C   UNL     1     -41.241 -45.255  12.591  1.00  0.00     0.039 C 
HETATM   26  C   UNL     1     -41.594 -44.400  11.321  1.00  0.00     0.006 C 
HETATM   27  C   UNL     1     -41.694 -45.805  10.607  1.00  0.00     0.039 C 
BRANCH  26  28
HETATM   28  C   UNL     1     -42.903 -43.619  11.445  1.00  0.00     0.175 C 
BRANCH  28  29
HETATM   29  O   UNL     1     -43.485 -43.434  10.159  1.00  0.00    -0.400 OA
HETATM   30  H   UNL     1     -42.769 -43.540   9.501  1.00  0.00     0.209 HD
ENDBRANCH  28  29
ENDBRANCH  26  28
BRANCH  26  31
HETATM   31  C   UNL     1     -40.443 -43.474  10.883  1.00  0.00     0.175 C 
BRANCH  31  32
HETATM   32  O   UNL     1     -40.958 -42.188  10.552  1.00  0.00    -0.400 OA
HETATM   33  H   UNL     1     -40.462 -41.865   9.778  1.00  0.00     0.209 HD
ENDBRANCH  31  32
ENDBRANCH  26  31
ENDBRANCH   1  24
TORSDOF 9
ENDMDL
MODEL 2
REMARK VINA RESULT:      -6.1      2.014      2.653
REMARK  9 active torsions:
REMARK  status: ('A' for Active; 'I' for Inactive)
REMARK    1  A    between atoms: N_1  and  C_9 
REMARK    2  A    between atoms: C_6  and  N_8 
REMARK    3  A    between atoms: N_14  and  C_25 
REMARK    4  A    between atoms: C_15  and  C_23 
REMARK    5  A    between atoms: C_15  and  C_24 
REMARK    6  A    between atoms: C_23  and  O_26 
REMARK    7  A    between atoms: C_24  and  O_27 
REMARK    8  A    between atoms: C_25  and  C_30 
REMARK    9  A    between atoms: O_28  and  C_30 
ROOT
HETATM    1  N   UNL     1     -41.525 -49.429  11.762  1.00  0.00    -0.322 N 
HETATM    2  C   UNL     1     -40.254 -50.775  12.910  1.00  0.00     0.122 A 
HETATM    3  C   UNL     1     -40.213 -49.816  11.904  1.00  0.00     0.140 A 
HETATM    4  N   UNL     1     -41.550 -50.981  13.349  1.00  0.00    -0.346 N 
ATOM      5  HN  UNL     1     -41.867 -51.634  14.066  1.00  0.00     0.167 HD
HETATM    6  C   UNL     1     -39.035 -51.386  13.308  1.00  0.00     0.135 A 
HETATM    7  C   UNL     1     -42.278 -50.155  12.641  1.00  0.00     0.185 A 
HETATM    8  N   UNL     1     -39.124 -49.395  11.237  1.00  0.00    -0.336 N 
ATOM      9  HN  UNL     1     -39.128 -48.684  10.506  1.00  0.00     0.168 HD
HETATM   10  N   UNL     1     -37.916 -50.992  12.635  1.00  0.00    -0.337 N 
ATOM     11  HN  UNL     1     -37.010 -51.407  12.853  1.00  0.00     0.168 HD
HETATM   12  C   UNL     1     -38.022 -50.045  11.671  1.00  0.00     0.183 A 
ENDROOT
BRANCH   6  13
HETATM   13  N   UNL     1     -38.972 -52.385  14.285  1.00  0.00    -0.362 N 
HETATM   14  C   UNL     1     -39.239 -51.992  15.677  1.00  0.00     0.160 C 
HETATM   15  C   UNL     1     -38.813 -53.151  16.637  1.00  0.00     0.237 C 
HETATM   16  N   UNL     1     -39.435 -54.477  16.332  1.00  0.00     0.098 N 
HETATM   17  C   UNL     1     -38.936 -52.737  18.103  1.00  0.00     0.044 C 
HETATM   18  C   UNL     1     -39.088 -54.780  14.920  1.00  0.00     0.292 C 
HETATM   19  C   UNL     1     -39.521 -53.700  13.906  1.00  0.00     0.154 C 
BRANCH  16  20
HETATM   20  C   UNL     1     -40.893 -54.536  16.572  1.00  0.00     0.299 C 
BRANCH  20  21
HETATM   21  C   UNL     1     -41.435 -55.981  16.648  1.00  0.00     0.197 C 
BRANCH  21  22
HETATM   22  O   UNL     1     -42.748 -56.065  16.087  1.00  0.00    -0.394 OA
HETATM   23  C   UNL     1     -42.920 -55.081  15.069  1.00  0.00     0.201 C 
ENDBRANCH  21  22
ENDBRANCH  20  21
ENDBRANCH  16  20
ENDBRANCH   6  13
BRANCH   1  24
HETATM   24  C   UNL     1     -42.172 -48.488  10.900  1.00  0.00     0.094 C 
HETATM   25  C   UNL     1     -41.325 -47.243  10.515  1.00  0.00     0.039 C 
HETATM   26  C   UNL     1     -42.692 -46.478  10.392  1.00  0.00     0.006 C 
HETATM   27  C   UNL     1     -43.160 -47.473  11.526  1.00  0.00     0.039 C 
BRANCH  26  28
HETATM   28  C   UNL     1     -42.615 -45.003  10.788  1.00  0.00     0.175 C 
BRANCH  28  29
HETATM   29  O   UNL     1     -43.559 -44.246  10.038  1.00  0.00    -0.400 OA
HETATM   30  H   UNL     1     -43.452 -43.310  10.303  1.00  0.00     0.209 HD
ENDBRANCH  28  29
ENDBRANCH  26  28
BRANCH  26  31
HETATM   31  C   UNL     1     -43.347 -46.640   9.007  1.00  0.00     0.175 C 
BRANCH  31  32
HETATM   32  O   UNL     1     -42.618 -45.891   8.039  1.00  0.00    -0.400 OA
HETATM   33  H   UNL     1     -41.672 -45.970   8.260  1.00  0.00     0.209 HD
ENDBRANCH  31  32
ENDBRANCH  26  31
ENDBRANCH   1  24
TORSDOF 9
ENDMDL
MODEL 3
REMARK VINA RESULT:      -6.0      2.685      4.028
REMARK  9 active torsions:
REMARK  status: ('A' for Active; 'I' for Inactive)
REMARK    1  A    between atoms: N_1  and  C_9 
REMARK    2  A    between atoms: C_6  and  N_8 
REMARK    3  A    between atoms: N_14  and  C_25 
REMARK    4  A    between atoms: C_15  and  C_23 
REMARK    5  A    between atoms: C_15  and  C_24 
REMARK    6  A    between atoms: C_23  and  O_26 
REMARK    7  A    between atoms: C_24  and  O_27 
REMARK    8  A    between atoms: C_25  and  C_30 
REMARK    9  A    between atoms: O_28  and  C_30 
ROOT
HETATM    1  N   UNL     1     -41.940 -49.125  11.457  1.00  0.00    -0.322 N 
HETATM    2  C   UNL     1     -41.401 -50.772  12.777  1.00  0.00     0.122 A 
HETATM    3  C   UNL     1     -42.489 -50.021  12.345  1.00  0.00     0.140 A 
HETATM    4  N   UNL     1     -40.228 -50.335  12.190  1.00  0.00    -0.346 N 
ATOM      5  HN  UNL     1     -39.285 -50.697  12.336  1.00  0.00     0.167 HD
HETATM    6  C   UNL     1     -41.631 -51.810  13.720  1.00  0.00     0.135 A 
HETATM    7  C   UNL     1     -40.594 -49.352  11.405  1.00  0.00     0.185 A 
HETATM    8  N   UNL     1     -43.768 -50.159  12.735  1.00  0.00    -0.336 N 
ATOM      9  HN  UNL     1     -44.545 -49.592  12.393  1.00  0.00     0.168 HD
HETATM   10  N   UNL     1     -42.918 -51.960  14.148  1.00  0.00    -0.337 N 
ATOM     11  HN  UNL     1     -43.151 -52.671  14.841  1.00  0.00     0.168 HD
HETATM   12  C   UNL     1     -43.883 -51.153  13.641  1.00  0.00     0.183 A 
ENDROOT
BRANCH   6  13
HETATM   13  N   UNL     1     -40.603 -52.601  14.243  1.00  0.00    -0.362 N 
HETATM   14  C   UNL     1     -40.318 -52.482  15.680  1.00  0.00     0.160 C 
HETATM   15  C   UNL     1     -38.959 -53.186  16.002  1.00  0.00     0.237 C 
HETATM   16  N   UNL     1     -38.873 -54.613  15.561  1.00  0.00     0.098 N 
HETATM   17  C   UNL     1     -38.547 -52.966  17.457  1.00  0.00     0.044 C 
HETATM   18  C   UNL     1     -39.157 -54.612  14.104  1.00  0.00     0.292 C 
HETATM   19  C   UNL     1     -40.507 -53.974  13.713  1.00  0.00     0.154 C 
BRANCH  16  20
HETATM   20  C   UNL     1     -39.762 -55.534  16.301  1.00  0.00     0.299 C 
BRANCH  20  21
HETATM   21  C   UNL     1     -38.990 -56.629  17.072  1.00  0.00     0.197 C 
BRANCH  21  22
HETATM   22  O   UNL     1     -39.692 -57.875  17.031  1.00  0.00    -0.394 OA
HETATM   23  C   UNL     1     -39.241 -58.736  18.075  1.00  0.00     0.201 C 
ENDBRANCH  21  22
ENDBRANCH  20  21
ENDBRANCH  16  20
ENDBRANCH   6  13
BRANCH   1  24
HETATM   24  C   UNL     1     -42.502 -48.073  10.667  1.00  0.00     0.094 C 
HETATM   25  C   UNL     1     -41.542 -46.893  10.348  1.00  0.00     0.039 C 
HETATM   26  C   UNL     1     -42.830 -45.994  10.296  1.00  0.00     0.006 C 
HETATM   27  C   UNL     1     -43.381 -47.011  11.371  1.00  0.00     0.039 C 
BRANCH  26  28
HETATM   28  C   UNL     1     -42.607 -44.562  10.782  1.00  0.00     0.175 C 
BRANCH  28  29
HETATM   29  O   UNL     1     -43.502 -43.676  10.119  1.00  0.00    -0.400 OA
HETATM   30  H   UNL     1     -44.144 -43.362  10.788  1.00  0.00     0.209 HD
ENDBRANCH  28  29
ENDBRANCH  26  28
BRANCH  26  31
HETATM   31  C   UNL     1     -43.511 -46.004   8.913  1.00  0.00     0.175 C 
BRANCH  31  32
HETATM   32  O   UNL     1     -44.901 -45.729   9.059  1.00  0.00    -0.400 OA
HETATM   33  H   UNL     1     -45.336 -46.560   9.322  1.00  0.00     0.209 HD
ENDBRANCH  31  32
ENDBRANCH  26  31
ENDBRANCH   1  24
TORSDOF 9
ENDMDL
MODEL 4
REMARK VINA RESULT:      -6.0      1.550      1.806
REMARK  9 active torsions:
REMARK  status: ('A' for Active; 'I' for Inactive)
REMARK    1  A    between atoms: N_1  and  C_9 
REMARK    2  A    between atoms: C_6  and  N_8 
REMARK    3  A    between atoms: N_14  and  C_25 
REMARK    4  A    between atoms: C_15  and  C_23 
REMARK    5  A    between atoms: C_15  and  C_24 
REMARK    6  A    between atoms: C_23  and  O_26 
REMARK    7  A    between atoms: C_24  and  O_27 
REMARK    8  A    between atoms: C_25  and  C_30 
REMARK    9  A    between atoms: O_28  and  C_30 
ROOT
HETATM    1  N   UNL     1     -41.568 -48.193  11.726  1.00  0.00    -0.322 N 
HETATM    2  C   UNL     1     -41.722 -50.288  12.306  1.00  0.00     0.122 A 
HETATM    3  C   UNL     1     -40.801 -49.319  11.923  1.00  0.00     0.140 A 
HETATM    4  N   UNL     1     -43.008 -49.776  12.321  1.00  0.00    -0.346 N 
ATOM      5  HN  UNL     1     -43.871 -50.268  12.552  1.00  0.00     0.167 HD
HETATM    6  C   UNL     1     -41.245 -51.594  12.594  1.00  0.00     0.135 A 
HETATM    7  C   UNL     1     -42.871 -48.521  11.973  1.00  0.00     0.185 A 
HETATM    8  N   UNL     1     -39.475 -49.482  11.778  1.00  0.00    -0.336 N 
ATOM      9  HN  UNL     1     -38.825 -48.746  11.499  1.00  0.00     0.168 HD
HETATM   10  N   UNL     1     -39.905 -51.794  12.436  1.00  0.00    -0.337 N 
ATOM     11  HN  UNL     1     -39.497 -52.714  12.603  1.00  0.00     0.168 HD
HETATM   12  C   UNL     1     -39.121 -50.756  12.054  1.00  0.00     0.183 A 
ENDROOT
BRANCH   6  13
HETATM   13  N   UNL     1     -42.091 -52.648  12.954  1.00  0.00    -0.362 N 
HETATM   14  C   UNL     1     -41.946 -53.203  14.308  1.00  0.00     0.160 C 
HETATM   15  C   UNL     1     -42.736 -54.549  14.407  1.00  0.00     0.237 C 
HETATM   16  N   UNL     1     -44.179 -54.458  14.023  1.00  0.00     0.098 N 
HETATM   17  C   UNL     1     -42.499 -55.240  15.750  1.00  0.00     0.044 C 
HETATM   18  C   UNL     1     -44.205 -53.908  12.644  1.00  0.00     0.292 C 
HETATM   19  C   UNL     1     -43.484 -52.554  12.480  1.00  0.00     0.154 C 
BRANCH  16  20
HETATM   20  C   UNL     1     -45.009 -53.664  14.956  1.00  0.00     0.299 C 
BRANCH  20  21
HETATM   21  C   UNL     1     -46.525 -53.869  14.738  1.00  0.00     0.197 C 
BRANCH  21  22
HETATM   22  O   UNL     1     -47.248 -52.666  15.017  1.00  0.00    -0.394 OA
HETATM   23  C   UNL     1     -46.589 -51.541  14.437  1.00  0.00     0.201 C 
ENDBRANCH  21  22
ENDBRANCH  20  21
ENDBRANCH  16  20
ENDBRANCH   6  13
BRANCH   1  24
HETATM   24  C   UNL     1     -41.248 -46.860  11.320  1.00  0.00     0.094 C 
HETATM   25  C   UNL     1     -41.502 -45.757  12.386  1.00  0.00     0.039 C 
HETATM   26  C   UNL     1     -41.745 -44.786  11.175  1.00  0.00     0.006 C 
HETATM   27  C   UNL     1     -42.271 -46.088  10.451  1.00  0.00     0.039 C 
BRANCH  26  28
HETATM   28  C   UNL     1     -42.790 -43.705  11.447  1.00  0.00     0.175 C 
BRANCH  28  29
HETATM   29  O   UNL     1     -43.460 -43.356  10.241  1.00  0.00    -0.400 OA
HETATM   30  H   UNL     1     -43.740 -44.193   9.815  1.00  0.00     0.209 HD
ENDBRANCH  28  29
ENDBRANCH  26  28
BRANCH  26  31
HETATM   31  C   UNL     1     -40.442 -44.166  10.634  1.00  0.00     0.175 C 
BRANCH  31  32
HETATM   32  O   UNL     1     -40.579 -42.750  10.557  1.00  0.00    -0.400 OA
HETATM   33  H   UNL     1     -41.127 -42.551   9.776  1.00  0.00     0.209 HD
ENDBRANCH  31  32
ENDBRANCH  26  31
ENDBRANCH   1  24
TORSDOF 9
ENDMDL
MODEL 5
REMARK VINA RESULT:      -5.8      2.482      3.466
REMARK  9 active torsions:
REMARK  status: ('A' for Active; 'I' for Inactive)
REMARK    1  A    between atoms: N_1  and  C_9 
REMARK    2  A    between atoms: C_6  and  N_8 
REMARK    3  A    between atoms: N_14  and  C_25 
REMARK    4  A    between atoms: C_15  and  C_23 
REMARK    5  A    between atoms: C_15  and  C_24 
REMARK    6  A    between atoms: C_23  and  O_26 
REMARK    7  A    between atoms: C_24  and  O_27 
REMARK    8  A    between atoms: C_25  and  C_30 
REMARK    9  A    between atoms: O_28  and  C_30 
ROOT
HETATM    1  N   UNL     1     -41.601 -48.153  11.560  1.00  0.00    -0.322 N 
HETATM    2  C   UNL     1     -42.568 -49.872  12.486  1.00  0.00     0.122 A 
HETATM    3  C   UNL     1     -41.321 -49.380  12.116  1.00  0.00     0.140 A 
HETATM    4  N   UNL     1     -43.575 -48.985  12.147  1.00  0.00    -0.346 N 
ATOM      5  HN  UNL     1     -44.578 -49.097  12.291  1.00  0.00     0.167 HD
HETATM    6  C   UNL     1     -42.632 -51.147  13.107  1.00  0.00     0.135 A 
HETATM    7  C   UNL     1     -42.954 -47.969  11.600  1.00  0.00     0.185 A 
HETATM    8  N   UNL     1     -40.136 -49.994  12.272  1.00  0.00    -0.336 N 
ATOM      9  HN  UNL     1     -39.236 -49.602  11.992  1.00  0.00     0.168 HD
HETATM   10  N   UNL     1     -41.445 -51.803  13.260  1.00  0.00    -0.337 N 
ATOM     11  HN  UNL     1     -41.420 -52.733  13.677  1.00  0.00     0.168 HD
HETATM   12  C   UNL     1     -40.301 -51.203  12.850  1.00  0.00     0.183 A 
ENDROOT
BRANCH   6  13
HETATM   13  N   UNL     1     -43.838 -51.746  13.487  1.00  0.00    -0.362 N 
HETATM   14  C   UNL     1     -43.856 -53.210  13.626  1.00  0.00     0.160 C 
HETATM   15  C   UNL     1     -45.335 -53.705  13.738  1.00  0.00     0.237 C 
HETATM   16  N   UNL     1     -46.131 -53.059  14.828  1.00  0.00     0.098 N 
HETATM   17  C   UNL     1     -45.416 -55.231  13.740  1.00  0.00     0.044 C 
HETATM   18  C   UNL     1     -46.060 -51.596  14.579  1.00  0.00     0.292 C 
HETATM   19  C   UNL     1     -44.628 -51.026  14.503  1.00  0.00     0.154 C 
BRANCH  16  20
HETATM   20  C   UNL     1     -45.691 -53.413  16.195  1.00  0.00     0.299 C 
BRANCH  20  21
HETATM   21  C   UNL     1     -46.448 -52.632  17.293  1.00  0.00     0.197 C 
BRANCH  21  22
HETATM   22  O   UNL     1     -45.554 -51.799  18.038  1.00  0.00    -0.394 OA
HETATM   23  C   UNL     1     -44.237 -52.347  18.027  1.00  0.00     0.201 C 
ENDBRANCH  21  22
ENDBRANCH  20  21
ENDBRANCH  16  20
ENDBRANCH   6  13
BRANCH   1  24
HETATM   24  C   UNL     1     -40.776 -47.140  10.978  1.00  0.00     0.094 C 
HETATM   25  C   UNL     1     -40.036 -46.219  11.988  1.00  0.00     0.039 C 
HETATM   26  C   UNL     1     -40.108 -45.113  10.874  1.00  0.00     0.006 C 
HETATM   27  C   UNL     1     -41.449 -45.842  10.469  1.00  0.00     0.039 C 
BRANCH  26  28
HETATM   28  C   UNL     1     -40.258 -43.693  11.419  1.00  0.00     0.175 C 
BRANCH  28  29
HETATM   29  O   UNL     1     -40.655 -42.808  10.377  1.00  0.00    -0.400 OA
HETATM   30  H   UNL     1     -41.446 -42.327  10.694  1.00  0.00     0.209 HD
ENDBRANCH  28  29
ENDBRANCH  26  28
BRANCH  26  31
HETATM   31  C   UNL     1     -38.939 -45.195   9.873  1.00  0.00     0.175 C 
BRANCH  31  32
HETATM   32  O   UNL     1     -39.233 -44.405   8.724  1.00  0.00    -0.400 OA
HETATM   33  H   UNL     1     -40.045 -43.901   8.916  1.00  0.00     0.209 HD
ENDBRANCH  31  32
ENDBRANCH  26  31
ENDBRANCH   1  24
TORSDOF 9
ENDMDL
MODEL 6
REMARK VINA RESULT:      -5.7      2.474      3.405
REMARK  9 active torsions:
REMARK  status: ('A' for Active; 'I' for Inactive)
REMARK    1  A    between atoms: N_1  and  C_9 
REMARK    2  A    between atoms: C_6  and  N_8 
REMARK    3  A    between atoms: N_14  and  C_25 
REMARK    4  A    between atoms: C_15  and  C_23 
REMARK    5  A    between atoms: C_15  and  C_24 
REMARK    6  A    between atoms: C_23  and  O_26 
REMARK    7  A    between atoms: C_24  and  O_27 
REMARK    8  A    between atoms: C_25  and  C_30 
REMARK    9  A    between atoms: O_28  and  C_30 
ROOT
HETATM    1  N   UNL     1     -42.068 -49.426  12.373  1.00  0.00    -0.322 N 
HETATM    2  C   UNL     1     -42.695 -51.349  13.182  1.00  0.00     0.122 A 
HETATM    3  C   UNL     1     -41.823 -50.775  12.264  1.00  0.00     0.140 A 
HETATM    4  N   UNL     1     -43.461 -50.384  13.813  1.00  0.00    -0.346 N 
ATOM      5  HN  UNL     1     -44.184 -50.526  14.518  1.00  0.00     0.167 HD
HETATM    6  C   UNL     1     -42.691 -52.762  13.323  1.00  0.00     0.135 A 
HETATM    7  C   UNL     1     -43.052 -49.249  13.304  1.00  0.00     0.185 A 
HETATM    8  N   UNL     1     -40.959 -51.422  11.462  1.00  0.00    -0.336 N 
ATOM      9  HN  UNL     1     -40.328 -50.968  10.802  1.00  0.00     0.168 HD
HETATM   10  N   UNL     1     -41.838 -53.446  12.507  1.00  0.00    -0.337 N 
ATOM     11  HN  UNL     1     -41.799 -54.465  12.539  1.00  0.00     0.168 HD
HETATM   12  C   UNL     1     -41.042 -52.756  11.654  1.00  0.00     0.183 A 
ENDROOT
BRANCH   6  13
HETATM   13  N   UNL     1     -43.551 -53.440  14.193  1.00  0.00    -0.362 N 
HETATM   14  C   UNL     1     -43.263 -53.362  15.633  1.00  0.00     0.160 C 
HETATM   15  C   UNL     1     -44.123 -54.421  16.396  1.00  0.00     0.237 C 
HETATM   16  N   UNL     1     -45.596 -54.331  16.144  1.00  0.00     0.098 N 
HETATM   17  C   UNL     1     -43.755 -54.479  17.878  1.00  0.00     0.044 C 
HETATM   18  C   UNL     1     -45.771 -54.439  14.674  1.00  0.00     0.292 C 
HETATM   19  C   UNL     1     -44.986 -53.392  13.855  1.00  0.00     0.154 C 
BRANCH  16  20
HETATM   20  C   UNL     1     -46.233 -53.114  16.693  1.00  0.00     0.299 C 
BRANCH  20  21
HETATM   21  C   UNL     1     -47.126 -52.385  15.664  1.00  0.00     0.197 C 
BRANCH  21  22
HETATM   22  O   UNL     1     -46.810 -50.990  15.609  1.00  0.00    -0.394 OA
HETATM   23  C   UNL     1     -45.783 -50.675  16.548  1.00  0.00     0.201 C 
ENDBRANCH  21  22
ENDBRANCH  20  21
ENDBRANCH  16  20
ENDBRANCH   6  13
BRANCH   1  24
HETATM   24  C   UNL     1     -41.521 -48.283  11.709  1.00  0.00     0.094 C 
HETATM   25  C   UNL     1     -42.242 -46.935  11.996  1.00  0.00     0.039 C 
HETATM   26  C   UNL     1     -41.772 -46.497  10.562  1.00  0.00     0.006 C 
HETATM   27  C   UNL     1     -41.903 -48.035  10.230  1.00  0.00     0.039 C 
BRANCH  26  28
HETATM   28  C   UNL     1     -42.754 -45.572   9.844  1.00  0.00     0.175 C 
BRANCH  28  29
HETATM   29  O   UNL     1     -42.778 -45.870   8.452  1.00  0.00    -0.400 OA
HETATM   30  H   UNL     1     -43.541 -46.464   8.298  1.00  0.00     0.209 HD
ENDBRANCH  28  29
ENDBRANCH  26  28
BRANCH  26  31
HETATM   31  C   UNL     1     -40.351 -45.900  10.555  1.00  0.00     0.175 C 
BRANCH  31  32
HETATM   32  O   UNL     1     -40.201 -45.029   9.438  1.00  0.00    -0.400 OA
HETATM   33  H   UNL     1     -40.537 -44.154   9.703  1.00  0.00     0.209 HD
ENDBRANCH  31  32
ENDBRANCH  26  31
ENDBRANCH   1  24
TORSDOF 9
ENDMDL
MODEL 7
REMARK VINA RESULT:      -5.6      6.354      9.177
REMARK  9 active torsions:
REMARK  status: ('A' for Active; 'I' for Inactive)
REMARK    1  A    between atoms: N_1  and  C_9 
REMARK    2  A    between atoms: C_6  and  N_8 
REMARK    3  A    between atoms: N_14  and  C_25 
REMARK    4  A    between atoms: C_15  and  C_23 
REMARK    5  A    between atoms: C_15  and  C_24 
REMARK    6  A    between atoms: C_23  and  O_26 
REMARK    7  A    between atoms: C_24  and  O_27 
REMARK    8  A    between atoms: C_25  and  C_30 
REMARK    9  A    between atoms: O_28  and  C_30 
ROOT
HETATM    1  N   UNL     1     -42.264 -54.735  16.345  1.00  0.00    -0.322 N 
HETATM    2  C   UNL     1     -40.235 -55.328  16.870  1.00  0.00     0.122 A 
HETATM    3  C   UNL     1     -40.998 -54.834  15.818  1.00  0.00     0.140 A 
HETATM    4  N   UNL     1     -41.014 -55.544  17.993  1.00  0.00    -0.346 N 
ATOM      5  HN  UNL     1     -40.716 -55.911  18.897  1.00  0.00     0.167 HD
HETATM    6  C   UNL     1     -38.848 -55.547  16.652  1.00  0.00     0.135 A 
HETATM    7  C   UNL     1     -42.219 -55.173  17.639  1.00  0.00     0.185 A 
HETATM    8  N   UNL     1     -40.566 -54.541  14.579  1.00  0.00    -0.336 N 
ATOM      9  HN  UNL     1     -41.153 -54.175  13.829  1.00  0.00     0.168 HD
HETATM   10  N   UNL     1     -38.386 -55.277  15.397  1.00  0.00    -0.337 N 
ATOM     11  HN  UNL     1     -37.405 -55.433  15.164  1.00  0.00     0.168 HD
HETATM   12  C   UNL     1     -39.245 -54.800  14.464  1.00  0.00     0.183 A 
ENDROOT
BRANCH   6  13
HETATM   13  N   UNL     1     -38.000 -56.072  17.633  1.00  0.00    -0.362 N 
HETATM   14  C   UNL     1     -38.144 -57.497  17.964  1.00  0.00     0.160 C 
HETATM   15  C   UNL     1     -37.352 -57.811  19.276  1.00  0.00     0.237 C 
HETATM   16  N   UNL     1     -35.909 -57.416  19.245  1.00  0.00     0.098 N 
HETATM   17  C   UNL     1     -37.587 -59.247  19.742  1.00  0.00     0.044 C 
HETATM   18  C   UNL     1     -35.884 -55.967  18.923  1.00  0.00     0.292 C 
HETATM   19  C   UNL     1     -36.608 -55.587  17.614  1.00  0.00     0.154 C 
BRANCH  16  20
HETATM   20  C   UNL     1     -35.080 -58.208  18.310  1.00  0.00     0.299 C 
BRANCH  20  21
HETATM   21  C   UNL     1     -33.662 -57.625  18.118  1.00  0.00     0.197 C 
BRANCH  21  22
HETATM   22  O   UNL     1     -33.497 -57.106  16.795  1.00  0.00    -0.394 OA
HETATM   23  C   UNL     1     -32.734 -55.902  16.823  1.00  0.00     0.201 C 
ENDBRANCH  21  22
ENDBRANCH  20  21
ENDBRANCH  16  20
ENDBRANCH   6  13
BRANCH   1  24
HETATM   24  C   UNL     1     -43.514 -54.306  15.797  1.00  0.00     0.094 C 
HETATM   25  C   UNL     1     -43.961 -55.038  14.500  1.00  0.00     0.039 C 
HETATM   26  C   UNL     1     -44.709 -53.708  14.130  1.00  0.00     0.006 C 
HETATM   27  C   UNL     1     -43.540 -53.020  14.936  1.00  0.00     0.039 C 
BRANCH  26  28
HETATM   28  C   UNL     1     -44.749 -53.415  12.630  1.00  0.00     0.175 C 
BRANCH  28  29
HETATM   29  O   UNL     1     -46.081 -53.122  12.224  1.00  0.00    -0.400 OA
HETATM   30  H   UNL     1     -46.680 -53.564  12.859  1.00  0.00     0.209 HD
ENDBRANCH  28  29
ENDBRANCH  26  28
BRANCH  26  31
HETATM   31  C   UNL     1     -46.122 -53.625  14.741  1.00  0.00     0.175 C 
BRANCH  31  32
HETATM   32  O   UNL     1     -46.882 -54.766  14.354  1.00  0.00    -0.400 OA
HETATM   33  H   UNL     1     -47.077 -54.678  13.403  1.00  0.00     0.209 HD
ENDBRANCH  31  32
ENDBRANCH  26  31
ENDBRANCH   1  24
TORSDOF 9
ENDMDL
MODEL 8
REMARK VINA RESULT:      -5.6      2.858      8.433
REMARK  9 active torsions:
REMARK  status: ('A' for Active; 'I' for Inactive)
REMARK    1  A    between atoms: N_1  and  C_9 
REMARK    2  A    between atoms: C_6  and  N_8 
REMARK    3  A    between atoms: N_14  and  C_25 
REMARK    4  A    between atoms: C_15  and  C_23 
REMARK    5  A    between atoms: C_15  and  C_24 
REMARK    6  A    between atoms: C_23  and  O_26 
REMARK    7  A    between atoms: C_24  and  O_27 
REMARK    8  A    between atoms: C_25  and  C_30 
REMARK    9  A    between atoms: O_28  and  C_30 
ROOT
HETATM    1  N   UNL     1     -39.712 -51.800  14.279  1.00  0.00    -0.322 N 
HETATM    2  C   UNL     1     -40.154 -50.010  13.120  1.00  0.00     0.122 A 
HETATM    3  C   UNL     1     -39.194 -51.003  13.286  1.00  0.00     0.140 A 
HETATM    4  N   UNL     1     -41.209 -50.185  13.998  1.00  0.00    -0.346 N 
ATOM      5  HN  UNL     1     -42.038 -49.599  14.100  1.00  0.00     0.167 HD
HETATM    6  C   UNL     1     -39.922 -49.005  12.144  1.00  0.00     0.135 A 
HETATM    7  C   UNL     1     -40.908 -51.268  14.670  1.00  0.00     0.185 A 
HETATM    8  N   UNL     1     -38.033 -51.119  12.618  1.00  0.00    -0.336 N 
ATOM      9  HN  UNL     1     -37.352 -51.865  12.761  1.00  0.00     0.168 HD
HETATM   10  N   UNL     1     -38.742 -49.087  11.464  1.00  0.00    -0.337 N 
ATOM     11  HN  UNL     1     -38.500 -48.385  10.764  1.00  0.00     0.168 HD
HETATM   12  C   UNL     1     -37.895 -50.111  11.729  1.00  0.00     0.183 A 
ENDROOT
BRANCH   6  13
HETATM   13  N   UNL     1     -40.807 -47.945  11.922  1.00  0.00    -0.362 N 
HETATM   14  C   UNL     1     -40.266 -46.725  11.303  1.00  0.00     0.160 C 
HETATM   15  C   UNL     1     -41.310 -45.568  11.431  1.00  0.00     0.237 C 
HETATM   16  N   UNL     1     -42.666 -45.884  10.882  1.00  0.00     0.098 N 
HETATM   17  C   UNL     1     -40.739 -44.242  10.932  1.00  0.00     0.044 C 
HETATM   18  C   UNL     1     -43.119 -47.111  11.585  1.00  0.00     0.292 C 
HETATM   19  C   UNL     1     -42.159 -48.314  11.463  1.00  0.00     0.154 C 
BRANCH  16  20
HETATM   20  C   UNL     1     -42.707 -46.037   9.412  1.00  0.00     0.299 C 
BRANCH  20  21
HETATM   21  C   UNL     1     -44.146 -46.111   8.853  1.00  0.00     0.197 C 
BRANCH  21  22
HETATM   22  O   UNL     1     -44.474 -47.447   8.459  1.00  0.00    -0.394 OA
HETATM   23  C   UNL     1     -43.480 -47.965   7.576  1.00  0.00     0.201 C 
ENDBRANCH  21  22
ENDBRANCH  20  21
ENDBRANCH  16  20
ENDBRANCH   6  13
BRANCH   1  24
HETATM   24  C   UNL     1     -39.229 -52.981  14.927  1.00  0.00     0.094 C 
HETATM   25  C   UNL     1     -40.324 -53.925  15.498  1.00  0.00     0.039 C 
HETATM   26  C   UNL     1     -39.255 -54.349  16.569  1.00  0.00     0.006 C 
HETATM   27  C   UNL     1     -38.731 -52.870  16.389  1.00  0.00     0.039 C 
BRANCH  26  28
HETATM   28  C   UNL     1     -39.847 -54.686  17.937  1.00  0.00     0.175 C 
BRANCH  28  29
HETATM   29  O   UNL     1     -38.827 -55.159  18.809  1.00  0.00    -0.400 OA
HETATM   30  H   UNL     1     -38.474 -54.381  19.287  1.00  0.00     0.209 HD
ENDBRANCH  28  29
ENDBRANCH  26  28
BRANCH  26  31
HETATM   31  C   UNL     1     -38.332 -55.481  16.078  1.00  0.00     0.175 C 
BRANCH  31  32
HETATM   32  O   UNL     1     -38.826 -56.737  16.534  1.00  0.00    -0.400 OA
HETATM   33  H   UNL     1     -38.058 -57.270  16.810  1.00  0.00     0.209 HD
ENDBRANCH  31  32
ENDBRANCH  26  31
ENDBRANCH   1  24
TORSDOF 9
ENDMDL
MODEL 9
REMARK VINA RESULT:      -5.6      6.104      8.730
REMARK  9 active torsions:
REMARK  status: ('A' for Active; 'I' for Inactive)
REMARK    1  A    between atoms: N_1  and  C_9 
REMARK    2  A    between atoms: C_6  and  N_8 
REMARK    3  A    between atoms: N_14  and  C_25 
REMARK    4  A    between atoms: C_15  and  C_23 
REMARK    5  A    between atoms: C_15  and  C_24 
REMARK    6  A    between atoms: C_23  and  O_26 
REMARK    7  A    between atoms: C_24  and  O_27 
REMARK    8  A    between atoms: C_25  and  C_30 
REMARK    9  A    between atoms: O_28  and  C_30 
ROOT
HETATM    1  N   UNL     1     -42.454 -54.585  15.114  1.00  0.00    -0.322 N 
HETATM    2  C   UNL     1     -40.713 -55.347  16.179  1.00  0.00     0.122 A 
HETATM    3  C   UNL     1     -41.091 -54.726  14.994  1.00  0.00     0.140 A 
HETATM    4  N   UNL     1     -41.810 -55.595  16.984  1.00  0.00    -0.346 N 
ATOM      5  HN  UNL     1     -41.822 -56.048  17.898  1.00  0.00     0.167 HD
HETATM    6  C   UNL     1     -39.337 -55.639  16.377  1.00  0.00     0.135 A 
HETATM    7  C   UNL     1     -42.830 -55.121  16.314  1.00  0.00     0.185 A 
HETATM    8  N   UNL     1     -40.284 -54.370  13.979  1.00  0.00    -0.336 N 
ATOM      9  HN  UNL     1     -40.595 -53.910  13.123  1.00  0.00     0.168 HD
HETATM   10  N   UNL     1     -38.497 -55.306  15.355  1.00  0.00    -0.337 N 
ATOM     11  HN  UNL     1     -37.499 -55.507  15.420  1.00  0.00     0.168 HD
HETATM   12  C   UNL     1     -39.004 -54.704  14.251  1.00  0.00     0.183 A 
ENDROOT
BRANCH   6  13
HETATM   13  N   UNL     1     -38.857 -56.290  17.518  1.00  0.00    -0.362 N 
HETATM   14  C   UNL     1     -39.168 -57.720  17.667  1.00  0.00     0.160 C 
HETATM   15  C   UNL     1     -38.831 -58.178  19.123  1.00  0.00     0.237 C 
HETATM   16  N   UNL     1     -37.429 -57.893  19.561  1.00  0.00     0.098 N 
HETATM   17  C   UNL     1     -39.270 -59.621  19.371  1.00  0.00     0.044 C 
HETATM   18  C   UNL     1     -37.232 -56.431  19.388  1.00  0.00     0.292 C 
HETATM   19  C   UNL     1     -37.501 -55.912  17.960  1.00  0.00     0.154 C 
BRANCH  16  20
HETATM   20  C   UNL     1     -36.397 -58.681  18.853  1.00  0.00     0.299 C 
BRANCH  20  21
HETATM   21  C   UNL     1     -35.139 -58.940  19.713  1.00  0.00     0.197 C 
BRANCH  21  22
HETATM   22  O   UNL     1     -34.060 -58.091  19.309  1.00  0.00    -0.394 OA
HETATM   23  C   UNL     1     -34.031 -57.962  17.889  1.00  0.00     0.201 C 
ENDBRANCH  21  22
ENDBRANCH  20  21
ENDBRANCH  16  20
ENDBRANCH   6  13
BRANCH   1  24
HETATM   24  C   UNL     1     -43.453 -54.035  14.251  1.00  0.00     0.094 C 
HETATM   25  C   UNL     1     -44.107 -52.713  14.743  1.00  0.00     0.039 C 
HETATM   26  C   UNL     1     -45.384 -53.171  13.950  1.00  0.00     0.006 C 
HETATM   27  C   UNL     1     -44.884 -54.624  14.310  1.00  0.00     0.039 C 
BRANCH  26  28
HETATM   28  C   UNL     1     -46.702 -52.739  14.595  1.00  0.00     0.175 C 
BRANCH  28  29
HETATM   29  O   UNL     1     -46.940 -51.358  14.344  1.00  0.00    -0.400 OA
HETATM   30  H   UNL     1     -47.860 -51.280  14.019  1.00  0.00     0.209 HD
ENDBRANCH  28  29
ENDBRANCH  26  28
BRANCH  26  31
HETATM   31  C   UNL     1     -45.343 -52.766  12.464  1.00  0.00     0.175 C 
BRANCH  31  32
HETATM   32  O   UNL     1     -46.662 -52.779  11.924  1.00  0.00    -0.400 OA
HETATM   33  H   UNL     1     -46.994 -51.863  11.944  1.00  0.00     0.209 HD
ENDBRANCH  31  32
ENDBRANCH  26  31
ENDBRANCH   1  24
TORSDOF 9
ENDMDL
