MODEL 1
REMARK VINA RESULT:      -6.9      0.000      0.000
REMARK  3 active torsions:
REMARK  status: ('A' for Active; 'I' for Inactive)
REMARK    1  A    between atoms: O_2  and  C_3 
REMARK    2  A    between atoms: C_9  and  N_10 
REMARK       I    between atoms: N_10  and  C_11 
REMARK       I    between atoms: C_11  and  N_13 
REMARK    3  A    between atoms: N_13  and  C_14 
ROOT
HETATM    1  N   UNL     1     -41.691 -51.377  11.498  1.00  0.00    -0.305 N 
HETATM    2  C   UNL     1     -42.262 -52.107  12.522  1.00  0.00     0.321 C 
HETATM    3  O   UNL     1     -41.999 -51.952  13.709  1.00  0.00    -0.247 OA
HETATM    4  N   UNL     1     -43.179 -53.025  12.078  1.00  0.00    -0.336 N 
HETATM    5  H   UNL     1     -42.314 -51.079  10.758  1.00  0.00     0.171 HD
HETATM    6  H   UNL     1     -43.341 -53.096  11.084  1.00  0.00     0.164 HD
ENDROOT
BRANCH   1   7
HETATM    7  C   UNL     1     -40.562 -50.551  11.722  1.00  0.00     0.087 A 
HETATM    8  C   UNL     1     -40.512 -49.222  11.281  1.00  0.00     0.169 A 
HETATM    9  N   UNL     1     -39.432 -48.419  11.434  1.00  0.00    -0.345 N 
HETATM   10  C   UNL     1     -38.366 -48.942  12.077  1.00  0.00     0.090 A 
ATOM     11  HN  UNL     1     -39.425 -47.463  11.081  1.00  0.00     0.167 HD
HETATM   12  C   UNL     1     -38.319 -50.233  12.567  1.00  0.00     0.019 A 
HETATM   13  C   UNL     1     -39.432 -51.046  12.379  1.00  0.00     0.035 A 
BRANCH   8  14
HETATM   14  O   UNL     1     -41.658 -48.684  10.716  1.00  0.00    -0.339 OA
HETATM   15  C   UNL     1     -41.594 -47.256  10.663  1.00  0.00     0.211 C 
ENDBRANCH   8  14
ENDBRANCH   1   7
BRANCH   4  16
HETATM   16  C   UNL     1     -44.087 -53.737  12.973  1.00  0.00     0.121 C 
HETATM   17  C   UNL     1     -43.441 -54.690  13.999  1.00  0.00     0.057 C 
HETATM   18  C   UNL     1     -44.164 -54.412  15.327  1.00  0.00     0.275 C 
HETATM   19  N   UNL     1     -45.367 -53.674  14.939  1.00  0.00     0.095 N 
HETATM   20  C   UNL     1     -45.962 -52.878  16.013  1.00  0.00     0.273 C 
HETATM   21  C   UNL     1     -44.908 -52.794  13.855  1.00  0.00     0.245 C 
HETATM   22  C   UNL     1     -47.158 -52.076  15.473  1.00  0.00     0.030 C 
HETATM   23  C   UNL     1     -46.817 -51.271  14.212  1.00  0.00     0.004 C 
HETATM   24  C   UNL     1     -46.106 -52.145  13.179  1.00  0.00     0.038 C 
ENDBRANCH   4  16
TORSDOF 3
ENDMDL
MODEL 2
REMARK VINA RESULT:      -6.8      2.188      3.515
REMARK  3 active torsions:
REMARK  status: ('A' for Active; 'I' for Inactive)
REMARK    1  A    between atoms: O_2  and  C_3 
REMARK    2  A    between atoms: C_9  and  N_10 
REMARK       I    between atoms: N_10  and  C_11 
REMARK       I    between atoms: C_11  and  N_13 
REMARK    3  A    between atoms: N_13  and  C_14 
ROOT
HETATM    1  N   UNL     1     -41.977 -49.238  11.109  1.00  0.00    -0.305 N 
HETATM    2  C   UNL     1     -42.605 -49.594  12.286  1.00  0.00     0.321 C 
HETATM    3  O   UNL     1     -43.029 -48.792  13.111  1.00  0.00    -0.247 OA
HETATM    4  N   UNL     1     -42.727 -50.951  12.439  1.00  0.00    -0.336 N 
HETATM    5  H   UNL     1     -42.233 -49.769  10.285  1.00  0.00     0.171 HD
HETATM    6  H   UNL     1     -42.352 -51.548  11.716  1.00  0.00     0.164 HD
ENDROOT
BRANCH   1   7
HETATM    7  C   UNL     1     -41.548 -47.908  10.874  1.00  0.00     0.087 A 
HETATM    8  C   UNL     1     -42.288 -47.013  10.090  1.00  0.00     0.169 A 
HETATM    9  N   UNL     1     -41.885 -45.752   9.805  1.00  0.00    -0.345 N 
HETATM   10  C   UNL     1     -40.714 -45.347  10.341  1.00  0.00     0.090 A 
ATOM     11  HN  UNL     1     -42.442 -45.137   9.212  1.00  0.00     0.167 HD
HETATM   12  C   UNL     1     -39.918 -46.142  11.142  1.00  0.00     0.019 A 
HETATM   13  C   UNL     1     -40.341 -47.441  11.404  1.00  0.00     0.035 A 
BRANCH   8  14
HETATM   14  O   UNL     1     -43.533 -47.426   9.639  1.00  0.00    -0.339 OA
HETATM   15  C   UNL     1     -43.549 -47.577   8.217  1.00  0.00     0.211 C 
ENDBRANCH   8  14
ENDBRANCH   1   7
BRANCH   4  16
HETATM   16  C   UNL     1     -43.563 -51.562  13.468  1.00  0.00     0.121 C 
HETATM   17  C   UNL     1     -45.067 -51.689  13.153  1.00  0.00     0.057 C 
HETATM   18  C   UNL     1     -45.458 -53.110  13.594  1.00  0.00     0.275 C 
HETATM   19  N   UNL     1     -44.351 -53.542  14.449  1.00  0.00     0.095 N 
HETATM   20  C   UNL     1     -44.232 -54.994  14.595  1.00  0.00     0.273 C 
HETATM   21  C   UNL     1     -43.158 -53.003  13.783  1.00  0.00     0.245 C 
HETATM   22  C   UNL     1     -42.987 -55.337  15.431  1.00  0.00     0.030 C 
HETATM   23  C   UNL     1     -41.714 -54.652  14.918  1.00  0.00     0.004 C 
HETATM   24  C   UNL     1     -41.948 -53.158  14.692  1.00  0.00     0.038 C 
ENDBRANCH   4  16
TORSDOF 3
ENDMDL
MODEL 3
REMARK VINA RESULT:      -6.8      1.764      6.968
REMARK  3 active torsions:
REMARK  status: ('A' for Active; 'I' for Inactive)
REMARK    1  A    between atoms: O_2  and  C_3 
REMARK    2  A    between atoms: C_9  and  N_10 
REMARK       I    between atoms: N_10  and  C_11 
REMARK       I    between atoms: C_11  and  N_13 
REMARK    3  A    between atoms: N_13  and  C_14 
ROOT
HETATM    1  N   UNL     1     -43.499 -52.254  12.241  1.00  0.00    -0.305 N 
HETATM    2  C   UNL     1     -42.949 -51.144  12.854  1.00  0.00     0.321 C 
HETATM    3  O   UNL     1     -43.018 -50.916  14.056  1.00  0.00    -0.247 OA
HETATM    4  N   UNL     1     -42.294 -50.318  11.977  1.00  0.00    -0.336 N 
HETATM    5  H   UNL     1     -42.933 -52.700  11.530  1.00  0.00     0.171 HD
HETATM    6  H   UNL     1     -42.282 -50.573  11.001  1.00  0.00     0.164 HD
ENDROOT
BRANCH   1   7
HETATM    7  C   UNL     1     -44.406 -53.099  12.925  1.00  0.00     0.087 A 
HETATM    8  C   UNL     1     -45.750 -52.752  13.118  1.00  0.00     0.169 A 
HETATM    9  N   UNL     1     -46.632 -53.513  13.807  1.00  0.00    -0.345 N 
HETATM   10  C   UNL     1     -46.176 -54.682  14.305  1.00  0.00     0.090 A 
ATOM     11  HN  UNL     1     -47.598 -53.216  13.945  1.00  0.00     0.167 HD
HETATM   12  C   UNL     1     -44.877 -55.127  14.156  1.00  0.00     0.019 A 
HETATM   13  C   UNL     1     -43.982 -54.319  13.462  1.00  0.00     0.035 A 
BRANCH   8  14
HETATM   14  O   UNL     1     -46.212 -51.595  12.508  1.00  0.00    -0.339 OA
HETATM   15  C   UNL     1     -47.095 -51.894  11.424  1.00  0.00     0.211 C 
ENDBRANCH   8  14
ENDBRANCH   1   7
BRANCH   4  16
HETATM   16  C   UNL     1     -41.431 -49.224  12.413  1.00  0.00     0.121 C 
HETATM   17  C   UNL     1     -39.921 -49.524  12.494  1.00  0.00     0.057 C 
HETATM   18  C   UNL     1     -39.228 -48.309  11.853  1.00  0.00     0.275 C 
HETATM   19  N   UNL     1     -40.265 -47.277  11.817  1.00  0.00     0.095 N 
HETATM   20  C   UNL     1     -40.029 -46.216  10.836  1.00  0.00     0.273 C 
HETATM   21  C   UNL     1     -41.488 -48.016  11.476  1.00  0.00     0.245 C 
HETATM   22  C   UNL     1     -41.220 -45.243  10.818  1.00  0.00     0.030 C 
HETATM   23  C   UNL     1     -42.571 -45.952  10.661  1.00  0.00     0.004 C 
HETATM   24  C   UNL     1     -42.699 -47.112  11.650  1.00  0.00     0.038 C 
ENDBRANCH   4  16
TORSDOF 3
ENDMDL
MODEL 4
REMARK VINA RESULT:      -6.7      1.155      2.041
REMARK  3 active torsions:
REMARK  status: ('A' for Active; 'I' for Inactive)
REMARK    1  A    between atoms: O_2  and  C_3 
REMARK    2  A    between atoms: C_9  and  N_10 
REMARK       I    between atoms: N_10  and  C_11 
REMARK       I    between atoms: C_11  and  N_13 
REMARK    3  A    between atoms: N_13  and  C_14 
ROOT
HETATM    1  N   UNL     1     -41.387 -51.326  11.359  1.00  0.00    -0.305 N 
HETATM    2  C   UNL     1     -42.072 -51.870  12.428  1.00  0.00     0.321 C 
HETATM    3  O   UNL     1     -42.305 -51.272  13.473  1.00  0.00    -0.247 OA
HETATM    4  N   UNL     1     -42.486 -53.157  12.200  1.00  0.00    -0.336 N 
HETATM    5  H   UNL     1     -41.757 -51.530  10.438  1.00  0.00     0.171 HD
HETATM    6  H   UNL     1     -42.254 -53.582  11.315  1.00  0.00     0.164 HD
ENDROOT
BRANCH   1   7
HETATM    7  C   UNL     1     -40.679 -50.105  11.480  1.00  0.00     0.087 A 
HETATM    8  C   UNL     1     -39.364 -50.049  11.959  1.00  0.00     0.169 A 
HETATM    9  N   UNL     1     -38.675 -48.896  12.133  1.00  0.00    -0.345 N 
HETATM   10  C   UNL     1     -39.303 -47.750  11.793  1.00  0.00     0.090 A 
ATOM     11  HN  UNL     1     -37.726 -48.894  12.505  1.00  0.00     0.167 HD
HETATM   12  C   UNL     1     -40.590 -47.695  11.295  1.00  0.00     0.019 A 
HETATM   13  C   UNL     1     -41.286 -48.890  11.144  1.00  0.00     0.035 A 
BRANCH   8  14
HETATM   14  O   UNL     1     -38.713 -51.249  12.203  1.00  0.00    -0.339 OA
HETATM   15  C   UNL     1     -37.518 -51.049  12.963  1.00  0.00     0.211 C 
ENDBRANCH   8  14
ENDBRANCH   1   7
BRANCH   4  16
HETATM   16  C   UNL     1     -43.430 -53.852  13.070  1.00  0.00     0.121 C 
HETATM   17  C   UNL     1     -42.837 -54.572  14.298  1.00  0.00     0.057 C 
HETATM   18  C   UNL     1     -43.766 -54.214  15.470  1.00  0.00     0.275 C 
HETATM   19  N   UNL     1     -44.974 -53.691  14.830  1.00  0.00     0.095 N 
HETATM   20  C   UNL     1     -45.797 -52.842  15.692  1.00  0.00     0.273 C 
HETATM   21  C   UNL     1     -44.463 -52.912  13.694  1.00  0.00     0.245 C 
HETATM   22  C   UNL     1     -46.983 -52.275  14.894  1.00  0.00     0.030 C 
HETATM   23  C   UNL     1     -46.556 -51.607  13.580  1.00  0.00     0.004 C 
HETATM   24  C   UNL     1     -45.616 -52.514  12.785  1.00  0.00     0.038 C 
ENDBRANCH   4  16
TORSDOF 3
ENDMDL
MODEL 5
REMARK VINA RESULT:      -6.6      1.972      2.602
REMARK  3 active torsions:
REMARK  status: ('A' for Active; 'I' for Inactive)
REMARK    1  A    between atoms: O_2  and  C_3 
REMARK    2  A    between atoms: C_9  and  N_10 
REMARK       I    between atoms: N_10  and  C_11 
REMARK       I    between atoms: C_11  and  N_13 
REMARK    3  A    between atoms: N_13  and  C_14 
ROOT
HETATM    1  N   UNL     1     -41.768 -49.583  10.959  1.00  0.00    -0.305 N 
HETATM    2  C   UNL     1     -42.162 -50.109  12.174  1.00  0.00     0.321 C 
HETATM    3  O   UNL     1     -42.463 -49.434  13.152  1.00  0.00    -0.247 OA
HETATM    4  N   UNL     1     -42.200 -51.479  12.177  1.00  0.00    -0.336 N 
HETATM    5  H   UNL     1     -42.145 -50.031  10.133  1.00  0.00     0.171 HD
HETATM    6  H   UNL     1     -41.936 -51.966  11.333  1.00  0.00     0.164 HD
ENDROOT
BRANCH   1   7
HETATM    7  C   UNL     1     -41.442 -48.212  10.819  1.00  0.00     0.087 A 
HETATM    8  C   UNL     1     -42.244 -47.324  10.090  1.00  0.00     0.169 A 
HETATM    9  N   UNL     1     -41.938 -46.020   9.895  1.00  0.00    -0.345 N 
HETATM   10  C   UNL     1     -40.804 -45.564  10.470  1.00  0.00     0.090 A 
ATOM     11  HN  UNL     1     -42.536 -45.409   9.339  1.00  0.00     0.167 HD
HETATM   12  C   UNL     1     -39.953 -46.349  11.224  1.00  0.00     0.019 A 
HETATM   13  C   UNL     1     -40.277 -47.691  11.393  1.00  0.00     0.035 A 
BRANCH   8  14
HETATM   14  O   UNL     1     -43.451 -47.799   9.598  1.00  0.00    -0.339 OA
HETATM   15  C   UNL     1     -43.589 -47.524   8.202  1.00  0.00     0.211 C 
ENDBRANCH   8  14
ENDBRANCH   1   7
BRANCH   4  16
HETATM   16  C   UNL     1     -42.814 -52.253  13.253  1.00  0.00     0.121 C 
HETATM   17  C   UNL     1     -42.034 -52.333  14.580  1.00  0.00     0.057 C 
HETATM   18  C   UNL     1     -43.080 -52.100  15.683  1.00  0.00     0.275 C 
HETATM   19  N   UNL     1     -44.366 -52.295  15.012  1.00  0.00     0.095 N 
HETATM   20  C   UNL     1     -45.503 -51.667  15.686  1.00  0.00     0.273 C 
HETATM   21  C   UNL     1     -44.169 -51.692  13.687  1.00  0.00     0.245 C 
HETATM   22  C   UNL     1     -46.779 -51.854  14.850  1.00  0.00     0.030 C 
HETATM   23  C   UNL     1     -46.605 -51.427  13.387  1.00  0.00     0.004 C 
HETATM   24  C   UNL     1     -45.341 -52.042  12.784  1.00  0.00     0.038 C 
ENDBRANCH   4  16
TORSDOF 3
ENDMDL
MODEL 6
REMARK VINA RESULT:      -6.6      2.168      3.808
REMARK  3 active torsions:
REMARK  status: ('A' for Active; 'I' for Inactive)
REMARK    1  A    between atoms: O_2  and  C_3 
REMARK    2  A    between atoms: C_9  and  N_10 
REMARK       I    between atoms: N_10  and  C_11 
REMARK       I    between atoms: C_11  and  N_13 
REMARK    3  A    between atoms: N_13  and  C_14 
ROOT
HETATM    1  N   UNL     1     -41.363 -48.894  10.542  1.00  0.00    -0.305 N 
HETATM    2  C   UNL     1     -41.173 -49.723  11.631  1.00  0.00     0.321 C 
HETATM    3  O   UNL     1     -41.353 -49.384  12.794  1.00  0.00    -0.247 OA
HETATM    4  N   UNL     1     -40.772 -50.986  11.277  1.00  0.00    -0.336 N 
HETATM    5  H   UNL     1     -41.816 -49.308   9.736  1.00  0.00     0.171 HD
HETATM    6  H   UNL     1     -40.643 -51.189  10.297  1.00  0.00     0.164 HD
ENDROOT
BRANCH   1   7
HETATM    7  C   UNL     1     -41.548 -47.499  10.701  1.00  0.00     0.087 A 
HETATM    8  C   UNL     1     -42.818 -46.906  10.675  1.00  0.00     0.169 A 
HETATM    9  N   UNL     1     -43.027 -45.572  10.775  1.00  0.00    -0.345 N 
HETATM   10  C   UNL     1     -41.938 -44.791  10.936  1.00  0.00     0.090 A 
ATOM     11  HN  UNL     1     -43.966 -45.176  10.731  1.00  0.00     0.167 HD
HETATM   12  C   UNL     1     -40.645 -45.274  10.992  1.00  0.00     0.019 A 
HETATM   13  C   UNL     1     -40.452 -46.645  10.867  1.00  0.00     0.035 A 
BRANCH   8  14
HETATM   14  O   UNL     1     -43.921 -47.744  10.611  1.00  0.00    -0.339 OA
HETATM   15  C   UNL     1     -44.784 -47.389   9.528  1.00  0.00     0.211 C 
ENDBRANCH   8  14
ENDBRANCH   1   7
BRANCH   4  16
HETATM   16  C   UNL     1     -40.744 -52.101  12.220  1.00  0.00     0.121 C 
HETATM   17  C   UNL     1     -39.753 -51.989  13.395  1.00  0.00     0.057 C 
HETATM   18  C   UNL     1     -40.541 -52.437  14.638  1.00  0.00     0.275 C 
HETATM   19  N   UNL     1     -41.717 -53.120  14.096  1.00  0.00     0.095 N 
HETATM   20  C   UNL     1     -42.847 -53.206  15.022  1.00  0.00     0.273 C 
HETATM   21  C   UNL     1     -42.085 -52.315  12.924  1.00  0.00     0.245 C 
HETATM   22  C   UNL     1     -44.052 -53.855  14.322  1.00  0.00     0.030 C 
HETATM   23  C   UNL     1     -44.391 -53.194  12.980  1.00  0.00     0.004 C 
HETATM   24  C   UNL     1     -43.142 -53.046  12.111  1.00  0.00     0.038 C 
ENDBRANCH   4  16
TORSDOF 3
ENDMDL
MODEL 7
REMARK VINA RESULT:      -6.6      1.889      7.093
REMARK  3 active torsions:
REMARK  status: ('A' for Active; 'I' for Inactive)
REMARK    1  A    between atoms: O_2  and  C_3 
REMARK    2  A    between atoms: C_9  and  N_10 
REMARK       I    between atoms: N_10  and  C_11 
REMARK       I    between atoms: C_11  and  N_13 
REMARK    3  A    between atoms: N_13  and  C_14 
ROOT
HETATM    1  N   UNL     1     -41.839 -52.941  12.055  1.00  0.00    -0.305 N 
HETATM    2  C   UNL     1     -41.601 -51.584  12.164  1.00  0.00     0.321 C 
HETATM    3  O   UNL     1     -42.034 -50.880  13.069  1.00  0.00    -0.247 OA
HETATM    4  N   UNL     1     -40.810 -51.097  11.156  1.00  0.00    -0.336 N 
HETATM    5  H   UNL     1     -41.051 -53.513  11.776  1.00  0.00     0.171 HD
HETATM    6  H   UNL     1     -40.493 -51.739  10.445  1.00  0.00     0.164 HD
ENDROOT
BRANCH   1   7
HETATM    7  C   UNL     1     -42.813 -53.586  12.855  1.00  0.00     0.087 A 
HETATM    8  C   UNL     1     -42.474 -54.317  14.001  1.00  0.00     0.169 A 
HETATM    9  N   UNL     1     -43.374 -54.986  14.761  1.00  0.00    -0.345 N 
HETATM   10  C   UNL     1     -44.669 -54.907  14.389  1.00  0.00     0.090 A 
ATOM     11  HN  UNL     1     -43.085 -55.525  15.577  1.00  0.00     0.167 HD
HETATM   12  C   UNL     1     -45.112 -54.200  13.288  1.00  0.00     0.019 A 
HETATM   13  C   UNL     1     -44.168 -53.538  12.511  1.00  0.00     0.035 A 
BRANCH   8  14
HETATM   14  O   UNL     1     -41.150 -54.294  14.413  1.00  0.00    -0.339 OA
HETATM   15  C   UNL     1     -41.012 -54.777  15.752  1.00  0.00     0.211 C 
ENDBRANCH   8  14
ENDBRANCH   1   7
BRANCH   4  16
HETATM   16  C   UNL     1     -40.222 -49.760  11.186  1.00  0.00     0.121 C 
HETATM   17  C   UNL     1     -41.196 -48.573  11.048  1.00  0.00     0.057 C 
HETATM   18  C   UNL     1     -40.755 -47.557  12.115  1.00  0.00     0.275 C 
HETATM   19  N   UNL     1     -39.412 -47.993  12.499  1.00  0.00     0.095 N 
HETATM   20  C   UNL     1     -38.972 -47.514  13.810  1.00  0.00     0.273 C 
HETATM   21  C   UNL     1     -39.503 -49.459  12.501  1.00  0.00     0.245 C 
HETATM   22  C   UNL     1     -37.594 -48.105  14.150  1.00  0.00     0.030 C 
HETATM   23  C   UNL     1     -37.540 -49.630  13.990  1.00  0.00     0.004 C 
HETATM   24  C   UNL     1     -38.111 -50.059  12.638  1.00  0.00     0.038 C 
ENDBRANCH   4  16
TORSDOF 3
ENDMDL
MODEL 8
REMARK VINA RESULT:      -6.4      1.716      6.819
REMARK  3 active torsions:
REMARK  status: ('A' for Active; 'I' for Inactive)
REMARK    1  A    between atoms: O_2  and  C_3 
REMARK    2  A    between atoms: C_9  and  N_10 
REMARK       I    between atoms: N_10  and  C_11 
REMARK       I    between atoms: C_11  and  N_13 
REMARK    3  A    between atoms: N_13  and  C_14 
ROOT
HETATM    1  N   UNL     1     -41.744 -53.076  12.190  1.00  0.00    -0.305 N 
HETATM    2  C   UNL     1     -41.479 -51.727  12.330  1.00  0.00     0.321 C 
HETATM    3  O   UNL     1     -41.664 -51.093  13.362  1.00  0.00    -0.247 OA
HETATM    4  N   UNL     1     -40.965 -51.162  11.192  1.00  0.00    -0.336 N 
HETATM    5  H   UNL     1     -41.056 -53.618  11.681  1.00  0.00     0.171 HD
HETATM    6  H   UNL     1     -40.842 -51.749  10.381  1.00  0.00     0.164 HD
ENDROOT
BRANCH   1   7
HETATM    7  C   UNL     1     -42.489 -53.786  13.163  1.00  0.00     0.087 A 
HETATM    8  C   UNL     1     -43.887 -53.870  13.118  1.00  0.00     0.169 A 
HETATM    9  N   UNL     1     -44.633 -54.499  14.057  1.00  0.00    -0.345 N 
HETATM   10  C   UNL     1     -43.969 -55.095  15.070  1.00  0.00     0.090 A 
ATOM     11  HN  UNL     1     -45.651 -54.520  14.002  1.00  0.00     0.167 HD
HETATM   12  C   UNL     1     -42.593 -55.089  15.198  1.00  0.00     0.019 A 
HETATM   13  C   UNL     1     -41.848 -54.419  14.233  1.00  0.00     0.035 A 
BRANCH   8  14
HETATM   14  O   UNL     1     -44.531 -53.334  12.013  1.00  0.00    -0.339 OA
HETATM   15  C   UNL     1     -45.726 -52.645  12.390  1.00  0.00     0.211 C 
ENDBRANCH   8  14
ENDBRANCH   1   7
BRANCH   4  16
HETATM   16  C   UNL     1     -40.381 -49.824  11.165  1.00  0.00     0.121 C 
HETATM   17  C   UNL     1     -41.364 -48.642  11.049  1.00  0.00     0.057 C 
HETATM   18  C   UNL     1     -40.877 -47.602  12.072  1.00  0.00     0.275 C 
HETATM   19  N   UNL     1     -39.515 -48.027  12.401  1.00  0.00     0.095 N 
HETATM   20  C   UNL     1     -39.015 -47.520  13.680  1.00  0.00     0.273 C 
HETATM   21  C   UNL     1     -39.601 -49.493  12.439  1.00  0.00     0.245 C 
HETATM   22  C   UNL     1     -37.620 -48.101  13.966  1.00  0.00     0.030 C 
HETATM   23  C   UNL     1     -37.569 -49.628  13.835  1.00  0.00     0.004 C 
HETATM   24  C   UNL     1     -38.202 -50.087  12.521  1.00  0.00     0.038 C 
ENDBRANCH   4  16
TORSDOF 3
ENDMDL
MODEL 9
REMARK VINA RESULT:      -6.4      3.100      5.449
REMARK  3 active torsions:
REMARK  status: ('A' for Active; 'I' for Inactive)
REMARK    1  A    between atoms: O_2  and  C_3 
REMARK    2  A    between atoms: C_9  and  N_10 
REMARK       I    between atoms: N_10  and  C_11 
REMARK       I    between atoms: C_11  and  N_13 
REMARK    3  A    between atoms: N_13  and  C_14 
ROOT
HETATM    1  N   UNL     1     -41.970 -48.207   9.608  1.00  0.00    -0.305 N 
HETATM    2  C   UNL     1     -41.605 -48.607  10.879  1.00  0.00     0.321 C 
HETATM    3  O   UNL     1     -42.281 -48.412  11.883  1.00  0.00    -0.247 OA
HETATM    4  N   UNL     1     -40.404 -49.266  10.909  1.00  0.00    -0.336 N 
HETATM    5  H   UNL     1     -41.794 -48.869   8.862  1.00  0.00     0.171 HD
HETATM    6  H   UNL     1     -39.904 -49.386  10.040  1.00  0.00     0.164 HD
ENDROOT
BRANCH   1   7
HETATM    7  C   UNL     1     -43.050 -47.316   9.397  1.00  0.00     0.087 A 
HETATM    8  C   UNL     1     -42.929 -45.934   9.598  1.00  0.00     0.169 A 
HETATM    9  N   UNL     1     -43.952 -45.060   9.453  1.00  0.00    -0.345 N 
HETATM   10  C   UNL     1     -45.141 -45.567   9.064  1.00  0.00     0.090 A 
ATOM     11  HN  UNL     1     -43.830 -44.063   9.630  1.00  0.00     0.167 HD
HETATM   12  C   UNL     1     -45.364 -46.909   8.821  1.00  0.00     0.019 A 
HETATM   13  C   UNL     1     -44.303 -47.791   8.997  1.00  0.00     0.035 A 
BRANCH   8  14
HETATM   14  O   UNL     1     -41.671 -45.433   9.899  1.00  0.00    -0.339 OA
HETATM   15  C   UNL     1     -41.695 -44.642  11.090  1.00  0.00     0.211 C 
ENDBRANCH   8  14
ENDBRANCH   1   7
BRANCH   4  16
HETATM   16  C   UNL     1     -39.927 -49.994  12.082  1.00  0.00     0.121 C 
HETATM   17  C   UNL     1     -39.496 -49.145  13.294  1.00  0.00     0.057 C 
HETATM   18  C   UNL     1     -40.113 -49.839  14.520  1.00  0.00     0.275 C 
HETATM   19  N   UNL     1     -40.487 -51.168  14.034  1.00  0.00     0.095 N 
HETATM   20  C   UNL     1     -41.513 -51.838  14.834  1.00  0.00     0.273 C 
HETATM   21  C   UNL     1     -40.989 -50.920  12.676  1.00  0.00     0.245 C 
HETATM   22  C   UNL     1     -41.895 -53.178  14.184  1.00  0.00     0.030 C 
HETATM   23  C   UNL     1     -42.249 -53.043  12.697  1.00  0.00     0.004 C 
HETATM   24  C   UNL     1     -41.181 -52.244  11.950  1.00  0.00     0.038 C 
ENDBRANCH   4  16
TORSDOF 3
ENDMDL
