MODEL 1
REMARK VINA RESULT:      -5.9      0.000      0.000
REMARK  5 active torsions:
REMARK  status: ('A' for Active; 'I' for Inactive)
REMARK       I    between atoms: N_1  and  C_2 
REMARK    1  A    between atoms: C_2  and  C_4 
REMARK    2  A    between atoms: N_8  and  C_9 
REMARK    3  A    between atoms: C_9  and  C_10 
REMARK    4  A    between atoms: C_10  and  O_11 
REMARK    5  A    between atoms: O_11  and  C_12 
ROOT
HETATM    1  C   UNL     1     -44.959 -47.755   8.778  1.00  0.00     0.065 A 
HETATM    2  C   UNL     1     -43.808 -47.758   7.959  1.00  0.00     0.125 A 
HETATM    3  N   UNL     1     -42.716 -47.326   8.591  1.00  0.00    -0.309 N 
ATOM      4  HN  UNL     1     -41.773 -47.218   8.218  1.00  0.00     0.186 HD
HETATM    5  N   UNL     1     -43.151 -47.064   9.838  1.00  0.00    -0.301 N 
HETATM    6  C   UNL     1     -44.482 -47.316  10.003  1.00  0.00     0.128 A 
ENDROOT
BRANCH   5   7
HETATM    7  C   UNL     1     -42.200 -46.627  10.846  1.00  0.00     0.175 C 
BRANCH   7   8
HETATM    8  C   UNL     1     -41.828 -47.784  11.769  1.00  0.00     0.197 C 
BRANCH   8   9
HETATM    9  O   UNL     1     -41.305 -48.886  11.022  1.00  0.00    -0.348 OA
BRANCH   9  10
HETATM   10  C   UNL     1     -40.252 -49.561  11.593  1.00  0.00     0.090 A 
HETATM   11  C   UNL     1     -39.085 -48.781  11.707  1.00  0.00     0.041 A 
HETATM   12  C   UNL     1     -37.930 -49.290  12.310  1.00  0.00     0.045 A 
HETATM   13  C   UNL     1     -37.936 -50.583  12.804  1.00  0.00     0.118 A 
HETATM   14  F   UNL     1     -36.840 -51.074  13.395  1.00  0.00    -0.206 F 
HETATM   15  C   UNL     1     -39.073 -51.371  12.718  1.00  0.00     0.069 A 
HETATM   16  C   UNL     1     -40.237 -50.863  12.126  1.00  0.00     0.070 A 
HETATM   17 CL   UNL     1     -41.601 -51.921  12.207  1.00  0.00    -0.081 Cl
ENDBRANCH   9  10
ENDBRANCH   8   9
ENDBRANCH   7   8
ENDBRANCH   5   7
BRANCH   1  18
HETATM   18  C   UNL     1     -46.332 -48.116   8.480  1.00  0.00     0.252 C 
HETATM   19  N   UNL     1     -47.299 -47.402   9.125  1.00  0.00    -0.366 N 
HETATM   20  H   UNL     1     -48.257 -47.686   8.973  1.00  0.00     0.159 HD
HETATM   21  H   UNL     1     -47.111 -46.712   9.838  1.00  0.00     0.159 HD
HETATM   22  O   UNL     1     -46.640 -49.019   7.710  1.00  0.00    -0.268 OA
ENDBRANCH   1  18
TORSDOF 5
ENDMDL
MODEL 2
REMARK VINA RESULT:      -5.9      3.208      3.837
REMARK  5 active torsions:
REMARK  status: ('A' for Active; 'I' for Inactive)
REMARK       I    between atoms: N_1  and  C_2 
REMARK    1  A    between atoms: C_2  and  C_4 
REMARK    2  A    between atoms: N_8  and  C_9 
REMARK    3  A    between atoms: C_9  and  C_10 
REMARK    4  A    between atoms: C_10  and  O_11 
REMARK    5  A    between atoms: O_11  and  C_12 
ROOT
HETATM    1  C   UNL     1     -44.800 -47.654   9.192  1.00  0.00     0.065 A 
HETATM    2  C   UNL     1     -43.683 -47.357   8.380  1.00  0.00     0.125 A 
HETATM    3  N   UNL     1     -42.538 -47.311   9.064  1.00  0.00    -0.309 N 
ATOM      4  HN  UNL     1     -41.603 -47.101   8.715  1.00  0.00     0.186 HD
HETATM    5  N   UNL     1     -42.908 -47.606  10.325  1.00  0.00    -0.301 N 
HETATM    6  C   UNL     1     -44.248 -47.831  10.450  1.00  0.00     0.128 A 
ENDROOT
BRANCH   5   7
HETATM    7  C   UNL     1     -41.891 -47.715  11.357  1.00  0.00     0.175 C 
BRANCH   7   8
HETATM    8  C   UNL     1     -41.488 -49.172  11.562  1.00  0.00     0.197 C 
BRANCH   8   9
HETATM    9  O   UNL     1     -41.879 -49.633  12.859  1.00  0.00    -0.348 OA
BRANCH   9  10
HETATM   10  C   UNL     1     -42.727 -50.716  12.887  1.00  0.00     0.090 A 
HETATM   11  C   UNL     1     -44.045 -50.384  13.253  1.00  0.00     0.041 A 
HETATM   12  C   UNL     1     -45.054 -51.354  13.285  1.00  0.00     0.045 A 
HETATM   13  C   UNL     1     -44.748 -52.661  12.951  1.00  0.00     0.118 A 
HETATM   14  F   UNL     1     -45.709 -53.592  12.966  1.00  0.00    -0.206 F 
HETATM   15  C   UNL     1     -43.463 -53.016  12.575  1.00  0.00     0.069 A 
HETATM   16  C   UNL     1     -42.451 -52.048  12.527  1.00  0.00     0.070 A 
HETATM   17 CL   UNL     1     -40.938 -52.623  11.922  1.00  0.00    -0.081 Cl
ENDBRANCH   9  10
ENDBRANCH   8   9
ENDBRANCH   7   8
ENDBRANCH   5   7
BRANCH   1  18
HETATM   18  C   UNL     1     -46.207 -47.770   8.858  1.00  0.00     0.252 C 
HETATM   19  N   UNL     1     -46.651 -49.017   8.532  1.00  0.00    -0.366 N 
HETATM   20  H   UNL     1     -47.615 -49.099   8.237  1.00  0.00     0.159 HD
HETATM   21  H   UNL     1     -46.051 -49.823   8.435  1.00  0.00     0.159 HD
HETATM   22  O   UNL     1     -46.978 -46.816   8.843  1.00  0.00    -0.268 OA
ENDBRANCH   1  18
TORSDOF 5
ENDMDL
MODEL 3
REMARK VINA RESULT:      -5.8      1.789      2.172
REMARK  5 active torsions:
REMARK  status: ('A' for Active; 'I' for Inactive)
REMARK       I    between atoms: N_1  and  C_2 
REMARK    1  A    between atoms: C_2  and  C_4 
REMARK    2  A    between atoms: N_8  and  C_9 
REMARK    3  A    between atoms: C_9  and  C_10 
REMARK    4  A    between atoms: C_10  and  O_11 
REMARK    5  A    between atoms: O_11  and  C_12 
ROOT
HETATM    1  C   UNL     1     -44.686 -47.292   9.140  1.00  0.00     0.065 A 
HETATM    2  C   UNL     1     -43.595 -46.711   8.458  1.00  0.00     0.125 A 
HETATM    3  N   UNL     1     -42.549 -46.475   9.251  1.00  0.00    -0.309 N 
ATOM      4  HN  UNL     1     -41.655 -46.050   9.006  1.00  0.00     0.186 HD
HETATM    5  N   UNL     1     -42.951 -46.931  10.453  1.00  0.00    -0.301 N 
HETATM    6  C   UNL     1     -44.216 -47.440  10.435  1.00  0.00     0.128 A 
ENDROOT
BRANCH   5   7
HETATM    7  C   UNL     1     -42.024 -46.898  11.572  1.00  0.00     0.175 C 
BRANCH   7   8
HETATM    8  C   UNL     1     -40.694 -47.536  11.185  1.00  0.00     0.197 C 
BRANCH   8   9
HETATM    9  O   UNL     1     -40.881 -48.886  10.749  1.00  0.00    -0.348 OA
BRANCH   9  10
HETATM   10  C   UNL     1     -40.523 -49.867  11.644  1.00  0.00     0.090 A 
HETATM   11  C   UNL     1     -41.620 -50.590  12.149  1.00  0.00     0.041 A 
HETATM   12  C   UNL     1     -41.437 -51.659  13.034  1.00  0.00     0.045 A 
HETATM   13  C   UNL     1     -40.155 -52.010  13.418  1.00  0.00     0.118 A 
HETATM   14  F   UNL     1     -39.970 -53.039  14.253  1.00  0.00    -0.206 F 
HETATM   15  C   UNL     1     -39.055 -51.326  12.928  1.00  0.00     0.069 A 
HETATM   16  C   UNL     1     -39.229 -50.263  12.032  1.00  0.00     0.070 A 
HETATM   17 CL   UNL     1     -37.758 -49.595  11.419  1.00  0.00    -0.081 Cl
ENDBRANCH   9  10
ENDBRANCH   8   9
ENDBRANCH   7   8
ENDBRANCH   5   7
BRANCH   1  18
HETATM   18  C   UNL     1     -46.002 -47.675   8.665  1.00  0.00     0.252 C 
HETATM   19  N   UNL     1     -46.053 -48.743   7.818  1.00  0.00    -0.366 N 
HETATM   20  H   UNL     1     -46.956 -48.980   7.432  1.00  0.00     0.159 HD
HETATM   21  H   UNL     1     -45.238 -49.213   7.452  1.00  0.00     0.159 HD
HETATM   22  O   UNL     1     -47.031 -47.084   8.975  1.00  0.00    -0.268 OA
ENDBRANCH   1  18
TORSDOF 5
ENDMDL
MODEL 4
REMARK VINA RESULT:      -5.8      3.731      4.995
REMARK  5 active torsions:
REMARK  status: ('A' for Active; 'I' for Inactive)
REMARK       I    between atoms: N_1  and  C_2 
REMARK    1  A    between atoms: C_2  and  C_4 
REMARK    2  A    between atoms: N_8  and  C_9 
REMARK    3  A    between atoms: C_9  and  C_10 
REMARK    4  A    between atoms: C_10  and  O_11 
REMARK    5  A    between atoms: O_11  and  C_12 
ROOT
HETATM    1  C   UNL     1     -41.173 -47.051  10.914  1.00  0.00     0.065 A 
HETATM    2  C   UNL     1     -41.674 -48.261  10.386  1.00  0.00     0.125 A 
HETATM    3  N   UNL     1     -40.897 -49.311  10.658  1.00  0.00    -0.309 N 
ATOM      4  HN  UNL     1     -41.029 -50.283  10.376  1.00  0.00     0.186 HD
HETATM    5  N   UNL     1     -39.897 -48.786  11.392  1.00  0.00    -0.301 N 
HETATM    6  C   UNL     1     -40.024 -47.442  11.582  1.00  0.00     0.128 A 
ENDROOT
BRANCH   5   7
HETATM    7  C   UNL     1     -38.875 -49.666  11.933  1.00  0.00     0.175 C 
BRANCH   7   8
HETATM    8  C   UNL     1     -39.504 -50.741  12.813  1.00  0.00     0.197 C 
BRANCH   8   9
HETATM    9  O   UNL     1     -39.986 -51.832  12.023  1.00  0.00    -0.348 OA
BRANCH   9  10
HETATM   10  C   UNL     1     -40.954 -52.620  12.603  1.00  0.00     0.090 A 
HETATM   11  C   UNL     1     -42.257 -52.313  12.168  1.00  0.00     0.041 A 
HETATM   12  C   UNL     1     -43.361 -53.047  12.617  1.00  0.00     0.045 A 
HETATM   13  C   UNL     1     -43.166 -54.093  13.503  1.00  0.00     0.118 A 
HETATM   14  F   UNL     1     -44.214 -54.809  13.926  1.00  0.00    -0.206 F 
HETATM   15  C   UNL     1     -41.894 -54.426  13.938  1.00  0.00     0.069 A 
HETATM   16  C   UNL     1     -40.783 -53.704  13.483  1.00  0.00     0.070 A 
HETATM   17 CL   UNL     1     -39.260 -54.319  14.020  1.00  0.00    -0.081 Cl
ENDBRANCH   9  10
ENDBRANCH   8   9
ENDBRANCH   7   8
ENDBRANCH   5   7
BRANCH   1  18
HETATM   18  C   UNL     1     -41.687 -45.697  10.826  1.00  0.00     0.252 C 
HETATM   19  N   UNL     1     -42.848 -45.446  11.497  1.00  0.00    -0.366 N 
HETATM   20  H   UNL     1     -43.248 -44.523  11.391  1.00  0.00     0.159 HD
HETATM   21  H   UNL     1     -43.393 -46.153  11.967  1.00  0.00     0.159 HD
HETATM   22  O   UNL     1     -41.141 -44.809  10.181  1.00  0.00    -0.268 OA
ENDBRANCH   1  18
TORSDOF 5
ENDMDL
MODEL 5
REMARK VINA RESULT:      -5.7      5.031      6.340
REMARK  5 active torsions:
REMARK  status: ('A' for Active; 'I' for Inactive)
REMARK       I    between atoms: N_1  and  C_2 
REMARK    1  A    between atoms: C_2  and  C_4 
REMARK    2  A    between atoms: N_8  and  C_9 
REMARK    3  A    between atoms: C_9  and  C_10 
REMARK    4  A    between atoms: C_10  and  O_11 
REMARK    5  A    between atoms: O_11  and  C_12 
ROOT
HETATM    1  C   UNL     1     -44.534 -54.090  14.007  1.00  0.00     0.065 A 
HETATM    2  C   UNL     1     -44.141 -53.830  12.676  1.00  0.00     0.125 A 
HETATM    3  N   UNL     1     -42.816 -53.822  12.514  1.00  0.00    -0.309 N 
ATOM      4  HN  UNL     1     -42.286 -53.643  11.661  1.00  0.00     0.186 HD
HETATM    5  N   UNL     1     -42.343 -54.106  13.743  1.00  0.00    -0.301 N 
HETATM    6  C   UNL     1     -43.331 -54.287  14.666  1.00  0.00     0.128 A 
ENDROOT
BRANCH   5   7
HETATM    7  C   UNL     1     -40.910 -54.249  13.937  1.00  0.00     0.175 C 
BRANCH   7   8
HETATM    8  C   UNL     1     -40.214 -52.898  13.802  1.00  0.00     0.197 C 
BRANCH   8   9
HETATM    9  O   UNL     1     -40.064 -52.535  12.426  1.00  0.00    -0.348 OA
BRANCH   9  10
HETATM   10  C   UNL     1     -39.938 -51.191  12.164  1.00  0.00     0.090 A 
HETATM   11  C   UNL     1     -41.172 -50.540  11.979  1.00  0.00     0.041 A 
HETATM   12  C   UNL     1     -41.236 -49.160  11.753  1.00  0.00     0.045 A 
HETATM   13  C   UNL     1     -40.064 -48.424  11.710  1.00  0.00     0.118 A 
HETATM   14  F   UNL     1     -40.116 -47.103  11.508  1.00  0.00    -0.206 F 
HETATM   15  C   UNL     1     -38.835 -49.036  11.901  1.00  0.00     0.069 A 
HETATM   16  C   UNL     1     -38.765 -50.414  12.141  1.00  0.00     0.070 A 
HETATM   17 CL   UNL     1     -37.175 -51.002  12.479  1.00  0.00    -0.081 Cl
ENDBRANCH   9  10
ENDBRANCH   8   9
ENDBRANCH   7   8
ENDBRANCH   5   7
BRANCH   1  18
HETATM   18  C   UNL     1     -45.852 -54.159  14.607  1.00  0.00     0.252 C 
HETATM   19  N   UNL     1     -46.869 -53.584  13.903  1.00  0.00    -0.366 N 
HETATM   20  H   UNL     1     -47.780 -53.571  14.340  1.00  0.00     0.159 HD
HETATM   21  H   UNL     1     -46.739 -53.057  13.052  1.00  0.00     0.159 HD
HETATM   22  O   UNL     1     -46.073 -54.684  15.693  1.00  0.00    -0.268 OA
ENDBRANCH   1  18
TORSDOF 5
ENDMDL
MODEL 6
REMARK VINA RESULT:      -5.6      4.140      5.097
REMARK  5 active torsions:
REMARK  status: ('A' for Active; 'I' for Inactive)
REMARK       I    between atoms: N_1  and  C_2 
REMARK    1  A    between atoms: C_2  and  C_4 
REMARK    2  A    between atoms: N_8  and  C_9 
REMARK    3  A    between atoms: C_9  and  C_10 
REMARK    4  A    between atoms: C_10  and  O_11 
REMARK    5  A    between atoms: O_11  and  C_12 
ROOT
HETATM    1  C   UNL     1     -42.948 -47.324  10.024  1.00  0.00     0.065 A 
HETATM    2  C   UNL     1     -43.551 -47.214  11.296  1.00  0.00     0.125 A 
HETATM    3  N   UNL     1     -43.003 -48.022  12.206  1.00  0.00    -0.309 N 
ATOM      4  HN  UNL     1     -43.268 -48.142  13.183  1.00  0.00     0.186 HD
HETATM    5  N   UNL     1     -42.018 -48.643  11.528  1.00  0.00    -0.301 N 
HETATM    6  C   UNL     1     -41.938 -48.251  10.224  1.00  0.00     0.128 A 
ENDROOT
BRANCH   5   7
HETATM    7  C   UNL     1     -41.146 -49.568  12.231  1.00  0.00     0.175 C 
BRANCH   7   8
HETATM    8  C   UNL     1     -41.770 -50.960  12.281  1.00  0.00     0.197 C 
BRANCH   8   9
HETATM    9  O   UNL     1     -43.097 -50.907  12.813  1.00  0.00    -0.348 OA
BRANCH   9  10
HETATM   10  C   UNL     1     -43.694 -52.119  13.073  1.00  0.00     0.090 A 
HETATM   11  C   UNL     1     -42.793 -53.098  13.533  1.00  0.00     0.041 A 
HETATM   12  C   UNL     1     -43.235 -54.376  13.895  1.00  0.00     0.045 A 
HETATM   13  C   UNL     1     -44.582 -54.680  13.798  1.00  0.00     0.118 A 
HETATM   14  F   UNL     1     -45.016 -55.895  14.155  1.00  0.00    -0.206 F 
HETATM   15  C   UNL     1     -45.494 -53.733  13.361  1.00  0.00     0.069 A 
HETATM   16  C   UNL     1     -45.061 -52.448  13.010  1.00  0.00     0.070 A 
HETATM   17 CL   UNL     1     -46.332 -51.350  12.604  1.00  0.00    -0.081 Cl
ENDBRANCH   9  10
ENDBRANCH   8   9
ENDBRANCH   7   8
ENDBRANCH   5   7
BRANCH   1  18
HETATM   18  C   UNL     1     -43.253 -46.656   8.773  1.00  0.00     0.252 C 
HETATM   19  N   UNL     1     -43.123 -47.405   7.640  1.00  0.00    -0.366 N 
HETATM   20  H   UNL     1     -43.272 -46.933   6.758  1.00  0.00     0.159 HD
HETATM   21  H   UNL     1     -42.757 -48.345   7.623  1.00  0.00     0.159 HD
HETATM   22  O   UNL     1     -43.595 -45.481   8.700  1.00  0.00    -0.268 OA
ENDBRANCH   1  18
TORSDOF 5
ENDMDL
MODEL 7
REMARK VINA RESULT:      -5.6      5.359      7.568
REMARK  5 active torsions:
REMARK  status: ('A' for Active; 'I' for Inactive)
REMARK       I    between atoms: N_1  and  C_2 
REMARK    1  A    between atoms: C_2  and  C_4 
REMARK    2  A    between atoms: N_8  and  C_9 
REMARK    3  A    between atoms: C_9  and  C_10 
REMARK    4  A    between atoms: C_10  and  O_11 
REMARK    5  A    between atoms: O_11  and  C_12 
ROOT
HETATM    1  C   UNL     1     -39.695 -50.707  12.733  1.00  0.00     0.065 A 
HETATM    2  C   UNL     1     -40.594 -50.833  11.651  1.00  0.00     0.125 A 
HETATM    3  N   UNL     1     -41.092 -52.065  11.527  1.00  0.00    -0.309 N 
ATOM      4  HN  UNL     1     -41.741 -52.414  10.822  1.00  0.00     0.186 HD
HETATM    5  N   UNL     1     -40.536 -52.739  12.552  1.00  0.00    -0.301 N 
HETATM    6  C   UNL     1     -39.703 -51.967  13.308  1.00  0.00     0.128 A 
ENDROOT
BRANCH   5   7
HETATM    7  C   UNL     1     -40.908 -54.125  12.776  1.00  0.00     0.175 C 
BRANCH   7   8
HETATM    8  C   UNL     1     -42.276 -54.211  13.445  1.00  0.00     0.197 C 
BRANCH   8   9
HETATM    9  O   UNL     1     -43.271 -53.543  12.663  1.00  0.00    -0.348 OA
BRANCH   9  10
HETATM   10  C   UNL     1     -44.362 -53.064  13.351  1.00  0.00     0.090 A 
HETATM   11  C   UNL     1     -44.387 -51.660  13.451  1.00  0.00     0.041 A 
HETATM   12  C   UNL     1     -45.451 -50.998  14.075  1.00  0.00     0.045 A 
HETATM   13  C   UNL     1     -46.495 -51.738  14.602  1.00  0.00     0.118 A 
HETATM   14  F   UNL     1     -47.522 -51.112  15.188  1.00  0.00    -0.206 F 
HETATM   15  C   UNL     1     -46.504 -53.120  14.508  1.00  0.00     0.069 A 
HETATM   16  C   UNL     1     -45.449 -53.789  13.873  1.00  0.00     0.070 A 
HETATM   17 CL   UNL     1     -45.668 -55.497  13.729  1.00  0.00    -0.081 Cl
ENDBRANCH   9  10
ENDBRANCH   8   9
ENDBRANCH   7   8
ENDBRANCH   5   7
BRANCH   1  18
HETATM   18  C   UNL     1     -38.925 -49.567  13.194  1.00  0.00     0.252 C 
HETATM   19  N   UNL     1     -39.317 -49.009  14.374  1.00  0.00    -0.366 N 
HETATM   20  H   UNL     1     -38.828 -48.176  14.673  1.00  0.00     0.159 HD
HETATM   21  H   UNL     1     -40.142 -49.288  14.885  1.00  0.00     0.159 HD
HETATM   22  O   UNL     1     -37.978 -49.097  12.572  1.00  0.00    -0.268 OA
ENDBRANCH   1  18
TORSDOF 5
ENDMDL
MODEL 8
REMARK VINA RESULT:      -5.5      2.125      2.371
REMARK  5 active torsions:
REMARK  status: ('A' for Active; 'I' for Inactive)
REMARK       I    between atoms: N_1  and  C_2 
REMARK    1  A    between atoms: C_2  and  C_4 
REMARK    2  A    between atoms: N_8  and  C_9 
REMARK    3  A    between atoms: C_9  and  C_10 
REMARK    4  A    between atoms: C_10  and  O_11 
REMARK    5  A    between atoms: O_11  and  C_12 
ROOT
HETATM    1  C   UNL     1     -44.947 -47.728   9.021  1.00  0.00     0.065 A 
HETATM    2  C   UNL     1     -43.991 -47.749   7.982  1.00  0.00     0.125 A 
HETATM    3  N   UNL     1     -42.759 -47.451   8.398  1.00  0.00    -0.309 N 
ATOM      4  HN  UNL     1     -41.905 -47.383   7.845  1.00  0.00     0.186 HD
HETATM    5  N   UNL     1     -42.908 -47.262   9.724  1.00  0.00    -0.301 N 
HETATM    6  C   UNL     1     -44.194 -47.429  10.146  1.00  0.00     0.128 A 
ENDROOT
BRANCH   5   7
HETATM    7  C   UNL     1     -41.737 -46.981  10.538  1.00  0.00     0.175 C 
BRANCH   7   8
HETATM    8  C   UNL     1     -41.696 -47.902  11.753  1.00  0.00     0.197 C 
BRANCH   8   9
HETATM    9  O   UNL     1     -40.515 -48.711  11.742  1.00  0.00    -0.348 OA
BRANCH   9  10
HETATM   10  C   UNL     1     -39.592 -48.449  12.727  1.00  0.00     0.090 A 
HETATM   11  C   UNL     1     -40.116 -47.702  13.800  1.00  0.00     0.041 A 
HETATM   12  C   UNL     1     -39.330 -47.387  14.914  1.00  0.00     0.045 A 
HETATM   13  C   UNL     1     -38.015 -47.816  14.961  1.00  0.00     0.118 A 
HETATM   14  F   UNL     1     -37.260 -47.530  16.028  1.00  0.00    -0.206 F 
HETATM   15  C   UNL     1     -37.475 -48.563  13.926  1.00  0.00     0.069 A 
HETATM   16  C   UNL     1     -38.260 -48.894  12.813  1.00  0.00     0.070 A 
HETATM   17 CL   UNL     1     -37.481 -49.930  11.670  1.00  0.00    -0.081 Cl
ENDBRANCH   9  10
ENDBRANCH   8   9
ENDBRANCH   7   8
ENDBRANCH   5   7
BRANCH   1  18
HETATM   18  C   UNL     1     -46.378 -47.962   8.994  1.00  0.00     0.252 C 
HETATM   19  N   UNL     1     -46.781 -49.261   9.097  1.00  0.00    -0.366 N 
HETATM   20  H   UNL     1     -47.772 -49.442   9.016  1.00  0.00     0.159 HD
HETATM   21  H   UNL     1     -46.151 -50.049   9.108  1.00  0.00     0.159 HD
HETATM   22  O   UNL     1     -47.206 -47.066   8.870  1.00  0.00    -0.268 OA
ENDBRANCH   1  18
TORSDOF 5
ENDMDL
MODEL 9
REMARK VINA RESULT:      -5.5      5.113      7.368
REMARK  5 active torsions:
REMARK  status: ('A' for Active; 'I' for Inactive)
REMARK       I    between atoms: N_1  and  C_2 
REMARK    1  A    between atoms: C_2  and  C_4 
REMARK    2  A    between atoms: N_8  and  C_9 
REMARK    3  A    between atoms: C_9  and  C_10 
REMARK    4  A    between atoms: C_10  and  O_11 
REMARK    5  A    between atoms: O_11  and  C_12 
ROOT
HETATM    1  C   UNL     1     -38.819 -50.643  12.510  1.00  0.00     0.065 A 
HETATM    2  C   UNL     1     -39.274 -51.251  13.700  1.00  0.00     0.125 A 
HETATM    3  N   UNL     1     -40.470 -50.806  14.091  1.00  0.00    -0.309 N 
ATOM      4  HN  UNL     1     -41.002 -51.072  14.919  1.00  0.00     0.186 HD
HETATM    5  N   UNL     1     -40.809 -49.922  13.133  1.00  0.00    -0.301 N 
HETATM    6  C   UNL     1     -39.861 -49.798  12.161  1.00  0.00     0.128 A 
ENDROOT
BRANCH   5   7
HETATM    7  C   UNL     1     -42.108 -49.272  13.193  1.00  0.00     0.175 C 
BRANCH   7   8
HETATM    8  C   UNL     1     -43.225 -50.288  12.976  1.00  0.00     0.197 C 
BRANCH   8   9
HETATM    9  O   UNL     1     -43.465 -51.047  14.165  1.00  0.00    -0.348 OA
BRANCH   9  10
HETATM   10  C   UNL     1     -44.154 -52.227  14.002  1.00  0.00     0.090 A 
HETATM   11  C   UNL     1     -43.314 -53.350  13.875  1.00  0.00     0.041 A 
HETATM   12  C   UNL     1     -43.845 -54.639  13.752  1.00  0.00     0.045 A 
HETATM   13  C   UNL     1     -45.218 -54.811  13.755  1.00  0.00     0.118 A 
HETATM   14  F   UNL     1     -45.733 -56.042  13.652  1.00  0.00    -0.206 F 
HETATM   15  C   UNL     1     -46.069 -53.727  13.891  1.00  0.00     0.069 A 
HETATM   16  C   UNL     1     -45.545 -52.434  14.028  1.00  0.00     0.070 A 
HETATM   17 CL   UNL     1     -46.729 -51.208  14.311  1.00  0.00    -0.081 Cl
ENDBRANCH   9  10
ENDBRANCH   8   9
ENDBRANCH   7   8
ENDBRANCH   5   7
BRANCH   1  18
HETATM   18  C   UNL     1     -37.582 -50.817  11.772  1.00  0.00     0.252 C 
HETATM   19  N   UNL     1     -37.436 -50.058  10.648  1.00  0.00    -0.366 N 
HETATM   20  H   UNL     1     -36.607 -50.217  10.093  1.00  0.00     0.159 HD
HETATM   21  H   UNL     1     -38.158 -49.462  10.271  1.00  0.00     0.159 HD
HETATM   22  O   UNL     1     -36.704 -51.605  12.105  1.00  0.00    -0.268 OA
ENDBRANCH   1  18
TORSDOF 5
ENDMDL
