MODEL 1
REMARK VINA RESULT:      -6.6      0.000      0.000
REMARK  8 active torsions:
REMARK  status: ('A' for Active; 'I' for Inactive)
REMARK    1  A    between atoms: O_2  and  C_3 
REMARK    2  A    between atoms: C_8  and  C_9 
REMARK    3  A    between atoms: C_9  and  O_10 
REMARK    4  A    between atoms: O_10  and  C_11 
REMARK    5  A    between atoms: C_11  and  C_12 
REMARK    6  A    between atoms: C_12  and  O_13 
REMARK    7  A    between atoms: C_12  and  C_14 
REMARK    8  A    between atoms: C_14  and  N_15 
ROOT
HETATM    1  C   UNL     1     -40.177 -49.666  11.553  1.00  0.00     0.160 C 
ENDROOT
BRANCH   1   2
HETATM    2  C   UNL     1     -40.150 -51.010  12.320  1.00  0.00     0.201 C 
BRANCH   2   3
HETATM    3  O   UNL     1     -41.485 -51.292  12.751  1.00  0.00    -0.384 OA
BRANCH   3   4
HETATM    4  C   UNL     1     -42.122 -52.393  12.090  1.00  0.00     0.209 C 
BRANCH   4   5
HETATM    5  C   UNL     1     -42.639 -53.371  13.132  1.00  0.00    -0.001 A 
HETATM    6  C   UNL     1     -43.963 -53.852  13.139  1.00  0.00     0.076 A 
HETATM    7  C   UNL     1     -44.350 -54.814  14.088  1.00  0.00     0.037 A 
HETATM    8  C   UNL     1     -43.457 -55.268  15.057  1.00  0.00     0.003 A 
HETATM    9  C   UNL     1     -42.156 -54.784  15.073  1.00  0.00     0.001 A 
HETATM   10  C   UNL     1     -41.749 -53.861  14.109  1.00  0.00     0.012 A 
BRANCH   6  11
HETATM   11  O   UNL     1     -44.826 -53.370  12.184  1.00  0.00    -0.355 OA
HETATM   12  C   UNL     1     -45.944 -52.643  12.699  1.00  0.00     0.210 C 
ENDBRANCH   6  11
ENDBRANCH   4   5
ENDBRANCH   3   4
ENDBRANCH   2   3
ENDBRANCH   1   2
BRANCH   1  13
HETATM   13  O   UNL     1     -40.478 -49.908  10.170  1.00  0.00    -0.392 OA
HETATM   14  H   UNL     1     -40.961 -50.745  10.085  1.00  0.00     0.210 HD
ENDBRANCH   1  13
BRANCH   1  15
HETATM   15  C   UNL     1     -41.181 -48.657  12.135  1.00  0.00     0.164 C 
BRANCH  15  16
HETATM   16  N   UNL     1     -41.505 -47.577  11.212  1.00  0.00    -0.339 N 
HETATM   17  C   UNL     1     -40.639 -46.578  10.851  1.00  0.00     0.184 A 
HETATM   18  N   UNL     1     -41.179 -45.736  10.002  1.00  0.00    -0.350 N 
HETATM   19  C   UNL     1     -42.455 -46.198   9.803  1.00  0.00     0.060 A 
ATOM     20  HN  UNL     1     -40.745 -44.915   9.581  1.00  0.00     0.166 HD
HETATM   21  C   UNL     1     -43.465 -45.674   8.981  1.00  0.00     0.032 A 
HETATM   22  C   UNL     1     -42.701 -47.345  10.565  1.00  0.00     0.062 A 
HETATM   23  C   UNL     1     -44.713 -46.306   8.951  1.00  0.00     0.002 A 
HETATM   24  C   UNL     1     -44.948 -47.440   9.729  1.00  0.00     0.002 A 
HETATM   25  C   UNL     1     -43.949 -47.984  10.551  1.00  0.00     0.032 A 
ENDBRANCH  15  16
ENDBRANCH   1  15
TORSDOF 8
ENDMDL
MODEL 2
REMARK VINA RESULT:      -6.5      2.365      3.992
REMARK  8 active torsions:
REMARK  status: ('A' for Active; 'I' for Inactive)
REMARK    1  A    between atoms: O_2  and  C_3 
REMARK    2  A    between atoms: C_8  and  C_9 
REMARK    3  A    between atoms: C_9  and  O_10 
REMARK    4  A    between atoms: O_10  and  C_11 
REMARK    5  A    between atoms: C_11  and  C_12 
REMARK    6  A    between atoms: C_12  and  O_13 
REMARK    7  A    between atoms: C_12  and  C_14 
REMARK    8  A    between atoms: C_14  and  N_15 
ROOT
HETATM    1  C   UNL     1     -40.447 -53.556  13.125  1.00  0.00     0.160 C 
ENDROOT
BRANCH   1   2
HETATM    2  C   UNL     1     -41.786 -53.908  13.817  1.00  0.00     0.201 C 
BRANCH   2   3
HETATM    3  O   UNL     1     -42.831 -53.741  12.853  1.00  0.00    -0.384 OA
BRANCH   3   4
HETATM    4  C   UNL     1     -44.057 -54.419  13.158  1.00  0.00     0.209 C 
BRANCH   4   5
HETATM    5  C   UNL     1     -45.077 -53.408  13.655  1.00  0.00    -0.001 A 
HETATM    6  C   UNL     1     -45.562 -53.398  14.978  1.00  0.00     0.076 A 
HETATM    7  C   UNL     1     -46.446 -52.387  15.389  1.00  0.00     0.037 A 
HETATM    8  C   UNL     1     -46.892 -51.415  14.494  1.00  0.00     0.003 A 
HETATM    9  C   UNL     1     -46.438 -51.429  13.183  1.00  0.00     0.001 A 
HETATM   10  C   UNL     1     -45.526 -52.403  12.776  1.00  0.00     0.012 A 
BRANCH   6  11
HETATM   11  O   UNL     1     -45.120 -54.381  15.831  1.00  0.00    -0.355 OA
HETATM   12  C   UNL     1     -45.167 -54.037  17.218  1.00  0.00     0.210 C 
ENDBRANCH   6  11
ENDBRANCH   4   5
ENDBRANCH   3   4
ENDBRANCH   2   3
ENDBRANCH   1   2
BRANCH   1  13
HETATM   13  O   UNL     1     -40.635 -53.527  11.702  1.00  0.00    -0.392 OA
HETATM   14  H   UNL     1     -41.584 -53.538  11.499  1.00  0.00     0.210 HD
ENDBRANCH   1  13
BRANCH   1  15
HETATM   15  C   UNL     1     -39.854 -52.217  13.598  1.00  0.00     0.164 C 
BRANCH  15  16
HETATM   16  N   UNL     1     -40.084 -51.127  12.657  1.00  0.00    -0.339 N 
HETATM   17  C   UNL     1     -39.173 -50.701  11.726  1.00  0.00     0.184 A 
HETATM   18  N   UNL     1     -39.633 -49.707  11.002  1.00  0.00    -0.350 N 
HETATM   19  C   UNL     1     -40.895 -49.469  11.483  1.00  0.00     0.060 A 
ATOM     20  HN  UNL     1     -39.156 -49.218  10.245  1.00  0.00     0.166 HD
HETATM   21  C   UNL     1     -41.835 -48.515  11.061  1.00  0.00     0.032 A 
HETATM   22  C   UNL     1     -41.204 -50.332  12.539  1.00  0.00     0.062 A 
HETATM   23  C   UNL     1     -43.066 -48.436  11.720  1.00  0.00     0.002 A 
HETATM   24  C   UNL     1     -43.353 -49.293  12.783  1.00  0.00     0.002 A 
HETATM   25  C   UNL     1     -42.431 -50.259  13.214  1.00  0.00     0.032 A 
ENDBRANCH  15  16
ENDBRANCH   1  15
TORSDOF 8
ENDMDL
MODEL 3
REMARK VINA RESULT:      -6.4      1.969      3.447
REMARK  8 active torsions:
REMARK  status: ('A' for Active; 'I' for Inactive)
REMARK    1  A    between atoms: O_2  and  C_3 
REMARK    2  A    between atoms: C_8  and  C_9 
REMARK    3  A    between atoms: C_9  and  O_10 
REMARK    4  A    between atoms: O_10  and  C_11 
REMARK    5  A    between atoms: C_11  and  C_12 
REMARK    6  A    between atoms: C_12  and  O_13 
REMARK    7  A    between atoms: C_12  and  C_14 
REMARK    8  A    between atoms: C_14  and  N_15 
ROOT
HETATM    1  C   UNL     1     -40.806 -52.566  12.513  1.00  0.00     0.160 C 
ENDROOT
BRANCH   1   2
HETATM    2  C   UNL     1     -41.285 -53.382  13.738  1.00  0.00     0.201 C 
BRANCH   2   3
HETATM    3  O   UNL     1     -42.361 -54.222  13.308  1.00  0.00    -0.384 OA
BRANCH   3   4
HETATM    4  C   UNL     1     -43.390 -54.444  14.281  1.00  0.00     0.209 C 
BRANCH   4   5
HETATM    5  C   UNL     1     -44.524 -53.461  14.043  1.00  0.00    -0.001 A 
HETATM    6  C   UNL     1     -45.128 -52.724  15.082  1.00  0.00     0.076 A 
HETATM    7  C   UNL     1     -46.119 -51.776  14.779  1.00  0.00     0.037 A 
HETATM    8  C   UNL     1     -46.553 -51.584  13.468  1.00  0.00     0.003 A 
HETATM    9  C   UNL     1     -45.981 -52.321  12.440  1.00  0.00     0.001 A 
HETATM   10  C   UNL     1     -44.965 -53.233  12.725  1.00  0.00     0.012 A 
BRANCH   6  11
HETATM   11  O   UNL     1     -44.693 -52.950  16.366  1.00  0.00    -0.355 OA
HETATM   12  C   UNL     1     -45.615 -53.661  17.195  1.00  0.00     0.210 C 
ENDBRANCH   6  11
ENDBRANCH   4   5
ENDBRANCH   3   4
ENDBRANCH   2   3
ENDBRANCH   1   2
BRANCH   1  13
HETATM   13  O   UNL     1     -40.636 -53.442  11.388  1.00  0.00    -0.392 OA
HETATM   14  H   UNL     1     -41.142 -53.103  10.633  1.00  0.00     0.210 HD
ENDBRANCH   1  13
BRANCH   1  15
HETATM   15  C   UNL     1     -41.761 -51.419  12.138  1.00  0.00     0.164 C 
BRANCH  15  16
HETATM   16  N   UNL     1     -41.065 -50.180  11.814  1.00  0.00    -0.339 N 
HETATM   17  C   UNL     1     -39.705 -50.061  11.697  1.00  0.00     0.184 A 
HETATM   18  N   UNL     1     -39.338 -48.839  11.393  1.00  0.00    -0.350 N 
HETATM   19  C   UNL     1     -40.507 -48.125  11.313  1.00  0.00     0.060 A 
ATOM     20  HN  UNL     1     -38.390 -48.493  11.247  1.00  0.00     0.166 HD
HETATM   21  C   UNL     1     -40.691 -46.766  11.011  1.00  0.00     0.032 A 
HETATM   22  C   UNL     1     -41.613 -48.934  11.593  1.00  0.00     0.062 A 
HETATM   23  C   UNL     1     -41.988 -46.241  11.010  1.00  0.00     0.002 A 
HETATM   24  C   UNL     1     -43.080 -47.058  11.306  1.00  0.00     0.002 A 
HETATM   25  C   UNL     1     -42.917 -48.419  11.602  1.00  0.00     0.032 A 
ENDBRANCH  15  16
ENDBRANCH   1  15
TORSDOF 8
ENDMDL
MODEL 4
REMARK VINA RESULT:      -6.4      2.197      3.971
REMARK  8 active torsions:
REMARK  status: ('A' for Active; 'I' for Inactive)
REMARK    1  A    between atoms: O_2  and  C_3 
REMARK    2  A    between atoms: C_8  and  C_9 
REMARK    3  A    between atoms: C_9  and  O_10 
REMARK    4  A    between atoms: O_10  and  C_11 
REMARK    5  A    between atoms: C_11  and  C_12 
REMARK    6  A    between atoms: C_12  and  O_13 
REMARK    7  A    between atoms: C_12  and  C_14 
REMARK    8  A    between atoms: C_14  and  N_15 
ROOT
HETATM    1  C   UNL     1     -42.486 -53.254  12.931  1.00  0.00     0.160 C 
ENDROOT
BRANCH   1   2
HETATM    2  C   UNL     1     -43.250 -54.205  13.885  1.00  0.00     0.201 C 
BRANCH   2   3
HETATM    3  O   UNL     1     -44.316 -54.803  13.142  1.00  0.00    -0.384 OA
BRANCH   3   4
HETATM    4  C   UNL     1     -45.536 -54.996  13.869  1.00  0.00     0.209 C 
BRANCH   4   5
HETATM    5  C   UNL     1     -46.010 -53.659  14.415  1.00  0.00    -0.001 A 
HETATM    6  C   UNL     1     -46.345 -52.571  13.585  1.00  0.00     0.076 A 
HETATM    7  C   UNL     1     -46.850 -51.390  14.155  1.00  0.00     0.037 A 
HETATM    8  C   UNL     1     -46.980 -51.258  15.537  1.00  0.00     0.003 A 
HETATM    9  C   UNL     1     -46.631 -52.316  16.364  1.00  0.00     0.001 A 
HETATM   10  C   UNL     1     -46.170 -53.508  15.806  1.00  0.00     0.012 A 
BRANCH   6  11
HETATM   11  O   UNL     1     -46.187 -52.724  12.229  1.00  0.00    -0.355 OA
HETATM   12  C   UNL     1     -47.029 -51.892  11.429  1.00  0.00     0.210 C 
ENDBRANCH   6  11
ENDBRANCH   4   5
ENDBRANCH   3   4
ENDBRANCH   2   3
ENDBRANCH   1   2
BRANCH   1  13
HETATM   13  O   UNL     1     -43.289 -52.992  11.770  1.00  0.00    -0.392 OA
HETATM   14  H   UNL     1     -43.981 -52.349  11.992  1.00  0.00     0.210 HD
ENDBRANCH   1  13
BRANCH   1  15
HETATM   15  C   UNL     1     -42.083 -51.926  13.595  1.00  0.00     0.164 C 
BRANCH  15  16
HETATM   16  N   UNL     1     -41.466 -50.988  12.665  1.00  0.00    -0.339 N 
HETATM   17  C   UNL     1     -40.252 -51.180  12.060  1.00  0.00     0.184 A 
HETATM   18  N   UNL     1     -39.931 -50.186  11.266  1.00  0.00    -0.350 N 
HETATM   19  C   UNL     1     -40.977 -49.303  11.358  1.00  0.00     0.060 A 
ATOM     20  HN  UNL     1     -39.087 -50.090  10.701  1.00  0.00     0.166 HD
HETATM   21  C   UNL     1     -41.151 -48.070  10.708  1.00  0.00     0.032 A 
HETATM   22  C   UNL     1     -41.952 -49.767  12.247  1.00  0.00     0.062 A 
HETATM   23  C   UNL     1     -42.299 -47.318  10.975  1.00  0.00     0.002 A 
HETATM   24  C   UNL     1     -43.256 -47.788  11.876  1.00  0.00     0.002 A 
HETATM   25  C   UNL     1     -43.105 -49.020  12.530  1.00  0.00     0.032 A 
ENDBRANCH  15  16
ENDBRANCH   1  15
TORSDOF 8
ENDMDL
MODEL 5
REMARK VINA RESULT:      -6.3      1.416      2.077
REMARK  8 active torsions:
REMARK  status: ('A' for Active; 'I' for Inactive)
REMARK    1  A    between atoms: O_2  and  C_3 
REMARK    2  A    between atoms: C_8  and  C_9 
REMARK    3  A    between atoms: C_9  and  O_10 
REMARK    4  A    between atoms: O_10  and  C_11 
REMARK    5  A    between atoms: C_11  and  C_12 
REMARK    6  A    between atoms: C_12  and  O_13 
REMARK    7  A    between atoms: C_12  and  C_14 
REMARK    8  A    between atoms: C_14  and  N_15 
ROOT
HETATM    1  C   UNL     1     -40.780 -50.131  11.640  1.00  0.00     0.160 C 
ENDROOT
BRANCH   1   2
HETATM    2  C   UNL     1     -40.956 -51.602  12.089  1.00  0.00     0.201 C 
BRANCH   2   3
HETATM    3  O   UNL     1     -41.950 -51.626  13.119  1.00  0.00    -0.384 OA
BRANCH   3   4
HETATM    4  C   UNL     1     -42.958 -52.635  12.973  1.00  0.00     0.209 C 
BRANCH   4   5
HETATM    5  C   UNL     1     -44.205 -52.210  13.731  1.00  0.00    -0.001 A 
HETATM    6  C   UNL     1     -45.398 -52.960  13.722  1.00  0.00     0.076 A 
HETATM    7  C   UNL     1     -46.487 -52.546  14.507  1.00  0.00     0.037 A 
HETATM    8  C   UNL     1     -46.425 -51.374  15.261  1.00  0.00     0.003 A 
HETATM    9  C   UNL     1     -45.263 -50.616  15.258  1.00  0.00     0.001 A 
HETATM   10  C   UNL     1     -44.161 -51.041  14.516  1.00  0.00     0.012 A 
BRANCH   6  11
HETATM   11  O   UNL     1     -45.434 -54.099  12.954  1.00  0.00    -0.355 OA
HETATM   12  C   UNL     1     -45.473 -55.321  13.695  1.00  0.00     0.210 C 
ENDBRANCH   6  11
ENDBRANCH   4   5
ENDBRANCH   3   4
ENDBRANCH   2   3
ENDBRANCH   1   2
BRANCH   1  13
HETATM   13  O   UNL     1     -40.515 -50.087  10.230  1.00  0.00    -0.392 OA
HETATM   14  H   UNL     1     -39.916 -49.349  10.035  1.00  0.00     0.210 HD
ENDBRANCH   1  13
BRANCH   1  15
HETATM   15  C   UNL     1     -41.995 -49.247  11.968  1.00  0.00     0.164 C 
BRANCH  15  16
HETATM   16  N   UNL     1     -42.070 -48.050  11.141  1.00  0.00    -0.339 N 
HETATM   17  C   UNL     1     -41.029 -47.183  10.934  1.00  0.00     0.184 A 
HETATM   18  N   UNL     1     -41.361 -46.189  10.144  1.00  0.00    -0.350 N 
HETATM   19  C   UNL     1     -42.677 -46.411   9.824  1.00  0.00     0.060 A 
ATOM     20  HN  UNL     1     -40.770 -45.419   9.833  1.00  0.00     0.166 HD
HETATM   21  C   UNL     1     -43.525 -45.652   9.002  1.00  0.00     0.032 A 
HETATM   22  C   UNL     1     -43.161 -47.563  10.451  1.00  0.00     0.062 A 
HETATM   23  C   UNL     1     -44.852 -46.060   8.836  1.00  0.00     0.002 A 
HETATM   24  C   UNL     1     -45.325 -47.203   9.480  1.00  0.00     0.002 A 
HETATM   25  C   UNL     1     -44.492 -47.979  10.300  1.00  0.00     0.032 A 
ENDBRANCH  15  16
ENDBRANCH   1  15
TORSDOF 8
ENDMDL
MODEL 6
REMARK VINA RESULT:      -6.2      3.847      5.624
REMARK  8 active torsions:
REMARK  status: ('A' for Active; 'I' for Inactive)
REMARK    1  A    between atoms: O_2  and  C_3 
REMARK    2  A    between atoms: C_8  and  C_9 
REMARK    3  A    between atoms: C_9  and  O_10 
REMARK    4  A    between atoms: O_10  and  C_11 
REMARK    5  A    between atoms: C_11  and  C_12 
REMARK    6  A    between atoms: C_12  and  O_13 
REMARK    7  A    between atoms: C_12  and  C_14 
REMARK    8  A    between atoms: C_14  and  N_15 
ROOT
HETATM    1  C   UNL     1     -41.451 -53.526  14.999  1.00  0.00     0.160 C 
ENDROOT
BRANCH   1   2
HETATM    2  C   UNL     1     -42.616 -54.533  15.149  1.00  0.00     0.201 C 
BRANCH   2   3
HETATM    3  O   UNL     1     -43.313 -54.582  13.900  1.00  0.00    -0.384 OA
BRANCH   3   4
HETATM    4  C   UNL     1     -44.694 -54.957  13.984  1.00  0.00     0.209 C 
BRANCH   4   5
HETATM    5  C   UNL     1     -45.528 -53.727  14.306  1.00  0.00    -0.001 A 
HETATM    6  C   UNL     1     -46.145 -53.527  15.556  1.00  0.00     0.076 A 
HETATM    7  C   UNL     1     -46.837 -52.330  15.808  1.00  0.00     0.037 A 
HETATM    8  C   UNL     1     -46.964 -51.353  14.823  1.00  0.00     0.003 A 
HETATM    9  C   UNL     1     -46.379 -51.550  13.580  1.00  0.00     0.001 A 
HETATM   10  C   UNL     1     -45.653 -52.715  13.333  1.00  0.00     0.012 A 
BRANCH   6  11
HETATM   11  O   UNL     1     -46.018 -54.517  16.501  1.00  0.00    -0.355 OA
HETATM   12  C   UNL     1     -45.534 -54.076  17.771  1.00  0.00     0.210 C 
ENDBRANCH   6  11
ENDBRANCH   4   5
ENDBRANCH   3   4
ENDBRANCH   2   3
ENDBRANCH   1   2
BRANCH   1  13
HETATM   13  O   UNL     1     -40.613 -53.582  16.164  1.00  0.00    -0.392 OA
HETATM   14  H   UNL     1     -40.424 -52.682  16.471  1.00  0.00     0.210 HD
ENDBRANCH   1  13
BRANCH   1  15
HETATM   15  C   UNL     1     -40.603 -53.765  13.737  1.00  0.00     0.164 C 
BRANCH  15  16
HETATM   16  N   UNL     1     -40.445 -52.568  12.920  1.00  0.00    -0.339 N 
HETATM   17  C   UNL     1     -41.250 -52.240  11.861  1.00  0.00     0.184 A 
HETATM   18  N   UNL     1     -40.895 -51.108  11.301  1.00  0.00    -0.350 N 
HETATM   19  C   UNL     1     -39.807 -50.680  12.019  1.00  0.00     0.060 A 
ATOM     20  HN  UNL     1     -41.332 -50.646  10.504  1.00  0.00     0.166 HD
HETATM   21  C   UNL     1     -39.038 -49.518  11.846  1.00  0.00     0.032 A 
HETATM   22  C   UNL     1     -39.484 -51.586  13.034  1.00  0.00     0.062 A 
HETATM   23  C   UNL     1     -37.946 -49.295  12.692  1.00  0.00     0.002 A 
HETATM   24  C   UNL     1     -37.627 -50.216  13.690  1.00  0.00     0.002 A 
HETATM   25  C   UNL     1     -38.388 -51.379  13.883  1.00  0.00     0.032 A 
ENDBRANCH  15  16
ENDBRANCH   1  15
TORSDOF 8
ENDMDL
MODEL 7
REMARK VINA RESULT:      -6.2      4.009      6.313
REMARK  8 active torsions:
REMARK  status: ('A' for Active; 'I' for Inactive)
REMARK    1  A    between atoms: O_2  and  C_3 
REMARK    2  A    between atoms: C_8  and  C_9 
REMARK    3  A    between atoms: C_9  and  O_10 
REMARK    4  A    between atoms: O_10  and  C_11 
REMARK    5  A    between atoms: C_11  and  C_12 
REMARK    6  A    between atoms: C_12  and  O_13 
REMARK    7  A    between atoms: C_12  and  C_14 
REMARK    8  A    between atoms: C_14  and  N_15 
ROOT
HETATM    1  C   UNL     1     -40.340 -51.571  12.703  1.00  0.00     0.160 C 
ENDROOT
BRANCH   1   2
HETATM    2  C   UNL     1     -40.679 -50.288  13.500  1.00  0.00     0.201 C 
BRANCH   2   3
HETATM    3  O   UNL     1     -42.100 -50.117  13.465  1.00  0.00    -0.384 OA
BRANCH   3   4
HETATM    4  C   UNL     1     -42.736 -50.022  14.746  1.00  0.00     0.209 C 
BRANCH   4   5
HETATM    5  C   UNL     1     -44.145 -50.584  14.648  1.00  0.00    -0.001 A 
HETATM    6  C   UNL     1     -44.943 -50.848  15.778  1.00  0.00     0.076 A 
HETATM    7  C   UNL     1     -46.265 -51.295  15.609  1.00  0.00     0.037 A 
HETATM    8  C   UNL     1     -46.787 -51.528  14.337  1.00  0.00     0.003 A 
HETATM    9  C   UNL     1     -46.001 -51.293  13.218  1.00  0.00     0.001 A 
HETATM   10  C   UNL     1     -44.703 -50.808  13.373  1.00  0.00     0.012 A 
BRANCH   6  11
HETATM   11  O   UNL     1     -44.394 -50.628  17.018  1.00  0.00    -0.355 OA
HETATM   12  C   UNL     1     -45.061 -51.289  18.096  1.00  0.00     0.210 C 
ENDBRANCH   6  11
ENDBRANCH   4   5
ENDBRANCH   3   4
ENDBRANCH   2   3
ENDBRANCH   1   2
BRANCH   1  13
HETATM   13  O   UNL     1     -39.304 -51.286  11.750  1.00  0.00    -0.392 OA
HETATM   14  H   UNL     1     -39.696 -50.902  10.950  1.00  0.00     0.210 HD
ENDBRANCH   1  13
BRANCH   1  15
HETATM   15  C   UNL     1     -39.912 -52.746  13.600  1.00  0.00     0.164 C 
BRANCH  15  16
HETATM   16  N   UNL     1     -40.959 -53.173  14.519  1.00  0.00    -0.339 N 
HETATM   17  C   UNL     1     -40.845 -53.164  15.884  1.00  0.00     0.184 A 
HETATM   18  N   UNL     1     -41.935 -53.593  16.476  1.00  0.00    -0.350 N 
HETATM   19  C   UNL     1     -42.797 -53.903  15.456  1.00  0.00     0.060 A 
ATOM     20  HN  UNL     1     -42.104 -53.678  17.478  1.00  0.00     0.166 HD
HETATM   21  C   UNL     1     -44.108 -54.401  15.529  1.00  0.00     0.032 A 
HETATM   22  C   UNL     1     -42.208 -53.670  14.209  1.00  0.00     0.062 A 
HETATM   23  C   UNL     1     -44.799 -54.670  14.343  1.00  0.00     0.002 A 
HETATM   24  C   UNL     1     -44.192 -54.446  13.106  1.00  0.00     0.002 A 
HETATM   25  C   UNL     1     -42.886 -53.942  13.012  1.00  0.00     0.032 A 
ENDBRANCH  15  16
ENDBRANCH   1  15
TORSDOF 8
ENDMDL
MODEL 8
REMARK VINA RESULT:      -6.2      4.505      6.154
REMARK  8 active torsions:
REMARK  status: ('A' for Active; 'I' for Inactive)
REMARK    1  A    between atoms: O_2  and  C_3 
REMARK    2  A    between atoms: C_8  and  C_9 
REMARK    3  A    between atoms: C_9  and  O_10 
REMARK    4  A    between atoms: O_10  and  C_11 
REMARK    5  A    between atoms: C_11  and  C_12 
REMARK    6  A    between atoms: C_12  and  O_13 
REMARK    7  A    between atoms: C_12  and  C_14 
REMARK    8  A    between atoms: C_14  and  N_15 
ROOT
HETATM    1  C   UNL     1     -39.953 -51.826  15.086  1.00  0.00     0.160 C 
ENDROOT
BRANCH   1   2
HETATM    2  C   UNL     1     -40.902 -51.841  16.308  1.00  0.00     0.201 C 
BRANCH   2   3
HETATM    3  O   UNL     1     -42.087 -51.123  15.948  1.00  0.00    -0.384 OA
BRANCH   3   4
HETATM    4  C   UNL     1     -43.188 -51.267  16.854  1.00  0.00     0.209 C 
BRANCH   4   5
HETATM    5  C   UNL     1     -44.468 -51.465  16.058  1.00  0.00    -0.001 A 
HETATM    6  C   UNL     1     -45.595 -52.133  16.577  1.00  0.00     0.076 A 
HETATM    7  C   UNL     1     -46.771 -52.212  15.812  1.00  0.00     0.037 A 
HETATM    8  C   UNL     1     -46.827 -51.681  14.524  1.00  0.00     0.003 A 
HETATM    9  C   UNL     1     -45.715 -51.042  13.995  1.00  0.00     0.001 A 
HETATM   10  C   UNL     1     -44.557 -50.919  14.762  1.00  0.00     0.012 A 
BRANCH   6  11
HETATM   11  O   UNL     1     -45.502 -52.663  17.842  1.00  0.00    -0.355 OA
HETATM   12  C   UNL     1     -45.730 -54.071  17.919  1.00  0.00     0.210 C 
ENDBRANCH   6  11
ENDBRANCH   4   5
ENDBRANCH   3   4
ENDBRANCH   2   3
ENDBRANCH   1   2
BRANCH   1  13
HETATM   13  O   UNL     1     -38.597 -51.665  15.532  1.00  0.00    -0.392 OA
HETATM   14  H   UNL     1     -38.126 -52.509  15.445  1.00  0.00     0.210 HD
ENDBRANCH   1  13
BRANCH   1  15
HETATM   15  C   UNL     1     -40.067 -53.088  14.214  1.00  0.00     0.164 C 
BRANCH  15  16
HETATM   16  N   UNL     1     -41.283 -53.118  13.411  1.00  0.00    -0.339 N 
HETATM   17  C   UNL     1     -41.445 -52.457  12.222  1.00  0.00     0.184 A 
HETATM   18  N   UNL     1     -42.633 -52.656  11.702  1.00  0.00    -0.350 N 
HETATM   19  C   UNL     1     -43.280 -53.477  12.590  1.00  0.00     0.060 A 
ATOM     20  HN  UNL     1     -42.998 -52.282  10.826  1.00  0.00     0.166 HD
HETATM   21  C   UNL     1     -44.579 -54.005  12.520  1.00  0.00     0.032 A 
HETATM   22  C   UNL     1     -42.466 -53.771  13.689  1.00  0.00     0.062 A 
HETATM   23  C   UNL     1     -45.042 -54.810  13.565  1.00  0.00     0.002 A 
HETATM   24  C   UNL     1     -44.223 -55.083  14.662  1.00  0.00     0.002 A 
HETATM   25  C   UNL     1     -42.920 -54.571  14.748  1.00  0.00     0.032 A 
ENDBRANCH  15  16
ENDBRANCH   1  15
TORSDOF 8
ENDMDL
MODEL 9
REMARK VINA RESULT:      -6.0      1.841      3.177
REMARK  8 active torsions:
REMARK  status: ('A' for Active; 'I' for Inactive)
REMARK    1  A    between atoms: O_2  and  C_3 
REMARK    2  A    between atoms: C_8  and  C_9 
REMARK    3  A    between atoms: C_9  and  O_10 
REMARK    4  A    between atoms: O_10  and  C_11 
REMARK    5  A    between atoms: C_11  and  C_12 
REMARK    6  A    between atoms: C_12  and  O_13 
REMARK    7  A    between atoms: C_12  and  C_14 
REMARK    8  A    between atoms: C_14  and  N_15 
ROOT
HETATM    1  C   UNL     1     -40.753 -49.237  11.400  1.00  0.00     0.160 C 
ENDROOT
BRANCH   1   2
HETATM    2  C   UNL     1     -40.916 -50.239  12.568  1.00  0.00     0.201 C 
BRANCH   2   3
HETATM    3  O   UNL     1     -41.986 -51.128  12.233  1.00  0.00    -0.384 OA
BRANCH   3   4
HETATM    4  C   UNL     1     -41.612 -52.503  12.073  1.00  0.00     0.209 C 
BRANCH   4   5
HETATM    5  C   UNL     1     -42.565 -53.377  12.870  1.00  0.00    -0.001 A 
HETATM    6  C   UNL     1     -42.177 -54.067  14.036  1.00  0.00     0.076 A 
HETATM    7  C   UNL     1     -43.132 -54.796  14.765  1.00  0.00     0.037 A 
HETATM    8  C   UNL     1     -44.452 -54.888  14.328  1.00  0.00     0.003 A 
HETATM    9  C   UNL     1     -44.840 -54.231  13.169  1.00  0.00     0.001 A 
HETATM   10  C   UNL     1     -43.911 -53.469  12.461  1.00  0.00     0.012 A 
BRANCH   6  11
HETATM   11  O   UNL     1     -40.864 -53.973  14.430  1.00  0.00    -0.355 OA
HETATM   12  C   UNL     1     -40.520 -54.771  15.564  1.00  0.00     0.210 C 
ENDBRANCH   6  11
ENDBRANCH   4   5
ENDBRANCH   3   4
ENDBRANCH   2   3
ENDBRANCH   1   2
BRANCH   1  13
HETATM   13  O   UNL     1     -40.228 -49.920  10.251  1.00  0.00    -0.392 OA
HETATM   14  H   UNL     1     -39.430 -50.412  10.502  1.00  0.00     0.210 HD
ENDBRANCH   1  13
BRANCH   1  15
HETATM   15  C   UNL     1     -42.063 -48.523  11.026  1.00  0.00     0.164 C 
BRANCH  15  16
HETATM   16  N   UNL     1     -42.201 -47.216  11.657  1.00  0.00    -0.339 N 
HETATM   17  C   UNL     1     -43.130 -46.911  12.617  1.00  0.00     0.184 A 
HETATM   18  N   UNL     1     -43.036 -45.667  13.021  1.00  0.00    -0.350 N 
HETATM   19  C   UNL     1     -42.005 -45.131  12.291  1.00  0.00     0.060 A 
ATOM     20  HN  UNL     1     -43.605 -45.198  13.726  1.00  0.00     0.166 HD
HETATM   21  C   UNL     1     -41.478 -43.830  12.332  1.00  0.00     0.032 A 
HETATM   22  C   UNL     1     -41.470 -46.074  11.408  1.00  0.00     0.062 A 
HETATM   23  C   UNL     1     -40.429 -43.496  11.470  1.00  0.00     0.002 A 
HETATM   24  C   UNL     1     -39.915 -44.443  10.583  1.00  0.00     0.002 A 
HETATM   25  C   UNL     1     -40.423 -45.750  10.533  1.00  0.00     0.032 A 
ENDBRANCH  15  16
ENDBRANCH   1  15
TORSDOF 8
ENDMDL
