MODEL 1
REMARK VINA RESULT:      -6.4      0.000      0.000
REMARK  2 active torsions:
REMARK  status: ('A' for Active; 'I' for Inactive)
REMARK       I    between atoms: C_2  and  N_3 
REMARK       I    between atoms: C_2  and  N_12 
REMARK    1  A    between atoms: N_3  and  C_4 
REMARK    2  A    between atoms: N_12  and  C_13 
ROOT
HETATM    1  O   UNL     1     -42.030 -47.811  11.730  1.00  0.00    -0.247 OA
HETATM    2  C   UNL     1     -41.777 -48.387  10.678  1.00  0.00     0.321 C 
HETATM    3  N   UNL     1     -40.759 -49.306  10.588  1.00  0.00    -0.330 N 
HETATM    4  N   UNL     1     -42.414 -48.184   9.478  1.00  0.00    -0.308 N 
HETATM    5  H   UNL     1     -40.852 -50.058   9.914  1.00  0.00     0.165 HD
HETATM    6  H   UNL     1     -41.885 -48.438   8.655  1.00  0.00     0.170 HD
ENDROOT
BRANCH   3   7
HETATM    7  C   UNL     1     -40.020 -49.629  11.806  1.00  0.00     0.172 C 
HETATM    8  C   UNL     1     -38.506 -49.604  11.539  1.00  0.00     0.034 C 
HETATM    9  C   UNL     1     -37.697 -49.451  12.825  1.00  0.00     0.004 C 
HETATM   10  C   UNL     1     -37.470 -50.733  13.633  1.00  0.00     0.015 C 
HETATM   11  C   UNL     1     -38.543 -51.822  13.565  1.00  0.00     0.095 C 
HETATM   12  N   UNL     1     -39.895 -51.303  13.590  1.00  0.00    -0.261 NA
HETATM   13  C   UNL     1     -40.445 -50.995  12.354  1.00  0.00     0.220 C 
HETATM   14  H   UNL     1     -39.990 -50.559  14.271  1.00  0.00     0.130 HD
HETATM   15  O   UNL     1     -41.182 -51.764  11.742  1.00  0.00    -0.278 OA
ENDBRANCH   3   7
BRANCH   4  16
HETATM   16  C   UNL     1     -43.572 -47.393   9.298  1.00  0.00     0.051 A 
HETATM   17  C   UNL     1     -44.855 -47.930   9.181  1.00  0.00     0.032 A 
HETATM   18  C   UNL     1     -45.952 -47.089   9.001  1.00  0.00     0.019 A 
HETATM   19  C   UNL     1     -45.729 -45.724   8.935  1.00  0.00     0.088 A 
HETATM   20  N   UNL     1     -44.505 -45.162   9.028  1.00  0.00    -0.373 N 
HETATM   21  C   UNL     1     -43.460 -46.010   9.203  1.00  0.00     0.117 A 
ATOM     22  HN  UNL     1     -44.373 -44.152   8.970  1.00  0.00     0.164 HD
ENDBRANCH   4  16
TORSDOF 2
ENDMDL
MODEL 2
REMARK VINA RESULT:      -6.2      4.116      5.330
REMARK  2 active torsions:
REMARK  status: ('A' for Active; 'I' for Inactive)
REMARK       I    between atoms: C_2  and  N_3 
REMARK       I    between atoms: C_2  and  N_12 
REMARK    1  A    between atoms: N_3  and  C_4 
REMARK    2  A    between atoms: N_12  and  C_13 
ROOT
HETATM    1  O   UNL     1     -42.634 -51.155  14.212  1.00  0.00    -0.247 OA
HETATM    2  C   UNL     1     -42.946 -51.276  13.033  1.00  0.00     0.321 C 
HETATM    3  N   UNL     1     -42.072 -50.961  12.021  1.00  0.00    -0.330 N 
HETATM    4  N   UNL     1     -44.171 -51.687  12.565  1.00  0.00    -0.308 N 
HETATM    5  H   UNL     1     -42.151 -51.466  11.145  1.00  0.00     0.165 HD
HETATM    6  H   UNL     1     -44.398 -51.397  11.623  1.00  0.00     0.170 HD
ENDROOT
BRANCH   3   7
HETATM    7  C   UNL     1     -40.724 -50.534  12.391  1.00  0.00     0.172 C 
HETATM    8  C   UNL     1     -40.147 -49.592  11.322  1.00  0.00     0.034 C 
HETATM    9  C   UNL     1     -38.991 -48.752  11.860  1.00  0.00     0.004 C 
HETATM   10  C   UNL     1     -37.622 -49.440  11.903  1.00  0.00     0.015 C 
HETATM   11  C   UNL     1     -37.589 -50.956  12.112  1.00  0.00     0.095 C 
HETATM   12  N   UNL     1     -38.551 -51.426  13.087  1.00  0.00    -0.261 NA
HETATM   13  C   UNL     1     -39.806 -51.745  12.590  1.00  0.00     0.220 C 
HETATM   14  H   UNL     1     -38.581 -50.817  13.896  1.00  0.00     0.130 HD
HETATM   15  O   UNL     1     -40.138 -52.893  12.306  1.00  0.00    -0.278 OA
ENDBRANCH   3   7
BRANCH   4  16
HETATM   16  C   UNL     1     -45.220 -52.190  13.369  1.00  0.00     0.051 A 
HETATM   17  C   UNL     1     -46.017 -51.382  14.181  1.00  0.00     0.032 A 
HETATM   18  C   UNL     1     -47.032 -51.949  14.951  1.00  0.00     0.019 A 
HETATM   19  C   UNL     1     -47.214 -53.319  14.891  1.00  0.00     0.088 A 
HETATM   20  N   UNL     1     -46.457 -54.141  14.133  1.00  0.00    -0.373 N 
HETATM   21  C   UNL     1     -45.479 -53.557  13.396  1.00  0.00     0.117 A 
ATOM     22  HN  UNL     1     -46.613 -55.149  14.116  1.00  0.00     0.164 HD
ENDBRANCH   4  16
TORSDOF 2
ENDMDL
MODEL 3
REMARK VINA RESULT:      -5.9      3.376      4.710
REMARK  2 active torsions:
REMARK  status: ('A' for Active; 'I' for Inactive)
REMARK       I    between atoms: C_2  and  N_3 
REMARK       I    between atoms: C_2  and  N_12 
REMARK    1  A    between atoms: N_3  and  C_4 
REMARK    2  A    between atoms: N_12  and  C_13 
ROOT
HETATM    1  O   UNL     1     -41.846 -49.969  13.342  1.00  0.00    -0.247 OA
HETATM    2  C   UNL     1     -41.873 -50.484  12.229  1.00  0.00     0.321 C 
HETATM    3  N   UNL     1     -42.213 -51.804  12.055  1.00  0.00    -0.330 N 
HETATM    4  N   UNL     1     -41.544 -49.863  11.049  1.00  0.00    -0.308 N 
HETATM    5  H   UNL     1     -42.657 -52.073  11.185  1.00  0.00     0.165 HD
HETATM    6  H   UNL     1     -41.264 -50.476  10.296  1.00  0.00     0.170 HD
ENDROOT
BRANCH   3   7
HETATM    7  C   UNL     1     -42.609 -52.569  13.236  1.00  0.00     0.172 C 
HETATM    8  C   UNL     1     -41.753 -53.840  13.364  1.00  0.00     0.034 C 
HETATM    9  C   UNL     1     -41.774 -54.406  14.782  1.00  0.00     0.004 C 
HETATM   10  C   UNL     1     -42.990 -55.265  15.145  1.00  0.00     0.015 C 
HETATM   11  C   UNL     1     -44.322 -54.946  14.460  1.00  0.00     0.095 C 
HETATM   12  N   UNL     1     -44.580 -53.526  14.331  1.00  0.00    -0.261 NA
HETATM   13  C   UNL     1     -44.097 -52.930  13.176  1.00  0.00     0.220 C 
HETATM   14  H   UNL     1     -44.328 -53.029  15.178  1.00  0.00     0.130 HD
HETATM   15  O   UNL     1     -44.795 -52.737  12.184  1.00  0.00    -0.278 OA
ENDBRANCH   3   7
BRANCH   4  16
HETATM   16  C   UNL     1     -41.275 -48.481  10.907  1.00  0.00     0.051 A 
HETATM   17  C   UNL     1     -40.189 -47.847  11.512  1.00  0.00     0.032 A 
HETATM   18  C   UNL     1     -39.988 -46.479  11.331  1.00  0.00     0.019 A 
HETATM   19  C   UNL     1     -40.893 -45.781  10.550  1.00  0.00     0.088 A 
HETATM   20  N   UNL     1     -41.965 -46.349   9.960  1.00  0.00    -0.373 N 
HETATM   21  C   UNL     1     -42.130 -47.682  10.156  1.00  0.00     0.117 A 
ATOM     22  HN  UNL     1     -42.618 -45.805   9.395  1.00  0.00     0.164 HD
ENDBRANCH   4  16
TORSDOF 2
ENDMDL
MODEL 4
REMARK VINA RESULT:      -5.7      3.362      6.377
REMARK  2 active torsions:
REMARK  status: ('A' for Active; 'I' for Inactive)
REMARK       I    between atoms: C_2  and  N_3 
REMARK       I    between atoms: C_2  and  N_12 
REMARK    1  A    between atoms: N_3  and  C_4 
REMARK    2  A    between atoms: N_12  and  C_13 
ROOT
HETATM    1  O   UNL     1     -42.991 -50.220  13.086  1.00  0.00    -0.247 OA
HETATM    2  C   UNL     1     -42.340 -50.792  12.220  1.00  0.00     0.321 C 
HETATM    3  N   UNL     1     -41.556 -50.097  11.331  1.00  0.00    -0.330 N 
HETATM    4  N   UNL     1     -42.325 -52.147  11.991  1.00  0.00    -0.308 N 
HETATM    5  H   UNL     1     -40.729 -50.553  10.964  1.00  0.00     0.165 HD
HETATM    6  H   UNL     1     -42.052 -52.429  11.059  1.00  0.00     0.170 HD
ENDROOT
BRANCH   3   7
HETATM    7  C   UNL     1     -41.469 -48.646  11.487  1.00  0.00     0.172 C 
HETATM    8  C   UNL     1     -42.046 -47.937  10.251  1.00  0.00     0.034 C 
HETATM    9  C   UNL     1     -42.424 -46.487  10.545  1.00  0.00     0.004 C 
HETATM   10  C   UNL     1     -41.276 -45.473  10.513  1.00  0.00     0.015 C 
HETATM   11  C   UNL     1     -39.878 -45.961  10.902  1.00  0.00     0.095 C 
HETATM   12  N   UNL     1     -39.876 -46.867  12.032  1.00  0.00    -0.261 NA
HETATM   13  C   UNL     1     -40.019 -48.212  11.726  1.00  0.00     0.220 C 
HETATM   14  H   UNL     1     -40.508 -46.549  12.758  1.00  0.00     0.130 HD
HETATM   15  O   UNL     1     -39.064 -48.978  11.626  1.00  0.00    -0.278 OA
ENDBRANCH   3   7
BRANCH   4  16
HETATM   16  C   UNL     1     -42.935 -53.117  12.820  1.00  0.00     0.051 A 
HETATM   17  C   UNL     1     -42.270 -53.754  13.869  1.00  0.00     0.032 A 
HETATM   18  C   UNL     1     -42.933 -54.704  14.643  1.00  0.00     0.019 A 
HETATM   19  C   UNL     1     -44.251 -54.997  14.336  1.00  0.00     0.088 A 
HETATM   20  N   UNL     1     -44.928 -54.419  13.322  1.00  0.00    -0.373 N 
HETATM   21  C   UNL     1     -44.252 -53.498  12.588  1.00  0.00     0.117 A 
ATOM     22  HN  UNL     1     -45.897 -54.661  13.117  1.00  0.00     0.164 HD
ENDBRANCH   4  16
TORSDOF 2
ENDMDL
MODEL 5
REMARK VINA RESULT:      -5.7      4.347      5.959
REMARK  2 active torsions:
REMARK  status: ('A' for Active; 'I' for Inactive)
REMARK       I    between atoms: C_2  and  N_3 
REMARK       I    between atoms: C_2  and  N_12 
REMARK    1  A    between atoms: N_3  and  C_4 
REMARK    2  A    between atoms: N_12  and  C_13 
ROOT
HETATM    1  O   UNL     1     -42.957 -50.479  13.780  1.00  0.00    -0.247 OA
HETATM    2  C   UNL     1     -43.725 -50.142  12.886  1.00  0.00     0.321 C 
HETATM    3  N   UNL     1     -43.390 -49.164  11.981  1.00  0.00    -0.330 N 
HETATM    4  N   UNL     1     -44.992 -50.635  12.688  1.00  0.00    -0.308 N 
HETATM    5  H   UNL     1     -43.787 -49.219  11.049  1.00  0.00     0.165 HD
HETATM    6  H   UNL     1     -45.619 -50.034  12.172  1.00  0.00     0.170 HD
ENDROOT
BRANCH   3   7
HETATM    7  C   UNL     1     -42.056 -48.577  12.072  1.00  0.00     0.172 C 
HETATM    8  C   UNL     1     -42.045 -47.424  13.090  1.00  0.00     0.034 C 
HETATM    9  C   UNL     1     -40.634 -47.104  13.579  1.00  0.00     0.004 C 
HETATM   10  C   UNL     1     -39.788 -46.216  12.660  1.00  0.00     0.015 C 
HETATM   11  C   UNL     1     -40.042 -46.300  11.152  1.00  0.00     0.095 C 
HETATM   12  N   UNL     1     -40.267 -47.650  10.678  1.00  0.00    -0.261 NA
HETATM   13  C   UNL     1     -41.584 -48.084  10.700  1.00  0.00     0.220 C 
HETATM   14  H   UNL     1     -39.620 -48.301  11.107  1.00  0.00     0.130 HD
HETATM   15  O   UNL     1     -42.314 -48.047   9.713  1.00  0.00    -0.278 OA
ENDBRANCH   3   7
BRANCH   4  16
HETATM   16  C   UNL     1     -45.555 -51.729  13.386  1.00  0.00     0.051 A 
HETATM   17  C   UNL     1     -46.334 -51.585  14.535  1.00  0.00     0.032 A 
HETATM   18  C   UNL     1     -46.854 -52.709  15.174  1.00  0.00     0.019 A 
HETATM   19  C   UNL     1     -46.569 -53.956  14.643  1.00  0.00     0.088 A 
HETATM   20  N   UNL     1     -45.808 -54.144  13.545  1.00  0.00    -0.373 N 
HETATM   21  C   UNL     1     -45.318 -53.028  12.947  1.00  0.00     0.117 A 
ATOM     22  HN  UNL     1     -45.611 -55.077  13.182  1.00  0.00     0.164 HD
ENDBRANCH   4  16
TORSDOF 2
ENDMDL
MODEL 6
REMARK VINA RESULT:      -5.7      4.314      5.689
REMARK  2 active torsions:
REMARK  status: ('A' for Active; 'I' for Inactive)
REMARK       I    between atoms: C_2  and  N_3 
REMARK       I    between atoms: C_2  and  N_12 
REMARK    1  A    between atoms: N_3  and  C_4 
REMARK    2  A    between atoms: N_12  and  C_13 
ROOT
HETATM    1  O   UNL     1     -43.394 -49.596  13.599  1.00  0.00    -0.247 OA
HETATM    2  C   UNL     1     -43.053 -50.397  12.736  1.00  0.00     0.321 C 
HETATM    3  N   UNL     1     -43.508 -51.693  12.736  1.00  0.00    -0.330 N 
HETATM    4  N   UNL     1     -42.175 -50.145  11.710  1.00  0.00    -0.308 N 
HETATM    5  H   UNL     1     -43.599 -52.168  11.845  1.00  0.00     0.165 HD
HETATM    6  H   UNL     1     -41.720 -50.957  11.315  1.00  0.00     0.170 HD
ENDROOT
BRANCH   3   7
HETATM    7  C   UNL     1     -44.470 -52.079  13.766  1.00  0.00     0.172 C 
HETATM    8  C   UNL     1     -43.796 -52.968  14.824  1.00  0.00     0.034 C 
HETATM    9  C   UNL     1     -44.582 -52.998  16.134  1.00  0.00     0.004 C 
HETATM   10  C   UNL     1     -45.776 -53.957  16.180  1.00  0.00     0.015 C 
HETATM   11  C   UNL     1     -46.518 -54.240  14.870  1.00  0.00     0.095 C 
HETATM   12  N   UNL     1     -46.695 -53.066  14.042  1.00  0.00    -0.261 NA
HETATM   13  C   UNL     1     -45.671 -52.801  13.145  1.00  0.00     0.220 C 
HETATM   14  H   UNL     1     -46.963 -52.262  14.597  1.00  0.00     0.130 HD
HETATM   15  O   UNL     1     -45.711 -53.144  11.966  1.00  0.00    -0.278 OA
ENDBRANCH   3   7
BRANCH   4  16
HETATM   16  C   UNL     1     -41.645 -48.873  11.389  1.00  0.00     0.051 A 
HETATM   17  C   UNL     1     -42.401 -47.854  10.806  1.00  0.00     0.032 A 
HETATM   18  C   UNL     1     -41.811 -46.626  10.513  1.00  0.00     0.019 A 
HETATM   19  C   UNL     1     -40.469 -46.455  10.806  1.00  0.00     0.088 A 
HETATM   20  N   UNL     1     -39.696 -47.417  11.355  1.00  0.00    -0.373 N 
HETATM   21  C   UNL     1     -40.303 -48.600  11.628  1.00  0.00     0.117 A 
ATOM     22  HN  UNL     1     -38.708 -47.262  11.554  1.00  0.00     0.164 HD
ENDBRANCH   4  16
TORSDOF 2
ENDMDL
MODEL 7
REMARK VINA RESULT:      -5.5      4.214      6.798
REMARK  2 active torsions:
REMARK  status: ('A' for Active; 'I' for Inactive)
REMARK       I    between atoms: C_2  and  N_3 
REMARK       I    between atoms: C_2  and  N_12 
REMARK    1  A    between atoms: N_3  and  C_4 
REMARK    2  A    between atoms: N_12  and  C_13 
ROOT
HETATM    1  O   UNL     1     -42.723 -51.386  13.441  1.00  0.00    -0.247 OA
HETATM    2  C   UNL     1     -42.502 -52.015  12.412  1.00  0.00     0.321 C 
HETATM    3  N   UNL     1     -43.426 -52.889  11.891  1.00  0.00    -0.330 N 
HETATM    4  N   UNL     1     -41.340 -51.975  11.681  1.00  0.00    -0.308 N 
HETATM    5  H   UNL     1     -43.438 -53.029  10.887  1.00  0.00     0.165 HD
HETATM    6  H   UNL     1     -41.163 -52.782  11.098  1.00  0.00     0.170 HD
ENDROOT
BRANCH   3   7
HETATM    7  C   UNL     1     -44.716 -53.002  12.567  1.00  0.00     0.172 C 
HETATM    8  C   UNL     1     -45.064 -51.688  13.285  1.00  0.00     0.034 C 
HETATM    9  C   UNL     1     -46.557 -51.573  13.584  1.00  0.00     0.004 C 
HETATM   10  C   UNL     1     -47.053 -52.313  14.831  1.00  0.00     0.015 C 
HETATM   11  C   UNL     1     -46.316 -53.589  15.247  1.00  0.00     0.095 C 
HETATM   12  N   UNL     1     -45.946 -54.433  14.129  1.00  0.00    -0.261 NA
HETATM   13  C   UNL     1     -44.710 -54.170  13.559  1.00  0.00     0.220 C 
HETATM   14  H   UNL     1     -46.698 -54.495  13.452  1.00  0.00     0.130 HD
HETATM   15  O   UNL     1     -43.695 -54.798  13.849  1.00  0.00    -0.278 OA
ENDBRANCH   3   7
BRANCH   4  16
HETATM   16  C   UNL     1     -40.269 -51.080  11.908  1.00  0.00     0.051 A 
HETATM   17  C   UNL     1     -39.242 -51.330  12.820  1.00  0.00     0.032 A 
HETATM   18  C   UNL     1     -38.219 -50.400  12.995  1.00  0.00     0.019 A 
HETATM   19  C   UNL     1     -38.260 -49.233  12.252  1.00  0.00     0.088 A 
HETATM   20  N   UNL     1     -39.240 -48.941  11.371  1.00  0.00    -0.373 N 
HETATM   21  C   UNL     1     -40.220 -49.870  11.225  1.00  0.00     0.117 A 
ATOM     22  HN  UNL     1     -39.244 -48.069  10.842  1.00  0.00     0.164 HD
ENDBRANCH   4  16
TORSDOF 2
ENDMDL
MODEL 8
REMARK VINA RESULT:      -5.5      4.183      5.828
REMARK  2 active torsions:
REMARK  status: ('A' for Active; 'I' for Inactive)
REMARK       I    between atoms: C_2  and  N_3 
REMARK       I    between atoms: C_2  and  N_12 
REMARK    1  A    between atoms: N_3  and  C_4 
REMARK    2  A    between atoms: N_12  and  C_13 
ROOT
HETATM    1  O   UNL     1     -43.692 -49.334  12.652  1.00  0.00    -0.247 OA
HETATM    2  C   UNL     1     -42.749 -50.113  12.735  1.00  0.00     0.321 C 
HETATM    3  N   UNL     1     -42.935 -51.438  13.048  1.00  0.00    -0.330 N 
HETATM    4  N   UNL     1     -41.424 -49.788  12.575  1.00  0.00    -0.308 N 
HETATM    5  H   UNL     1     -42.274 -52.113  12.680  1.00  0.00     0.165 HD
HETATM    6  H   UNL     1     -40.764 -50.415  13.016  1.00  0.00     0.170 HD
ENDROOT
BRANCH   3   7
HETATM    7  C   UNL     1     -44.306 -51.913  13.218  1.00  0.00     0.172 C 
HETATM    8  C   UNL     1     -44.848 -51.506  14.598  1.00  0.00     0.034 C 
HETATM    9  C   UNL     1     -46.374 -51.537  14.648  1.00  0.00     0.004 C 
HETATM   10  C   UNL     1     -47.012 -52.912  14.874  1.00  0.00     0.015 C 
HETATM   11  C   UNL     1     -46.267 -54.142  14.345  1.00  0.00     0.095 C 
HETATM   12  N   UNL     1     -45.671 -53.940  13.041  1.00  0.00    -0.261 NA
HETATM   13  C   UNL     1     -44.380 -53.434  13.042  1.00  0.00     0.220 C 
HETATM   14  H   UNL     1     -46.300 -53.440  12.423  1.00  0.00     0.130 HD
HETATM   15  O   UNL     1     -43.384 -54.147  12.940  1.00  0.00    -0.278 OA
ENDBRANCH   3   7
BRANCH   4  16
HETATM   16  C   UNL     1     -40.943 -48.534  12.130  1.00  0.00     0.051 A 
HETATM   17  C   UNL     1     -40.193 -47.674  12.933  1.00  0.00     0.032 A 
HETATM   18  C   UNL     1     -39.755 -46.450  12.429  1.00  0.00     0.019 A 
HETATM   19  C   UNL     1     -40.092 -46.118  11.129  1.00  0.00     0.088 A 
HETATM   20  N   UNL     1     -40.829 -46.911  10.322  1.00  0.00    -0.373 N 
HETATM   21  C   UNL     1     -41.238 -48.095  10.844  1.00  0.00     0.117 A 
ATOM     22  HN  UNL     1     -41.066 -46.634   9.369  1.00  0.00     0.164 HD
ENDBRANCH   4  16
TORSDOF 2
ENDMDL
MODEL 9
REMARK VINA RESULT:      -5.4      3.548      5.685
REMARK  2 active torsions:
REMARK  status: ('A' for Active; 'I' for Inactive)
REMARK       I    between atoms: C_2  and  N_3 
REMARK       I    between atoms: C_2  and  N_12 
REMARK    1  A    between atoms: N_3  and  C_4 
REMARK    2  A    between atoms: N_12  and  C_13 
ROOT
HETATM    1  O   UNL     1     -41.940 -51.150  13.307  1.00  0.00    -0.247 OA
HETATM    2  C   UNL     1     -41.918 -51.721  12.222  1.00  0.00     0.321 C 
HETATM    3  N   UNL     1     -41.010 -51.382  11.248  1.00  0.00    -0.330 N 
HETATM    4  N   UNL     1     -42.782 -52.710  11.819  1.00  0.00    -0.308 N 
HETATM    5  H   UNL     1     -40.709 -52.103  10.602  1.00  0.00     0.165 HD
HETATM    6  H   UNL     1     -42.881 -52.822  10.819  1.00  0.00     0.170 HD
ENDROOT
BRANCH   3   7
HETATM    7  C   UNL     1     -40.018 -50.357  11.566  1.00  0.00     0.172 C 
HETATM    8  C   UNL     1     -39.577 -50.473  13.034  1.00  0.00     0.034 C 
HETATM    9  C   UNL     1     -38.239 -49.782  13.289  1.00  0.00     0.004 C 
HETATM   10  C   UNL     1     -38.294 -48.265  13.491  1.00  0.00     0.015 C 
HETATM   11  C   UNL     1     -39.399 -47.486  12.773  1.00  0.00     0.095 C 
HETATM   12  N   UNL     1     -39.640 -47.941  11.419  1.00  0.00    -0.261 NA
HETATM   13  C   UNL     1     -40.574 -48.957  11.284  1.00  0.00     0.220 C 
HETATM   14  H   UNL     1     -38.770 -48.125  10.933  1.00  0.00     0.130 HD
HETATM   15  O   UNL     1     -41.749 -48.748  10.992  1.00  0.00    -0.278 OA
ENDBRANCH   3   7
BRANCH   4  16
HETATM   16  C   UNL     1     -43.736 -53.343  12.649  1.00  0.00     0.051 A 
HETATM   17  C   UNL     1     -43.402 -54.314  13.595  1.00  0.00     0.032 A 
HETATM   18  C   UNL     1     -44.397 -54.899  14.377  1.00  0.00     0.019 A 
HETATM   19  C   UNL     1     -45.707 -54.497  14.182  1.00  0.00     0.088 A 
HETATM   20  N   UNL     1     -46.077 -53.574  13.269  1.00  0.00    -0.373 N 
HETATM   21  C   UNL     1     -45.084 -53.024  12.525  1.00  0.00     0.117 A 
ATOM     22  HN  UNL     1     -47.053 -53.303  13.146  1.00  0.00     0.164 HD
ENDBRANCH   4  16
TORSDOF 2
ENDMDL
