MODEL 1
REMARK VINA RESULT:      -6.3      0.000      0.000
REMARK  10 active torsions:
REMARK  status: ('A' for Active; 'I' for Inactive)
REMARK    1  A    between atoms: N_2  and  C_14 
REMARK    2  A    between atoms: C_6  and  N_8 
REMARK    3  A    between atoms: N_8  and  C_20 
REMARK    4  A    between atoms: N_8  and  C_26 
REMARK    5  A    between atoms: C_13  and  C_14 
REMARK    6  A    between atoms: C_13  and  C_25 
REMARK    7  A    between atoms: N_15  and  C_18 
REMARK    8  A    between atoms: C_18  and  C_22 
REMARK    9  A    between atoms: C_20  and  C_22 
REMARK   10  A    between atoms: C_25  and  O_27 
ROOT
HETATM    1  C   UNL     1     -42.349 -49.531  12.225  1.00  0.00     0.122 A 
HETATM    2  N   UNL     1     -41.983 -51.107  13.699  1.00  0.00    -0.326 N 
HETATM    3  C   UNL     1     -41.480 -50.564  12.550  1.00  0.00     0.140 A 
HETATM    4  N   UNL     1     -43.434 -49.541  13.085  1.00  0.00    -0.346 N 
ATOM      5  HN  UNL     1     -44.245 -48.922  13.066  1.00  0.00     0.167 HD
HETATM    6  C   UNL     1     -41.951 -48.677  11.169  1.00  0.00     0.135 A 
HETATM    7  C   UNL     1     -43.195 -50.520  13.931  1.00  0.00     0.185 C 
HETATM    8  N   UNL     1     -40.347 -50.911  11.923  1.00  0.00    -0.336 N 
ATOM      9  HN  UNL     1     -39.753 -51.695  12.193  1.00  0.00     0.168 HD
HETATM   10  N   UNL     1     -40.804 -49.007  10.504  1.00  0.00    -0.337 N 
ATOM     11  HN  UNL     1     -40.482 -48.438   9.721  1.00  0.00     0.168 HD
HETATM   12  C   UNL     1     -40.099 -50.090  10.892  1.00  0.00     0.183 A 
ENDROOT
BRANCH   6  13
HETATM   13  N   UNL     1     -42.613 -47.480  10.848  1.00  0.00    -0.364 N 
BRANCH  13  14
HETATM   14  C   UNL     1     -44.047 -47.649  10.568  1.00  0.00     0.142 C 
BRANCH  14  15
HETATM   15  C   UNL     1     -44.451 -47.076   9.199  1.00  0.00     0.088 C 
HETATM   16  C   UNL     1     -45.935 -47.351   8.940  1.00  0.00     0.026 C 
BRANCH  15  17
HETATM   17  C   UNL     1     -43.645 -47.734   8.091  1.00  0.00    -0.072 C 
BRANCH  17  18
HETATM   18  N   UNL     1     -42.977 -48.281   7.172  1.00  0.00    -0.369 N 
ATOM     19  HN2 UNL     1     -43.551 -47.818   7.877  1.00  0.00     0.165 HD
ATOM     20  HN1 UNL     1     -42.437 -48.723   6.428  1.00  0.00     0.165 HD
ENDBRANCH  17  18
ENDBRANCH  15  17
ENDBRANCH  14  15
ENDBRANCH  13  14
BRANCH  13  21
HETATM   21  C   UNL     1     -42.172 -46.322  11.632  1.00  0.00     0.120 C 
HETATM   22  C   UNL     1     -41.228 -45.393  10.870  1.00  0.00     0.026 C 
ENDBRANCH  13  21
ENDBRANCH   6  13
BRANCH   2  23
HETATM   23  C   UNL     1     -41.321 -52.102  14.529  1.00  0.00     0.147 C 
BRANCH  23  24
HETATM   24  C   UNL     1     -41.571 -53.541  14.084  1.00  0.00     0.040 C 
HETATM   25  C   UNL     1     -42.942 -53.862  13.450  1.00  0.00     0.183 C 
HETATM   26  O   UNL     1     -43.158 -54.941  14.395  1.00  0.00    -0.389 OA
HETATM   27  C   UNL     1     -42.081 -54.443  15.227  1.00  0.00     0.183 C 
BRANCH  24  28
HETATM   28  C   UNL     1     -40.419 -54.173  13.311  1.00  0.00     0.179 C 
BRANCH  28  29
HETATM   29  O   UNL     1     -40.607 -53.935  11.920  1.00  0.00    -0.400 OA
HETATM   30  H   UNL     1     -41.535 -54.127  11.702  1.00  0.00     0.209 HD
ENDBRANCH  28  29
ENDBRANCH  24  28
ENDBRANCH  23  24
ENDBRANCH   2  23
TORSDOF 10
ENDMDL
MODEL 2
REMARK VINA RESULT:      -6.2      3.273      6.450
REMARK  10 active torsions:
REMARK  status: ('A' for Active; 'I' for Inactive)
REMARK    1  A    between atoms: N_2  and  C_14 
REMARK    2  A    between atoms: C_6  and  N_8 
REMARK    3  A    between atoms: N_8  and  C_20 
REMARK    4  A    between atoms: N_8  and  C_26 
REMARK    5  A    between atoms: C_13  and  C_14 
REMARK    6  A    between atoms: C_13  and  C_25 
REMARK    7  A    between atoms: N_15  and  C_18 
REMARK    8  A    between atoms: C_18  and  C_22 
REMARK    9  A    between atoms: C_20  and  C_22 
REMARK   10  A    between atoms: C_25  and  O_27 
ROOT
HETATM    1  C   UNL     1     -42.598 -50.314  13.219  1.00  0.00     0.122 A 
HETATM    2  N   UNL     1     -42.110 -48.750  11.767  1.00  0.00    -0.326 N 
HETATM    3  C   UNL     1     -41.886 -50.068  12.053  1.00  0.00     0.140 A 
HETATM    4  N   UNL     1     -43.129 -49.131  13.704  1.00  0.00    -0.346 N 
ATOM      5  HN  UNL     1     -43.669 -48.998  14.559  1.00  0.00     0.167 HD
HETATM    6  C   UNL     1     -42.689 -51.664  13.633  1.00  0.00     0.135 A 
HETATM    7  C   UNL     1     -42.786 -48.212  12.826  1.00  0.00     0.185 C 
HETATM    8  N   UNL     1     -41.190 -50.945  11.316  1.00  0.00    -0.336 N 
ATOM      9  HN  UNL     1     -40.666 -50.707  10.475  1.00  0.00     0.168 HD
HETATM   10  N   UNL     1     -41.986 -52.583  12.908  1.00  0.00    -0.337 N 
ATOM     11  HN  UNL     1     -41.997 -53.567  13.175  1.00  0.00     0.168 HD
HETATM   12  C   UNL     1     -41.275 -52.180  11.835  1.00  0.00     0.183 A 
ENDROOT
BRANCH   6  13
HETATM   13  N   UNL     1     -43.529 -52.102  14.671  1.00  0.00    -0.364 N 
BRANCH  13  14
HETATM   14  C   UNL     1     -44.821 -52.632  14.208  1.00  0.00     0.142 C 
BRANCH  14  15
HETATM   15  C   UNL     1     -45.827 -51.520  13.869  1.00  0.00     0.088 C 
HETATM   16  C   UNL     1     -46.922 -51.468  14.938  1.00  0.00     0.026 C 
BRANCH  15  17
HETATM   17  C   UNL     1     -46.485 -51.791  12.526  1.00  0.00    -0.072 C 
BRANCH  17  18
HETATM   18  N   UNL     1     -47.029 -52.016  11.412  1.00  0.00    -0.369 N 
ATOM     19  HN2 UNL     1     -46.638 -51.840  12.337  1.00  0.00     0.165 HD
ATOM     20  HN1 UNL     1     -47.470 -52.198  10.509  1.00  0.00     0.165 HD
ENDBRANCH  17  18
ENDBRANCH  15  17
ENDBRANCH  14  15
ENDBRANCH  13  14
BRANCH  13  21
HETATM   21  C   UNL     1     -42.828 -52.785  15.762  1.00  0.00     0.120 C 
HETATM   22  C   UNL     1     -43.220 -54.254  15.913  1.00  0.00     0.026 C 
ENDBRANCH  13  21
ENDBRANCH   6  13
BRANCH   2  23
HETATM   23  C   UNL     1     -41.723 -48.069  10.541  1.00  0.00     0.147 C 
BRANCH  23  24
HETATM   24  C   UNL     1     -42.836 -47.220   9.930  1.00  0.00     0.040 C 
HETATM   25  C   UNL     1     -44.293 -47.654  10.201  1.00  0.00     0.183 C 
HETATM   26  O   UNL     1     -44.585 -47.662   8.781  1.00  0.00    -0.389 OA
HETATM   27  C   UNL     1     -43.169 -47.619   8.478  1.00  0.00     0.183 C 
BRANCH  24  28
HETATM   28  C   UNL     1     -42.646 -45.716  10.094  1.00  0.00     0.179 C 
BRANCH  28  29
HETATM   29  O   UNL     1     -43.752 -45.041   9.503  1.00  0.00    -0.400 OA
HETATM   30  H   UNL     1     -44.178 -44.500  10.189  1.00  0.00     0.209 HD
ENDBRANCH  28  29
ENDBRANCH  24  28
ENDBRANCH  23  24
ENDBRANCH   2  23
TORSDOF 10
ENDMDL
MODEL 3
REMARK VINA RESULT:      -6.1      3.777      7.029
REMARK  10 active torsions:
REMARK  status: ('A' for Active; 'I' for Inactive)
REMARK    1  A    between atoms: N_2  and  C_14 
REMARK    2  A    between atoms: C_6  and  N_8 
REMARK    3  A    between atoms: N_8  and  C_20 
REMARK    4  A    between atoms: N_8  and  C_26 
REMARK    5  A    between atoms: C_13  and  C_14 
REMARK    6  A    between atoms: C_13  and  C_25 
REMARK    7  A    between atoms: N_15  and  C_18 
REMARK    8  A    between atoms: C_18  and  C_22 
REMARK    9  A    between atoms: C_20  and  C_22 
REMARK   10  A    between atoms: C_25  and  O_27 
ROOT
HETATM    1  C   UNL     1     -40.390 -48.708  11.621  1.00  0.00     0.122 A 
HETATM    2  N   UNL     1     -42.275 -47.728  11.094  1.00  0.00    -0.326 N 
HETATM    3  C   UNL     1     -41.755 -48.926  11.496  1.00  0.00     0.140 A 
HETATM    4  N   UNL     1     -40.074 -47.438  11.168  1.00  0.00    -0.346 N 
ATOM      5  HN  UNL     1     -39.148 -47.014  11.109  1.00  0.00     0.167 HD
HETATM    6  C   UNL     1     -39.633 -49.748  12.211  1.00  0.00     0.135 A 
HETATM    7  C   UNL     1     -41.224 -46.896  10.829  1.00  0.00     0.185 C 
HETATM    8  N   UNL     1     -42.437 -50.045  11.781  1.00  0.00    -0.336 N 
ATOM      9  HN  UNL     1     -43.442 -50.159  11.651  1.00  0.00     0.168 HD
HETATM   10  N   UNL     1     -40.296 -50.905  12.507  1.00  0.00    -0.337 N 
ATOM     11  HN  UNL     1     -39.795 -51.695  12.913  1.00  0.00     0.168 HD
HETATM   12  C   UNL     1     -41.619 -50.995  12.259  1.00  0.00     0.183 A 
ENDROOT
BRANCH   6  13
HETATM   13  N   UNL     1     -38.287 -49.610  12.586  1.00  0.00    -0.364 N 
BRANCH  13  14
HETATM   14  C   UNL     1     -38.092 -49.320  14.015  1.00  0.00     0.142 C 
BRANCH  14  15
HETATM   15  C   UNL     1     -37.339 -48.000  14.250  1.00  0.00     0.088 C 
HETATM   16  C   UNL     1     -36.623 -48.046  15.603  1.00  0.00     0.026 C 
BRANCH  15  17
HETATM   17  C   UNL     1     -38.311 -46.831  14.266  1.00  0.00    -0.072 C 
BRANCH  17  18
HETATM   18  N   UNL     1     -39.117 -45.862  14.280  1.00  0.00    -0.369 N 
ATOM     19  HN2 UNL     1     -38.507 -46.678  14.251  1.00  0.00     0.165 HD
ATOM     20  HN1 UNL     1     -39.769 -45.077  14.291  1.00  0.00     0.165 HD
ENDBRANCH  17  18
ENDBRANCH  15  17
ENDBRANCH  14  15
ENDBRANCH  13  14
BRANCH  13  21
HETATM   21  C   UNL     1     -37.379 -50.550  11.921  1.00  0.00     0.120 C 
HETATM   22  C   UNL     1     -36.994 -50.127  10.504  1.00  0.00     0.026 C 
ENDBRANCH  13  21
ENDBRANCH   6  13
BRANCH   2  23
HETATM   23  C   UNL     1     -43.691 -47.403  11.004  1.00  0.00     0.147 C 
BRANCH  23  24
HETATM   24  C   UNL     1     -44.197 -47.247   9.571  1.00  0.00     0.040 C 
HETATM   25  C   UNL     1     -43.292 -47.771   8.435  1.00  0.00     0.183 C 
HETATM   26  O   UNL     1     -43.341 -46.487   7.764  1.00  0.00    -0.389 OA
HETATM   27  C   UNL     1     -43.868 -45.868   8.964  1.00  0.00     0.183 C 
BRANCH  24  28
HETATM   28  C   UNL     1     -45.656 -47.642   9.370  1.00  0.00     0.179 C 
BRANCH  28  29
HETATM   29  O   UNL     1     -46.248 -46.762   8.420  1.00  0.00    -0.400 OA
HETATM   30  H   UNL     1     -47.063 -46.400   8.808  1.00  0.00     0.209 HD
ENDBRANCH  28  29
ENDBRANCH  24  28
ENDBRANCH  23  24
ENDBRANCH   2  23
TORSDOF 10
ENDMDL
MODEL 4
REMARK VINA RESULT:      -6.0      3.083      6.157
REMARK  10 active torsions:
REMARK  status: ('A' for Active; 'I' for Inactive)
REMARK    1  A    between atoms: N_2  and  C_14 
REMARK    2  A    between atoms: C_6  and  N_8 
REMARK    3  A    between atoms: N_8  and  C_20 
REMARK    4  A    between atoms: N_8  and  C_26 
REMARK    5  A    between atoms: C_13  and  C_14 
REMARK    6  A    between atoms: C_13  and  C_25 
REMARK    7  A    between atoms: N_15  and  C_18 
REMARK    8  A    between atoms: C_18  and  C_22 
REMARK    9  A    between atoms: C_20  and  C_22 
REMARK   10  A    between atoms: C_25  and  O_27 
ROOT
HETATM    1  C   UNL     1     -42.015 -50.858  13.583  1.00  0.00     0.122 A 
HETATM    2  N   UNL     1     -40.809 -49.151  12.935  1.00  0.00    -0.326 N 
HETATM    3  C   UNL     1     -41.114 -50.444  12.612  1.00  0.00     0.140 A 
HETATM    4  N   UNL     1     -42.145 -49.879  14.553  1.00  0.00    -0.346 N 
ATOM      5  HN  UNL     1     -42.710 -49.917  15.401  1.00  0.00     0.167 HD
HETATM    6  C   UNL     1     -42.640 -52.111  13.375  1.00  0.00     0.135 A 
HETATM    7  C   UNL     1     -41.381 -48.887  14.147  1.00  0.00     0.185 C 
HETATM    8  N   UNL     1     -40.688 -51.130  11.542  1.00  0.00    -0.336 N 
ATOM      9  HN  UNL     1     -40.006 -50.784  10.867  1.00  0.00     0.168 HD
HETATM   10  N   UNL     1     -42.224 -52.839  12.296  1.00  0.00    -0.337 N 
ATOM     11  HN  UNL     1     -42.624 -53.759  12.112  1.00  0.00     0.168 HD
HETATM   12  C   UNL     1     -41.279 -52.332  11.477  1.00  0.00     0.183 A 
ENDROOT
BRANCH   6  13
HETATM   13  N   UNL     1     -43.711 -52.582  14.152  1.00  0.00    -0.364 N 
BRANCH  13  14
HETATM   14  C   UNL     1     -44.948 -52.808  13.388  1.00  0.00     0.142 C 
BRANCH  14  15
HETATM   15  C   UNL     1     -45.816 -51.543  13.288  1.00  0.00     0.088 C 
HETATM   16  C   UNL     1     -46.763 -51.467  14.489  1.00  0.00     0.026 C 
BRANCH  15  17
HETATM   17  C   UNL     1     -46.657 -51.577  12.021  1.00  0.00    -0.072 C 
BRANCH  17  18
HETATM   18  N   UNL     1     -47.354 -51.606  10.972  1.00  0.00    -0.369 N 
ATOM     19  HN2 UNL     1     -46.823 -51.621  11.842  1.00  0.00     0.165 HD
ATOM     20  HN1 UNL     1     -47.918 -51.629  10.122  1.00  0.00     0.165 HD
ENDBRANCH  17  18
ENDBRANCH  15  17
ENDBRANCH  14  15
ENDBRANCH  13  14
BRANCH  13  21
HETATM   21  C   UNL     1     -43.324 -53.550  15.183  1.00  0.00     0.120 C 
HETATM   22  C   UNL     1     -43.624 -54.999  14.802  1.00  0.00     0.026 C 
ENDBRANCH  13  21
ENDBRANCH   6  13
BRANCH   2  23
HETATM   23  C   UNL     1     -40.043 -48.228  12.110  1.00  0.00     0.147 C 
BRANCH  23  24
HETATM   24  C   UNL     1     -40.900 -47.185  11.395  1.00  0.00     0.040 C 
HETATM   25  C   UNL     1     -40.168 -46.024  10.689  1.00  0.00     0.183 C 
HETATM   26  O   UNL     1     -40.963 -45.047  11.408  1.00  0.00    -0.389 OA
HETATM   27  C   UNL     1     -41.400 -46.070  12.336  1.00  0.00     0.183 C 
BRANCH  24  28
HETATM   28  C   UNL     1     -42.017 -47.767  10.534  1.00  0.00     0.179 C 
BRANCH  28  29
HETATM   29  O   UNL     1     -41.464 -48.736   9.649  1.00  0.00    -0.400 OA
HETATM   30  H   UNL     1     -41.005 -48.265   8.933  1.00  0.00     0.209 HD
ENDBRANCH  28  29
ENDBRANCH  24  28
ENDBRANCH  23  24
ENDBRANCH   2  23
TORSDOF 10
ENDMDL
MODEL 5
REMARK VINA RESULT:      -5.9      2.657      3.582
REMARK  10 active torsions:
REMARK  status: ('A' for Active; 'I' for Inactive)
REMARK    1  A    between atoms: N_2  and  C_14 
REMARK    2  A    between atoms: C_6  and  N_8 
REMARK    3  A    between atoms: N_8  and  C_20 
REMARK    4  A    between atoms: N_8  and  C_26 
REMARK    5  A    between atoms: C_13  and  C_14 
REMARK    6  A    between atoms: C_13  and  C_25 
REMARK    7  A    between atoms: N_15  and  C_18 
REMARK    8  A    between atoms: C_18  and  C_22 
REMARK    9  A    between atoms: C_20  and  C_22 
REMARK   10  A    between atoms: C_25  and  O_27 
ROOT
HETATM    1  C   UNL     1     -42.248 -50.493  12.796  1.00  0.00     0.122 A 
HETATM    2  N   UNL     1     -43.586 -51.627  14.105  1.00  0.00    -0.326 N 
HETATM    3  C   UNL     1     -42.680 -51.778  13.093  1.00  0.00     0.140 A 
HETATM    4  N   UNL     1     -42.983 -49.570  13.520  1.00  0.00    -0.346 N 
ATOM      5  HN  UNL     1     -42.910 -48.554  13.483  1.00  0.00     0.167 HD
HETATM    6  C   UNL     1     -41.157 -50.383  11.900  1.00  0.00     0.135 A 
HETATM    7  C   UNL     1     -43.797 -50.286  14.266  1.00  0.00     0.185 C 
HETATM    8  N   UNL     1     -42.251 -52.932  12.561  1.00  0.00    -0.336 N 
ATOM      9  HN  UNL     1     -42.619 -53.852  12.803  1.00  0.00     0.168 HD
HETATM   10  N   UNL     1     -40.700 -51.539  11.335  1.00  0.00    -0.337 N 
ATOM     11  HN  UNL     1     -39.931 -51.515  10.666  1.00  0.00     0.168 HD
HETATM   12  C   UNL     1     -41.273 -52.714  11.669  1.00  0.00     0.183 A 
ENDROOT
BRANCH   6  13
HETATM   13  N   UNL     1     -40.479 -49.178  11.650  1.00  0.00    -0.364 N 
BRANCH  13  14
HETATM   14  C   UNL     1     -41.286 -48.174  10.940  1.00  0.00     0.142 C 
BRANCH  14  15
HETATM   15  C   UNL     1     -41.127 -46.765  11.534  1.00  0.00     0.088 C 
HETATM   16  C   UNL     1     -42.504 -46.117  11.705  1.00  0.00     0.026 C 
BRANCH  15  17
HETATM   17  C   UNL     1     -40.301 -45.889  10.606  1.00  0.00    -0.072 C 
BRANCH  17  18
HETATM   18  N   UNL     1     -39.616 -45.164   9.835  1.00  0.00    -0.369 N 
ATOM     19  HN2 UNL     1     -40.159 -45.794  10.425  1.00  0.00     0.165 HD
ATOM     20  HN1 UNL     1     -39.062 -44.576   9.212  1.00  0.00     0.165 HD
ENDBRANCH  17  18
ENDBRANCH  15  17
ENDBRANCH  14  15
ENDBRANCH  13  14
BRANCH  13  21
HETATM   21  C   UNL     1     -39.605 -48.745  12.746  1.00  0.00     0.120 C 
HETATM   22  C   UNL     1     -38.147 -49.167  12.567  1.00  0.00     0.026 C 
ENDBRANCH  13  21
ENDBRANCH   6  13
BRANCH   2  23
HETATM   23  C   UNL     1     -44.181 -52.704  14.882  1.00  0.00     0.147 C 
BRANCH  23  24
HETATM   24  C   UNL     1     -45.388 -53.354  14.209  1.00  0.00     0.040 C 
HETATM   25  C   UNL     1     -46.309 -54.228  15.088  1.00  0.00     0.183 C 
HETATM   26  O   UNL     1     -46.178 -55.342  14.168  1.00  0.00    -0.389 OA
HETATM   27  C   UNL     1     -45.047 -54.698  13.532  1.00  0.00     0.183 C 
BRANCH  24  28
HETATM   28  C   UNL     1     -46.180 -52.424  13.296  1.00  0.00     0.179 C 
BRANCH  28  29
HETATM   29  O   UNL     1     -46.345 -53.048  12.027  1.00  0.00    -0.400 OA
HETATM   30  H   UNL     1     -47.242 -53.420  11.986  1.00  0.00     0.209 HD
ENDBRANCH  28  29
ENDBRANCH  24  28
ENDBRANCH  23  24
ENDBRANCH   2  23
TORSDOF 10
ENDMDL
MODEL 6
REMARK VINA RESULT:      -5.9      3.724      5.648
REMARK  10 active torsions:
REMARK  status: ('A' for Active; 'I' for Inactive)
REMARK    1  A    between atoms: N_2  and  C_14 
REMARK    2  A    between atoms: C_6  and  N_8 
REMARK    3  A    between atoms: N_8  and  C_20 
REMARK    4  A    between atoms: N_8  and  C_26 
REMARK    5  A    between atoms: C_13  and  C_14 
REMARK    6  A    between atoms: C_13  and  C_25 
REMARK    7  A    between atoms: N_15  and  C_18 
REMARK    8  A    between atoms: C_18  and  C_22 
REMARK    9  A    between atoms: C_20  and  C_22 
REMARK   10  A    between atoms: C_25  and  O_27 
ROOT
HETATM    1  C   UNL     1     -42.230 -51.444  13.616  1.00  0.00     0.122 A 
HETATM    2  N   UNL     1     -40.795 -49.814  13.348  1.00  0.00    -0.326 N 
HETATM    3  C   UNL     1     -41.105 -51.065  12.896  1.00  0.00     0.140 A 
HETATM    4  N   UNL     1     -42.510 -50.494  14.584  1.00  0.00    -0.346 N 
ATOM      5  HN  UNL     1     -43.255 -50.520  15.281  1.00  0.00     0.167 HD
HETATM    6  C   UNL     1     -42.875 -52.635  13.206  1.00  0.00     0.135 A 
HETATM    7  C   UNL     1     -41.608 -49.551  14.415  1.00  0.00     0.185 C 
HETATM    8  N   UNL     1     -40.495 -51.742  11.912  1.00  0.00    -0.336 N 
ATOM      9  HN  UNL     1     -39.656 -51.425  11.427  1.00  0.00     0.168 HD
HETATM   10  N   UNL     1     -42.275 -53.352  12.210  1.00  0.00    -0.337 N 
ATOM     11  HN  UNL     1     -42.684 -54.230  11.890  1.00  0.00     0.168 HD
HETATM   12  C   UNL     1     -41.136 -52.891  11.652  1.00  0.00     0.183 A 
ENDROOT
BRANCH   6  13
HETATM   13  N   UNL     1     -44.124 -53.049  13.696  1.00  0.00    -0.364 N 
BRANCH  13  14
HETATM   14  C   UNL     1     -45.224 -52.899  12.731  1.00  0.00     0.142 C 
BRANCH  14  15
HETATM   15  C   UNL     1     -45.926 -51.536  12.848  1.00  0.00     0.088 C 
HETATM   16  C   UNL     1     -46.733 -51.479  14.148  1.00  0.00     0.026 C 
BRANCH  15  17
HETATM   17  C   UNL     1     -46.883 -51.331  11.684  1.00  0.00    -0.072 C 
BRANCH  17  18
HETATM   18  N   UNL     1     -47.677 -51.163  10.720  1.00  0.00    -0.369 N 
ATOM     19  HN2 UNL     1     -47.012 -51.341  11.472  1.00  0.00     0.165 HD
ATOM     20  HN1 UNL     1     -48.321 -51.025   9.940  1.00  0.00     0.165 HD
ENDBRANCH  17  18
ENDBRANCH  15  17
ENDBRANCH  14  15
ENDBRANCH  13  14
BRANCH  13  21
HETATM   21  C   UNL     1     -44.070 -54.253  14.533  1.00  0.00     0.120 C 
HETATM   22  C   UNL     1     -45.108 -55.308  14.151  1.00  0.00     0.026 C 
ENDBRANCH  13  21
ENDBRANCH   6  13
BRANCH   2  23
HETATM   23  C   UNL     1     -39.801 -48.923  12.767  1.00  0.00     0.147 C 
BRANCH  23  24
HETATM   24  C   UNL     1     -38.360 -49.318  13.082  1.00  0.00     0.040 C 
HETATM   25  C   UNL     1     -38.126 -50.259  14.284  1.00  0.00     0.183 C 
HETATM   26  O   UNL     1     -37.175 -49.330  14.862  1.00  0.00    -0.389 OA
HETATM   27  C   UNL     1     -37.634 -48.286  13.969  1.00  0.00     0.183 C 
BRANCH  24  28
HETATM   28  C   UNL     1     -37.536 -49.726  11.865  1.00  0.00     0.179 C 
BRANCH  28  29
HETATM   29  O   UNL     1     -38.416 -50.000  10.780  1.00  0.00    -0.400 OA
HETATM   30  H   UNL     1     -39.055 -49.270  10.716  1.00  0.00     0.209 HD
ENDBRANCH  28  29
ENDBRANCH  24  28
ENDBRANCH  23  24
ENDBRANCH   2  23
TORSDOF 10
ENDMDL
MODEL 7
REMARK VINA RESULT:      -5.7      1.809      2.607
REMARK  10 active torsions:
REMARK  status: ('A' for Active; 'I' for Inactive)
REMARK    1  A    between atoms: N_2  and  C_14 
REMARK    2  A    between atoms: C_6  and  N_8 
REMARK    3  A    between atoms: N_8  and  C_20 
REMARK    4  A    between atoms: N_8  and  C_26 
REMARK    5  A    between atoms: C_13  and  C_14 
REMARK    6  A    between atoms: C_13  and  C_25 
REMARK    7  A    between atoms: N_15  and  C_18 
REMARK    8  A    between atoms: C_18  and  C_22 
REMARK    9  A    between atoms: C_20  and  C_22 
REMARK   10  A    between atoms: C_25  and  O_27 
ROOT
HETATM    1  C   UNL     1     -42.079 -49.871  12.468  1.00  0.00     0.122 A 
HETATM    2  N   UNL     1     -42.036 -51.920  13.235  1.00  0.00    -0.326 N 
HETATM    3  C   UNL     1     -42.319 -50.635  13.603  1.00  0.00     0.140 A 
HETATM    4  N   UNL     1     -41.528 -50.664  11.476  1.00  0.00    -0.346 N 
ATOM      5  HN  UNL     1     -41.220 -50.371  10.548  1.00  0.00     0.167 HD
HETATM    6  C   UNL     1     -42.477 -48.514  12.522  1.00  0.00     0.135 A 
HETATM    7  C   UNL     1     -41.487 -51.876  11.985  1.00  0.00     0.185 C 
HETATM    8  N   UNL     1     -42.799 -50.220  14.784  1.00  0.00    -0.336 N 
ATOM      9  HN  UNL     1     -42.938 -50.823  15.595  1.00  0.00     0.168 HD
HETATM   10  N   UNL     1     -42.964 -48.058  13.714  1.00  0.00    -0.337 N 
ATOM     11  HN  UNL     1     -43.245 -47.083  13.815  1.00  0.00     0.168 HD
HETATM   12  C   UNL     1     -43.071 -48.907  14.757  1.00  0.00     0.183 A 
ENDROOT
BRANCH   6  13
HETATM   13  N   UNL     1     -42.486 -47.664  11.404  1.00  0.00    -0.364 N 
BRANCH  13  14
HETATM   14  C   UNL     1     -43.807 -47.523  10.772  1.00  0.00     0.142 C 
BRANCH  14  15
HETATM   15  C   UNL     1     -43.710 -47.181   9.276  1.00  0.00     0.088 C 
HETATM   16  C   UNL     1     -43.875 -45.672   9.078  1.00  0.00     0.026 C 
BRANCH  15  17
HETATM   17  C   UNL     1     -44.810 -47.886   8.498  1.00  0.00    -0.072 C 
BRANCH  17  18
HETATM   18  N   UNL     1     -45.721 -48.471   7.853  1.00  0.00    -0.369 N 
ATOM     19  HN2 UNL     1     -45.006 -48.018   8.422  1.00  0.00     0.165 HD
ATOM     20  HN1 UNL     1     -46.458 -48.944   7.330  1.00  0.00     0.165 HD
ENDBRANCH  17  18
ENDBRANCH  15  17
ENDBRANCH  14  15
ENDBRANCH  13  14
BRANCH  13  21
HETATM   21  C   UNL     1     -41.634 -46.479  11.545  1.00  0.00     0.120 C 
HETATM   22  C   UNL     1     -40.231 -46.664  10.967  1.00  0.00     0.026 C 
ENDBRANCH  13  21
ENDBRANCH   6  13
BRANCH   2  23
HETATM   23  C   UNL     1     -42.309 -53.110  14.028  1.00  0.00     0.147 C 
BRANCH  23  24
HETATM   24  C   UNL     1     -43.747 -53.612  13.910  1.00  0.00     0.040 C 
HETATM   25  C   UNL     1     -44.740 -53.196  15.017  1.00  0.00     0.183 C 
HETATM   26  O   UNL     1     -45.100 -54.581  15.254  1.00  0.00    -0.389 OA
HETATM   27  C   UNL     1     -43.941 -55.022  14.505  1.00  0.00     0.183 C 
BRANCH  24  28
HETATM   28  C   UNL     1     -44.351 -53.477  12.517  1.00  0.00     0.179 C 
BRANCH  28  29
HETATM   29  O   UNL     1     -45.756 -53.696  12.596  1.00  0.00    -0.400 OA
HETATM   30  H   UNL     1     -45.934 -54.236  13.385  1.00  0.00     0.209 HD
ENDBRANCH  28  29
ENDBRANCH  24  28
ENDBRANCH  23  24
ENDBRANCH   2  23
TORSDOF 10
ENDMDL
MODEL 8
REMARK VINA RESULT:      -5.7      1.239      2.802
REMARK  10 active torsions:
REMARK  status: ('A' for Active; 'I' for Inactive)
REMARK    1  A    between atoms: N_2  and  C_14 
REMARK    2  A    between atoms: C_6  and  N_8 
REMARK    3  A    between atoms: N_8  and  C_20 
REMARK    4  A    between atoms: N_8  and  C_26 
REMARK    5  A    between atoms: C_13  and  C_14 
REMARK    6  A    between atoms: C_13  and  C_25 
REMARK    7  A    between atoms: N_15  and  C_18 
REMARK    8  A    between atoms: C_18  and  C_22 
REMARK    9  A    between atoms: C_20  and  C_22 
REMARK   10  A    between atoms: C_25  and  O_27 
ROOT
HETATM    1  C   UNL     1     -41.855 -49.673  12.082  1.00  0.00     0.122 A 
HETATM    2  N   UNL     1     -41.932 -51.302  13.541  1.00  0.00    -0.326 N 
HETATM    3  C   UNL     1     -41.088 -50.669  12.672  1.00  0.00     0.140 A 
HETATM    4  N   UNL     1     -43.174 -49.793  12.486  1.00  0.00    -0.346 N 
ATOM      5  HN  UNL     1     -43.967 -49.224  12.191  1.00  0.00     0.167 HD
HETATM    6  C   UNL     1     -41.166 -48.740  11.270  1.00  0.00     0.135 A 
HETATM    7  C   UNL     1     -43.186 -50.801  13.332  1.00  0.00     0.185 C 
HETATM    8  N   UNL     1     -39.783 -50.914  12.492  1.00  0.00    -0.336 N 
ATOM      9  HN  UNL     1     -39.270 -51.674  12.938  1.00  0.00     0.168 HD
HETATM   10  N   UNL     1     -39.835 -48.965  11.061  1.00  0.00    -0.337 N 
ATOM     11  HN  UNL     1     -39.295 -48.337  10.466  1.00  0.00     0.168 HD
HETATM   12  C   UNL     1     -39.240 -50.024  11.647  1.00  0.00     0.183 A 
ENDROOT
BRANCH   6  13
HETATM   13  N   UNL     1     -41.755 -47.569  10.765  1.00  0.00    -0.364 N 
BRANCH  13  14
HETATM   14  C   UNL     1     -40.854 -46.406  10.750  1.00  0.00     0.142 C 
BRANCH  14  15
HETATM   15  C   UNL     1     -40.994 -45.537  12.010  1.00  0.00     0.088 C 
HETATM   16  C   UNL     1     -39.877 -45.877  13.001  1.00  0.00     0.026 C 
BRANCH  15  17
HETATM   17  C   UNL     1     -42.329 -45.800  12.689  1.00  0.00    -0.072 C 
BRANCH  17  18
HETATM   18  N   UNL     1     -43.436 -46.016  13.251  1.00  0.00    -0.369 N 
ATOM     19  HN2 UNL     1     -42.537 -45.895  12.786  1.00  0.00     0.165 HD
ATOM     20  HN1 UNL     1     -44.332 -46.191  13.707  1.00  0.00     0.165 HD
ENDBRANCH  17  18
ENDBRANCH  15  17
ENDBRANCH  14  15
ENDBRANCH  13  14
BRANCH  13  21
HETATM   21  C   UNL     1     -42.649 -47.792   9.624  1.00  0.00     0.120 C 
HETATM   22  C   UNL     1     -44.102 -47.408   9.904  1.00  0.00     0.026 C 
ENDBRANCH  13  21
ENDBRANCH   6  13
BRANCH   2  23
HETATM   23  C   UNL     1     -41.543 -52.300  14.527  1.00  0.00     0.147 C 
BRANCH  23  24
HETATM   24  C   UNL     1     -41.872 -53.733  14.115  1.00  0.00     0.040 C 
HETATM   25  C   UNL     1     -43.346 -54.182  14.212  1.00  0.00     0.183 C 
HETATM   26  O   UNL     1     -42.974 -55.327  15.020  1.00  0.00    -0.389 OA
HETATM   27  C   UNL     1     -41.667 -54.749  15.257  1.00  0.00     0.183 C 
BRANCH  24  28
HETATM   28  C   UNL     1     -41.220 -54.182  12.811  1.00  0.00     0.179 C 
BRANCH  28  29
HETATM   29  O   UNL     1     -39.811 -54.001  12.909  1.00  0.00    -0.400 OA
HETATM   30  H   UNL     1     -39.555 -53.282  12.307  1.00  0.00     0.209 HD
ENDBRANCH  28  29
ENDBRANCH  24  28
ENDBRANCH  23  24
ENDBRANCH   2  23
TORSDOF 10
ENDMDL
MODEL 9
REMARK VINA RESULT:      -5.6      3.444      6.762
REMARK  10 active torsions:
REMARK  status: ('A' for Active; 'I' for Inactive)
REMARK    1  A    between atoms: N_2  and  C_14 
REMARK    2  A    between atoms: C_6  and  N_8 
REMARK    3  A    between atoms: N_8  and  C_20 
REMARK    4  A    between atoms: N_8  and  C_26 
REMARK    5  A    between atoms: C_13  and  C_14 
REMARK    6  A    between atoms: C_13  and  C_25 
REMARK    7  A    between atoms: N_15  and  C_18 
REMARK    8  A    between atoms: C_18  and  C_22 
REMARK    9  A    between atoms: C_20  and  C_22 
REMARK   10  A    between atoms: C_25  and  O_27 
ROOT
HETATM    1  C   UNL     1     -41.626 -50.371  12.607  1.00  0.00     0.122 A 
HETATM    2  N   UNL     1     -40.478 -48.684  11.815  1.00  0.00    -0.326 N 
HETATM    3  C   UNL     1     -41.392 -49.013  12.776  1.00  0.00     0.140 A 
HETATM    4  N   UNL     1     -40.969 -50.824  11.475  1.00  0.00    -0.346 N 
ATOM      5  HN  UNL     1     -40.985 -51.766  11.085  1.00  0.00     0.167 HD
HETATM    6  C   UNL     1     -42.401 -51.010  13.605  1.00  0.00     0.135 A 
HETATM    7  C   UNL     1     -40.322 -49.777  11.009  1.00  0.00     0.185 C 
HETATM    8  N   UNL     1     -41.891 -48.207  13.724  1.00  0.00    -0.336 N 
ATOM      9  HN  UNL     1     -41.702 -47.207  13.791  1.00  0.00     0.168 HD
HETATM   10  N   UNL     1     -42.930 -50.216  14.582  1.00  0.00    -0.337 N 
ATOM     11  HN  UNL     1     -43.515 -50.620  15.312  1.00  0.00     0.168 HD
HETATM   12  C   UNL     1     -42.673 -48.891  14.572  1.00  0.00     0.183 A 
ENDROOT
BRANCH   6  13
HETATM   13  N   UNL     1     -42.562 -52.403  13.687  1.00  0.00    -0.364 N 
BRANCH  13  14
HETATM   14  C   UNL     1     -43.515 -52.952  12.710  1.00  0.00     0.142 C 
BRANCH  14  15
HETATM   15  C   UNL     1     -44.919 -53.150  13.306  1.00  0.00     0.088 C 
HETATM   16  C   UNL     1     -45.189 -54.644  13.507  1.00  0.00     0.026 C 
BRANCH  15  17
HETATM   17  C   UNL     1     -45.977 -52.597  12.364  1.00  0.00    -0.072 C 
BRANCH  17  18
HETATM   18  N   UNL     1     -46.853 -52.138  11.584  1.00  0.00    -0.369 N 
ATOM     19  HN2 UNL     1     -46.108 -52.507  12.174  1.00  0.00     0.165 HD
ATOM     20  HN1 UNL     1     -47.563 -51.767  10.952  1.00  0.00     0.165 HD
ENDBRANCH  17  18
ENDBRANCH  15  17
ENDBRANCH  14  15
ENDBRANCH  13  14
BRANCH  13  21
HETATM   21  C   UNL     1     -41.321 -53.135  13.959  1.00  0.00     0.120 C 
HETATM   22  C   UNL     1     -41.006 -54.210  12.919  1.00  0.00     0.026 C 
ENDBRANCH  13  21
ENDBRANCH   6  13
BRANCH   2  23
HETATM   23  C   UNL     1     -39.783 -47.410  11.704  1.00  0.00     0.147 C 
BRANCH  23  24
HETATM   24  C   UNL     1     -40.614 -46.310  11.049  1.00  0.00     0.040 C 
HETATM   25  C   UNL     1     -39.855 -45.201  10.288  1.00  0.00     0.183 C 
HETATM   26  O   UNL     1     -40.526 -44.172  11.059  1.00  0.00    -0.389 OA
HETATM   27  C   UNL     1     -40.965 -45.164  12.020  1.00  0.00     0.183 C 
BRANCH  24  28
HETATM   28  C   UNL     1     -41.827 -46.811  10.273  1.00  0.00     0.179 C 
BRANCH  28  29
HETATM   29  O   UNL     1     -42.107 -45.903   9.213  1.00  0.00    -0.400 OA
HETATM   30  H   UNL     1     -41.383 -45.257   9.167  1.00  0.00     0.209 HD
ENDBRANCH  28  29
ENDBRANCH  24  28
ENDBRANCH  23  24
ENDBRANCH   2  23
TORSDOF 10
ENDMDL
