MODEL 1
REMARK VINA RESULT:      -7.1      0.000      0.000
REMARK  3 active torsions:
REMARK  status: ('A' for Active; 'I' for Inactive)
REMARK    1  A    between atoms: N_1  and  C_9 
REMARK    2  A    between atoms: N_2  and  C_11 
REMARK       I    between atoms: N_7  and  C_8 
REMARK    3  A    between atoms: C_8  and  C_9 
ROOT
HETATM    1  N   UNL     1     -41.594 -49.807  12.912  1.00  0.00    -0.255 N 
HETATM    2  N   UNL     1     -42.017 -48.112  11.316  1.00  0.00    -0.279 N 
HETATM    3  C   UNL     1     -42.494 -48.925  12.335  1.00  0.00     0.334 C 
HETATM    4  C   UNL     1     -40.217 -49.734  12.730  1.00  0.00     0.292 C 
HETATM    5  C   UNL     1     -39.772 -48.753  11.719  1.00  0.00     0.200 C 
HETATM    6  C   UNL     1     -40.667 -48.037  11.041  1.00  0.00     0.146 C 
HETATM    7  O   UNL     1     -43.662 -48.883  12.699  1.00  0.00    -0.246 OA
HETATM    8  O   UNL     1     -39.400 -50.404  13.354  1.00  0.00    -0.264 OA
HETATM    9  F   UNL     1     -38.451 -48.644  11.493  1.00  0.00    -0.199 F 
ENDROOT
BRANCH   1  10
HETATM   10  C   UNL     1     -42.168 -50.850  13.749  1.00  0.00     0.240 C 
BRANCH  10  11
HETATM   11  C   UNL     1     -42.616 -52.025  12.855  1.00  0.00     0.242 C 
HETATM   12  N   UNL     1     -43.770 -52.731  13.145  1.00  0.00    -0.316 N 
HETATM   13  C   UNL     1     -44.916 -52.421  13.900  1.00  0.00     0.043 C 
HETATM   14  C   UNL     1     -43.843 -54.151  12.759  1.00  0.00     0.137 C 
HETATM   15  C   UNL     1     -45.632 -53.590  14.169  1.00  0.00    -0.030 C 
HETATM   16  C   UNL     1     -45.429 -51.210  14.320  1.00  0.00     0.030 C 
HETATM   17  C   UNL     1     -46.725 -53.603  15.024  1.00  0.00     0.009 C 
HETATM   18  C   UNL     1     -45.130 -54.732  13.347  1.00  0.00     0.061 C 
HETATM   19  C   UNL     1     -47.184 -52.388  15.526  1.00  0.00     0.001 C 
HETATM   20  C   UNL     1     -46.575 -51.194  15.127  1.00  0.00     0.002 C 
HETATM   21  O   UNL     1     -41.861 -52.415  11.954  1.00  0.00    -0.271 OA
ENDBRANCH  10  11
ENDBRANCH   1  10
BRANCH   2  22
HETATM   22  C   UNL     1     -43.038 -47.534  10.438  1.00  0.00     0.232 C 
HETATM   23  O   UNL     1     -42.904 -47.993   9.089  1.00  0.00    -0.366 OA
HETATM   24  C   UNL     1     -43.483 -47.012   8.224  1.00  0.00     0.170 C 
HETATM   25  C   UNL     1     -43.647 -45.724   9.000  1.00  0.00     0.031 C 
HETATM   26  C   UNL     1     -43.061 -46.013  10.358  1.00  0.00     0.056 C 
ENDBRANCH   2  22
TORSDOF 3
ENDMDL
MODEL 2
REMARK VINA RESULT:      -6.8      2.278      2.619
REMARK  3 active torsions:
REMARK  status: ('A' for Active; 'I' for Inactive)
REMARK    1  A    between atoms: N_1  and  C_9 
REMARK    2  A    between atoms: N_2  and  C_11 
REMARK       I    between atoms: N_7  and  C_8 
REMARK    3  A    between atoms: C_8  and  C_9 
ROOT
HETATM    1  N   UNL     1     -40.348 -50.924  13.679  1.00  0.00    -0.255 N 
HETATM    2  N   UNL     1     -39.680 -48.773  12.954  1.00  0.00    -0.279 N 
HETATM    3  C   UNL     1     -40.571 -49.556  13.677  1.00  0.00     0.334 C 
HETATM    4  C   UNL     1     -39.166 -51.515  13.247  1.00  0.00     0.292 C 
HETATM    5  C   UNL     1     -38.208 -50.595  12.601  1.00  0.00     0.200 C 
HETATM    6  C   UNL     1     -38.516 -49.309  12.445  1.00  0.00     0.146 C 
HETATM    7  O   UNL     1     -41.523 -49.067  14.271  1.00  0.00    -0.246 OA
HETATM    8  O   UNL     1     -38.894 -52.703  13.388  1.00  0.00    -0.264 OA
HETATM    9  F   UNL     1     -37.050 -51.111  12.155  1.00  0.00    -0.199 F 
ENDROOT
BRANCH   1  10
HETATM   10  C   UNL     1     -41.441 -51.748  14.172  1.00  0.00     0.240 C 
BRANCH  10  11
HETATM   11  C   UNL     1     -42.465 -51.961  13.038  1.00  0.00     0.242 C 
HETATM   12  N   UNL     1     -43.820 -52.012  13.311  1.00  0.00    -0.316 N 
HETATM   13  C   UNL     1     -44.597 -51.543  14.386  1.00  0.00     0.043 C 
HETATM   14  C   UNL     1     -44.685 -52.828  12.440  1.00  0.00     0.137 C 
HETATM   15  C   UNL     1     -45.857 -52.145  14.354  1.00  0.00    -0.030 C 
HETATM   16  C   UNL     1     -44.333 -50.593  15.353  1.00  0.00     0.030 C 
HETATM   17  C   UNL     1     -46.776 -51.983  15.381  1.00  0.00     0.009 C 
HETATM   18  C   UNL     1     -46.083 -52.856  13.060  1.00  0.00     0.061 C 
HETATM   19  C   UNL     1     -46.467 -51.096  16.409  1.00  0.00     0.001 C 
HETATM   20  C   UNL     1     -45.278 -50.361  16.361  1.00  0.00     0.002 C 
HETATM   21  O   UNL     1     -42.052 -52.221  11.899  1.00  0.00    -0.271 OA
ENDBRANCH  10  11
ENDBRANCH   1  10
BRANCH   2  22
HETATM   22  C   UNL     1     -40.163 -47.438  12.593  1.00  0.00     0.232 C 
HETATM   23  O   UNL     1     -40.120 -47.218  11.179  1.00  0.00    -0.366 OA
HETATM   24  C   UNL     1     -40.023 -45.810  10.948  1.00  0.00     0.170 C 
HETATM   25  C   UNL     1     -39.609 -45.139  12.239  1.00  0.00     0.031 C 
HETATM   26  C   UNL     1     -39.411 -46.268  13.217  1.00  0.00     0.056 C 
ENDBRANCH   2  22
TORSDOF 3
ENDMDL
MODEL 3
REMARK VINA RESULT:      -6.6      1.539      2.071
REMARK  3 active torsions:
REMARK  status: ('A' for Active; 'I' for Inactive)
REMARK    1  A    between atoms: N_1  and  C_9 
REMARK    2  A    between atoms: N_2  and  C_11 
REMARK       I    between atoms: N_7  and  C_8 
REMARK    3  A    between atoms: C_8  and  C_9 
ROOT
HETATM    1  N   UNL     1     -40.797 -50.775  12.318  1.00  0.00    -0.255 N 
HETATM    2  N   UNL     1     -41.005 -48.446  11.962  1.00  0.00    -0.279 N 
HETATM    3  C   UNL     1     -41.603 -49.648  12.313  1.00  0.00     0.334 C 
HETATM    4  C   UNL     1     -39.409 -50.731  12.266  1.00  0.00     0.292 C 
HETATM    5  C   UNL     1     -38.835 -49.393  12.016  1.00  0.00     0.200 C 
HETATM    6  C   UNL     1     -39.635 -48.345  11.835  1.00  0.00     0.146 C 
HETATM    7  O   UNL     1     -42.794 -49.719  12.588  1.00  0.00    -0.246 OA
HETATM    8  O   UNL     1     -38.678 -51.705  12.428  1.00  0.00    -0.264 OA
HETATM    9  F   UNL     1     -37.496 -49.291  11.947  1.00  0.00    -0.199 F 
ENDROOT
BRANCH   1  10
HETATM   10  C   UNL     1     -41.488 -52.055  12.385  1.00  0.00     0.240 C 
BRANCH  10  11
HETATM   11  C   UNL     1     -41.653 -52.462  13.864  1.00  0.00     0.242 C 
HETATM   12  N   UNL     1     -42.871 -52.318  14.503  1.00  0.00    -0.316 N 
HETATM   13  C   UNL     1     -44.192 -52.209  14.031  1.00  0.00     0.043 C 
HETATM   14  C   UNL     1     -42.880 -52.066  15.955  1.00  0.00     0.137 C 
HETATM   15  C   UNL     1     -45.019 -51.735  15.052  1.00  0.00    -0.030 C 
HETATM   16  C   UNL     1     -44.754 -52.544  12.814  1.00  0.00     0.030 C 
HETATM   17  C   UNL     1     -46.344 -51.388  14.824  1.00  0.00     0.009 C 
HETATM   18  C   UNL     1     -44.322 -51.770  16.372  1.00  0.00     0.061 C 
HETATM   19  C   UNL     1     -46.884 -51.638  13.565  1.00  0.00     0.001 C 
HETATM   20  C   UNL     1     -46.108 -52.268  12.587  1.00  0.00     0.002 C 
HETATM   21  O   UNL     1     -40.649 -52.794  14.510  1.00  0.00    -0.271 OA
ENDBRANCH  10  11
ENDBRANCH   1  10
BRANCH   2  22
HETATM   22  C   UNL     1     -41.921 -47.386  11.532  1.00  0.00     0.232 C 
HETATM   23  O   UNL     1     -42.251 -47.497  10.143  1.00  0.00    -0.366 OA
HETATM   24  C   UNL     1     -42.621 -46.200   9.667  1.00  0.00     0.170 C 
HETATM   25  C   UNL     1     -42.150 -45.168  10.668  1.00  0.00     0.031 C 
HETATM   26  C   UNL     1     -41.425 -45.959  11.727  1.00  0.00     0.056 C 
ENDBRANCH   2  22
TORSDOF 3
ENDMDL
MODEL 4
REMARK VINA RESULT:      -6.6      2.583      6.971
REMARK  3 active torsions:
REMARK  status: ('A' for Active; 'I' for Inactive)
REMARK    1  A    between atoms: N_1  and  C_9 
REMARK    2  A    between atoms: N_2  and  C_11 
REMARK       I    between atoms: N_7  and  C_8 
REMARK    3  A    between atoms: C_8  and  C_9 
ROOT
HETATM    1  N   UNL     1     -40.977 -51.013  12.778  1.00  0.00    -0.255 N 
HETATM    2  N   UNL     1     -43.214 -51.617  13.253  1.00  0.00    -0.279 N 
HETATM    3  C   UNL     1     -42.322 -50.687  12.735  1.00  0.00     0.334 C 
HETATM    4  C   UNL     1     -40.500 -52.291  13.046  1.00  0.00     0.292 C 
HETATM    5  C   UNL     1     -41.527 -53.265  13.470  1.00  0.00     0.200 C 
HETATM    6  C   UNL     1     -42.797 -52.886  13.596  1.00  0.00     0.146 C 
HETATM    7  O   UNL     1     -42.702 -49.618  12.276  1.00  0.00    -0.246 OA
HETATM    8  O   UNL     1     -39.325 -52.630  12.934  1.00  0.00    -0.264 OA
HETATM    9  F   UNL     1     -41.123 -54.516  13.751  1.00  0.00    -0.199 F 
ENDROOT
BRANCH   1  10
HETATM   10  C   UNL     1     -40.047 -49.923  12.521  1.00  0.00     0.240 C 
BRANCH  10  11
HETATM   11  C   UNL     1     -39.967 -49.022  13.770  1.00  0.00     0.242 C 
HETATM   12  N   UNL     1     -39.831 -47.651  13.643  1.00  0.00    -0.316 N 
HETATM   13  C   UNL     1     -40.111 -46.755  12.595  1.00  0.00     0.043 C 
HETATM   14  C   UNL     1     -39.123 -46.912  14.702  1.00  0.00     0.137 C 
HETATM   15  C   UNL     1     -39.477 -45.535  12.837  1.00  0.00    -0.030 C 
HETATM   16  C   UNL     1     -40.918 -46.882  11.481  1.00  0.00     0.030 C 
HETATM   17  C   UNL     1     -39.456 -44.517  11.893  1.00  0.00     0.009 C 
HETATM   18  C   UNL     1     -38.957 -45.464  14.235  1.00  0.00     0.061 C 
HETATM   19  C   UNL     1     -40.193 -44.686  10.725  1.00  0.00     0.001 C 
HETATM   20  C   UNL     1     -40.967 -45.837  10.549  1.00  0.00     0.002 C 
HETATM   21  O   UNL     1     -39.892 -49.551  14.888  1.00  0.00    -0.271 OA
ENDBRANCH  10  11
ENDBRANCH   1  10
BRANCH   2  22
HETATM   22  C   UNL     1     -44.537 -51.094  13.607  1.00  0.00     0.232 C 
HETATM   23  O   UNL     1     -44.763 -51.128  15.021  1.00  0.00    -0.366 OA
HETATM   24  C   UNL     1     -46.175 -51.182  15.245  1.00  0.00     0.170 C 
HETATM   25  C   UNL     1     -46.852 -51.579  13.952  1.00  0.00     0.031 C 
HETATM   26  C   UNL     1     -45.725 -51.812  12.980  1.00  0.00     0.056 C 
ENDBRANCH   2  22
TORSDOF 3
ENDMDL
MODEL 5
REMARK VINA RESULT:      -6.5      2.493      6.912
REMARK  3 active torsions:
REMARK  status: ('A' for Active; 'I' for Inactive)
REMARK    1  A    between atoms: N_1  and  C_9 
REMARK    2  A    between atoms: N_2  and  C_11 
REMARK       I    between atoms: N_7  and  C_8 
REMARK    3  A    between atoms: C_8  and  C_9 
ROOT
HETATM    1  N   UNL     1     -42.922 -52.321  13.158  1.00  0.00    -0.255 N 
HETATM    2  N   UNL     1     -44.854 -52.266  14.523  1.00  0.00    -0.279 N 
HETATM    3  C   UNL     1     -44.076 -51.659  13.547  1.00  0.00     0.334 C 
HETATM    4  C   UNL     1     -42.650 -53.647  13.474  1.00  0.00     0.292 C 
HETATM    5  C   UNL     1     -43.595 -54.270  14.422  1.00  0.00     0.200 C 
HETATM    6  C   UNL     1     -44.602 -53.561  14.927  1.00  0.00     0.146 C 
HETATM    7  O   UNL     1     -44.381 -50.577  13.061  1.00  0.00    -0.246 OA
HETATM    8  O   UNL     1     -41.714 -54.292  13.009  1.00  0.00    -0.264 OA
HETATM    9  F   UNL     1     -43.377 -55.550  14.772  1.00  0.00    -0.199 F 
ENDROOT
BRANCH   1  10
HETATM   10  C   UNL     1     -41.973 -51.545  12.375  1.00  0.00     0.240 C 
BRANCH  10  11
HETATM   11  C   UNL     1     -41.121 -50.680  13.327  1.00  0.00     0.242 C 
HETATM   12  N   UNL     1     -40.791 -49.379  12.993  1.00  0.00    -0.316 N 
HETATM   13  C   UNL     1     -41.356 -48.447  12.103  1.00  0.00     0.043 C 
HETATM   14  C   UNL     1     -39.527 -48.819  13.502  1.00  0.00     0.137 C 
HETATM   15  C   UNL     1     -40.454 -47.405  11.876  1.00  0.00    -0.030 C 
HETATM   16  C   UNL     1     -42.608 -48.389  11.521  1.00  0.00     0.030 C 
HETATM   17  C   UNL     1     -40.688 -46.425  10.923  1.00  0.00     0.009 C 
HETATM   18  C   UNL     1     -39.321 -47.451  12.848  1.00  0.00     0.061 C 
HETATM   19  C   UNL     1     -41.915 -46.423  10.265  1.00  0.00     0.001 C 
HETATM   20  C   UNL     1     -42.891 -47.365  10.608  1.00  0.00     0.002 C 
HETATM   21  O   UNL     1     -40.622 -51.207  14.331  1.00  0.00    -0.271 OA
ENDBRANCH  10  11
ENDBRANCH   1  10
BRANCH   2  22
HETATM   22  C   UNL     1     -45.787 -51.383  15.227  1.00  0.00     0.232 C 
HETATM   23  O   UNL     1     -45.301 -51.017  16.523  1.00  0.00    -0.366 OA
HETATM   24  C   UNL     1     -46.424 -50.688  17.346  1.00  0.00     0.170 C 
HETATM   25  C   UNL     1     -47.676 -51.222  16.685  1.00  0.00     0.031 C 
HETATM   26  C   UNL     1     -47.188 -51.939  15.452  1.00  0.00     0.056 C 
ENDBRANCH   2  22
TORSDOF 3
ENDMDL
MODEL 6
REMARK VINA RESULT:      -6.4      3.190      4.901
REMARK  3 active torsions:
REMARK  status: ('A' for Active; 'I' for Inactive)
REMARK    1  A    between atoms: N_1  and  C_9 
REMARK    2  A    between atoms: N_2  and  C_11 
REMARK       I    between atoms: N_7  and  C_8 
REMARK    3  A    between atoms: C_8  and  C_9 
ROOT
HETATM    1  N   UNL     1     -40.691 -50.999  12.815  1.00  0.00    -0.255 N 
HETATM    2  N   UNL     1     -39.174 -49.469  13.789  1.00  0.00    -0.279 N 
HETATM    3  C   UNL     1     -39.392 -50.531  12.922  1.00  0.00     0.334 C 
HETATM    4  C   UNL     1     -41.801 -50.313  13.294  1.00  0.00     0.292 C 
HETATM    5  C   UNL     1     -41.495 -49.117  14.104  1.00  0.00     0.200 C 
HETATM    6  C   UNL     1     -40.230 -48.780  14.348  1.00  0.00     0.146 C 
HETATM    7  O   UNL     1     -38.478 -51.047  12.293  1.00  0.00    -0.246 OA
HETATM    8  O   UNL     1     -42.965 -50.635  13.070  1.00  0.00    -0.264 OA
HETATM    9  F   UNL     1     -42.529 -48.417  14.602  1.00  0.00    -0.199 F 
ENDROOT
BRANCH   1  10
HETATM   10  C   UNL     1     -40.855 -52.286  12.153  1.00  0.00     0.240 C 
BRANCH  10  11
HETATM   11  C   UNL     1     -40.564 -53.414  13.165  1.00  0.00     0.242 C 
HETATM   12  N   UNL     1     -41.583 -53.959  13.925  1.00  0.00    -0.316 N 
HETATM   13  C   UNL     1     -42.980 -53.999  13.764  1.00  0.00     0.043 C 
HETATM   14  C   UNL     1     -41.259 -54.492  15.260  1.00  0.00     0.137 C 
HETATM   15  C   UNL     1     -43.583 -54.360  14.971  1.00  0.00    -0.030 C 
HETATM   16  C   UNL     1     -43.773 -53.812  12.648  1.00  0.00     0.030 C 
HETATM   17  C   UNL     1     -44.960 -54.331  15.143  1.00  0.00     0.009 C 
HETATM   18  C   UNL     1     -42.573 -54.864  15.949  1.00  0.00     0.061 C 
HETATM   19  C   UNL     1     -45.757 -54.046  14.038  1.00  0.00     0.001 C 
HETATM   20  C   UNL     1     -45.167 -53.848  12.785  1.00  0.00     0.002 C 
HETATM   21  O   UNL     1     -39.387 -53.732  13.386  1.00  0.00    -0.271 OA
ENDBRANCH  10  11
ENDBRANCH   1  10
BRANCH   2  22
HETATM   22  C   UNL     1     -37.787 -49.285  14.225  1.00  0.00     0.232 C 
HETATM   23  O   UNL     1     -37.455 -50.141  15.324  1.00  0.00    -0.366 OA
HETATM   24  C   UNL     1     -36.381 -49.539  16.051  1.00  0.00     0.170 C 
HETATM   25  C   UNL     1     -36.278 -48.086  15.642  1.00  0.00     0.031 C 
HETATM   26  C   UNL     1     -37.412 -47.876  14.671  1.00  0.00     0.056 C 
ENDBRANCH   2  22
TORSDOF 3
ENDMDL
MODEL 7
REMARK VINA RESULT:      -6.4      3.389      7.475
REMARK  3 active torsions:
REMARK  status: ('A' for Active; 'I' for Inactive)
REMARK    1  A    between atoms: N_1  and  C_9 
REMARK    2  A    between atoms: N_2  and  C_11 
REMARK       I    between atoms: N_7  and  C_8 
REMARK    3  A    between atoms: C_8  and  C_9 
ROOT
HETATM    1  N   UNL     1     -44.410 -52.586  13.666  1.00  0.00    -0.255 N 
HETATM    2  N   UNL     1     -45.991 -52.599  15.425  1.00  0.00    -0.279 N 
HETATM    3  C   UNL     1     -45.109 -51.879  14.630  1.00  0.00     0.334 C 
HETATM    4  C   UNL     1     -44.732 -53.879  13.271  1.00  0.00     0.292 C 
HETATM    5  C   UNL     1     -45.773 -54.540  14.085  1.00  0.00     0.200 C 
HETATM    6  C   UNL     1     -46.311 -53.906  15.125  1.00  0.00     0.146 C 
HETATM    7  O   UNL     1     -44.939 -50.677  14.784  1.00  0.00    -0.246 OA
HETATM    8  O   UNL     1     -44.226 -54.458  12.314  1.00  0.00    -0.264 OA
HETATM    9  F   UNL     1     -46.121 -55.796  13.755  1.00  0.00    -0.199 F 
ENDROOT
BRANCH   1  10
HETATM   10  C   UNL     1     -43.283 -51.894  13.057  1.00  0.00     0.240 C 
BRANCH  10  11
HETATM   11  C   UNL     1     -42.002 -52.218  13.854  1.00  0.00     0.242 C 
HETATM   12  N   UNL     1     -40.837 -51.505  13.637  1.00  0.00    -0.316 N 
HETATM   13  C   UNL     1     -40.581 -50.236  13.083  1.00  0.00     0.043 C 
HETATM   14  C   UNL     1     -39.546 -52.180  13.854  1.00  0.00     0.137 C 
HETATM   15  C   UNL     1     -39.224 -50.124  12.771  1.00  0.00    -0.030 C 
HETATM   16  C   UNL     1     -41.407 -49.147  12.883  1.00  0.00     0.030 C 
HETATM   17  C   UNL     1     -38.717 -49.037  12.073  1.00  0.00     0.009 C 
HETATM   18  C   UNL     1     -38.437 -51.240  13.376  1.00  0.00     0.061 C 
HETATM   19  C   UNL     1     -39.576 -47.979  11.786  1.00  0.00     0.001 C 
HETATM   20  C   UNL     1     -40.897 -48.010  12.243  1.00  0.00     0.002 C 
HETATM   21  O   UNL     1     -41.991 -53.212  14.594  1.00  0.00    -0.271 OA
ENDBRANCH  10  11
ENDBRANCH   1  10
BRANCH   2  22
HETATM   22  C   UNL     1     -46.369 -51.959  16.688  1.00  0.00     0.232 C 
HETATM   23  O   UNL     1     -46.367 -52.888  17.778  1.00  0.00    -0.366 OA
HETATM   24  C   UNL     1     -47.262 -52.400  18.782  1.00  0.00     0.170 C 
HETATM   25  C   UNL     1     -48.146 -51.340  18.163  1.00  0.00     0.031 C 
HETATM   26  C   UNL     1     -47.740 -51.295  16.712  1.00  0.00     0.056 C 
ENDBRANCH   2  22
TORSDOF 3
ENDMDL
MODEL 8
REMARK VINA RESULT:      -6.4      2.774      6.845
REMARK  3 active torsions:
REMARK  status: ('A' for Active; 'I' for Inactive)
REMARK    1  A    between atoms: N_1  and  C_9 
REMARK    2  A    between atoms: N_2  and  C_11 
REMARK       I    between atoms: N_7  and  C_8 
REMARK    3  A    between atoms: C_8  and  C_9 
ROOT
HETATM    1  N   UNL     1     -40.932 -50.885  13.262  1.00  0.00    -0.255 N 
HETATM    2  N   UNL     1     -43.230 -51.445  13.266  1.00  0.00    -0.279 N 
HETATM    3  C   UNL     1     -42.251 -50.462  13.242  1.00  0.00     0.334 C 
HETATM    4  C   UNL     1     -40.540 -52.199  13.030  1.00  0.00     0.292 C 
HETATM    5  C   UNL     1     -41.645 -53.174  12.939  1.00  0.00     0.200 C 
HETATM    6  C   UNL     1     -42.905 -52.775  13.102  1.00  0.00     0.146 C 
HETATM    7  O   UNL     1     -42.535 -49.271  13.223  1.00  0.00    -0.246 OA
HETATM    8  O   UNL     1     -39.374 -52.559  12.888  1.00  0.00    -0.264 OA
HETATM    9  F   UNL     1     -41.325 -54.462  12.725  1.00  0.00    -0.199 F 
ENDROOT
BRANCH   1  10
HETATM   10  C   UNL     1     -39.936 -49.862  13.543  1.00  0.00     0.240 C 
BRANCH  10  11
HETATM   11  C   UNL     1     -39.654 -49.065  12.252  1.00  0.00     0.242 C 
HETATM   12  N   UNL     1     -39.696 -47.682  12.253  1.00  0.00    -0.316 N 
HETATM   13  C   UNL     1     -39.583 -46.723  13.277  1.00  0.00     0.043 C 
HETATM   14  C   UNL     1     -40.081 -46.987  11.013  1.00  0.00     0.137 C 
HETATM   15  C   UNL     1     -40.037 -45.486  12.814  1.00  0.00    -0.030 C 
HETATM   16  C   UNL     1     -39.061 -46.811  14.553  1.00  0.00     0.030 C 
HETATM   17  C   UNL     1     -40.182 -44.394  13.658  1.00  0.00     0.009 C 
HETATM   18  C   UNL     1     -40.222 -45.498  11.333  1.00  0.00     0.061 C 
HETATM   19  C   UNL     1     -39.744 -44.514  14.974  1.00  0.00     0.001 C 
HETATM   20  C   UNL     1     -39.132 -45.697  15.400  1.00  0.00     0.002 C 
HETATM   21  O   UNL     1     -39.522 -49.680  11.185  1.00  0.00    -0.271 OA
ENDBRANCH  10  11
ENDBRANCH   1  10
BRANCH   2  22
HETATM   22  C   UNL     1     -44.561 -51.001  13.690  1.00  0.00     0.232 C 
HETATM   23  O   UNL     1     -44.721 -51.074  15.111  1.00  0.00    -0.366 OA
HETATM   24  C   UNL     1     -46.116 -51.209  15.398  1.00  0.00     0.170 C 
HETATM   25  C   UNL     1     -46.830 -51.617  14.128  1.00  0.00     0.031 C 
HETATM   26  C   UNL     1     -45.737 -51.771  13.101  1.00  0.00     0.056 C 
ENDBRANCH   2  22
TORSDOF 3
ENDMDL
MODEL 9
REMARK VINA RESULT:      -6.2      2.258      4.436
REMARK  3 active torsions:
REMARK  status: ('A' for Active; 'I' for Inactive)
REMARK    1  A    between atoms: N_1  and  C_9 
REMARK    2  A    between atoms: N_2  and  C_11 
REMARK       I    between atoms: N_7  and  C_8 
REMARK    3  A    between atoms: C_8  and  C_9 
ROOT
HETATM    1  N   UNL     1     -41.217 -49.550  13.214  1.00  0.00    -0.255 N 
HETATM    2  N   UNL     1     -39.052 -49.105  14.059  1.00  0.00    -0.279 N 
HETATM    3  C   UNL     1     -40.208 -49.874  14.106  1.00  0.00     0.334 C 
HETATM    4  C   UNL     1     -41.040 -48.709  12.121  1.00  0.00     0.292 C 
HETATM    5  C   UNL     1     -39.734 -48.022  12.066  1.00  0.00     0.200 C 
HETATM    6  C   UNL     1     -38.838 -48.208  13.033  1.00  0.00     0.146 C 
HETATM    7  O   UNL     1     -40.342 -50.785  14.912  1.00  0.00    -0.246 OA
HETATM    8  O   UNL     1     -41.875 -48.538  11.237  1.00  0.00    -0.264 OA
HETATM    9  F   UNL     1     -39.509 -47.189  11.035  1.00  0.00    -0.199 F 
ENDROOT
BRANCH   1  10
HETATM   10  C   UNL     1     -42.517 -50.148  13.475  1.00  0.00     0.240 C 
BRANCH  10  11
HETATM   11  C   UNL     1     -42.594 -51.517  12.767  1.00  0.00     0.242 C 
HETATM   12  N   UNL     1     -43.565 -52.438  13.115  1.00  0.00    -0.316 N 
HETATM   13  C   UNL     1     -44.812 -52.317  13.756  1.00  0.00     0.043 C 
HETATM   14  C   UNL     1     -43.264 -53.872  12.965  1.00  0.00     0.137 C 
HETATM   15  C   UNL     1     -45.247 -53.574  14.181  1.00  0.00    -0.030 C 
HETATM   16  C   UNL     1     -45.634 -51.223  13.949  1.00  0.00     0.030 C 
HETATM   17  C   UNL     1     -46.374 -53.733  14.976  1.00  0.00     0.009 C 
HETATM   18  C   UNL     1     -44.419 -54.663  13.581  1.00  0.00     0.061 C 
HETATM   19  C   UNL     1     -47.151 -52.611  15.250  1.00  0.00     0.001 C 
HETATM   20  C   UNL     1     -46.814 -51.375  14.689  1.00  0.00     0.002 C 
HETATM   21  O   UNL     1     -41.694 -51.835  11.977  1.00  0.00    -0.271 OA
ENDBRANCH  10  11
ENDBRANCH   1  10
BRANCH   2  22
HETATM   22  C   UNL     1     -38.211 -49.155  15.258  1.00  0.00     0.232 C 
HETATM   23  O   UNL     1     -37.726 -47.859  15.623  1.00  0.00    -0.366 OA
HETATM   24  C   UNL     1     -36.516 -48.028  16.367  1.00  0.00     0.170 C 
HETATM   25  C   UNL     1     -36.008 -49.435  16.145  1.00  0.00     0.031 C 
HETATM   26  C   UNL     1     -36.979 -50.048  15.168  1.00  0.00     0.056 C 
ENDBRANCH   2  22
TORSDOF 3
ENDMDL
