MODEL 1
REMARK VINA RESULT:      -5.2      0.000      0.000
REMARK  4 active torsions:
REMARK  status: ('A' for Active; 'I' for Inactive)
REMARK    1  A    between atoms: C_10  and  C_11 
REMARK    2  A    between atoms: C_11  and  O_12 
REMARK    3  A    between atoms: C_11  and  C_13 
REMARK    4  A    between atoms: C_13  and  O_15 
ROOT
HETATM    1  C   UNL     2     -41.174 -54.385  14.810  1.00  0.00     0.050 C 
HETATM    2  C   UNL     2     -42.388 -54.092  13.971  1.00  0.00    -0.036 A 
HETATM    3  C   UNL     2     -43.610 -54.695  14.307  1.00  0.00     0.010 A 
HETATM    4  C   UNL     2     -44.757 -54.442  13.557  1.00  0.00     0.018 A 
HETATM    5  C   UNL     2     -44.682 -53.573  12.473  1.00  0.00     0.088 A 
HETATM    6  N   UNL     2     -43.500 -52.994  12.149  1.00  0.00    -0.366 N 
ATOM      7  HN  UNL     2     -43.471 -52.359  11.351  1.00  0.00     0.165 HD
HETATM    8  C   UNL     2     -42.346 -53.224  12.845  1.00  0.00     0.054 A 
ENDROOT
BRANCH   8   9
HETATM    9  C   UNL     2     -41.070 -52.577  12.331  1.00  0.00     0.265 C 
BRANCH   9  10
HETATM   10  O   UNL     2     -40.573 -53.346  11.262  1.00  0.00    -0.379 OA
HETATM   11  H   UNL     2     -41.337 -53.584  10.673  1.00  0.00     0.211 HD
ENDBRANCH   9  10
BRANCH   9  12
HETATM   12  C   UNL     2     -41.204 -51.127  11.908  1.00  0.00     0.176 C 
HETATM   13  O   UNL     2     -41.994 -50.412  12.506  1.00  0.00    -0.648 OA
BRANCH  12  14
HETATM   14  O   UNL     2     -40.517 -50.599  10.868  1.00  0.00    -0.774 OA
HETATM   15  H   UNL     2     -40.632 -49.689  10.568  1.00  0.00     0.167 HD
ENDBRANCH  12  14
ENDBRANCH   9  12
ENDBRANCH   8   9
TORSDOF 4
ENDMDL
MODEL 2
REMARK VINA RESULT:      -4.8     17.716     19.103
REMARK  4 active torsions:
REMARK  status: ('A' for Active; 'I' for Inactive)
REMARK    1  A    between atoms: C_10  and  C_11 
REMARK    2  A    between atoms: C_11  and  O_12 
REMARK    3  A    between atoms: C_11  and  C_13 
REMARK    4  A    between atoms: C_13  and  O_15 
ROOT
HETATM    1  C   UNL     2     -27.039 -61.086  15.791  1.00  0.00     0.050 C 
HETATM    2  C   UNL     2     -26.462 -62.438  15.471  1.00  0.00    -0.036 A 
HETATM    3  C   UNL     2     -25.106 -62.535  15.119  1.00  0.00     0.010 A 
HETATM    4  C   UNL     2     -24.536 -63.771  14.823  1.00  0.00     0.018 A 
HETATM    5  C   UNL     2     -25.324 -64.917  14.891  1.00  0.00     0.088 A 
HETATM    6  N   UNL     2     -26.632 -64.820  15.228  1.00  0.00    -0.366 N 
ATOM      7  HN  UNL     2     -27.189 -65.674  15.272  1.00  0.00     0.165 HD
HETATM    8  C   UNL     2     -27.239 -63.628  15.511  1.00  0.00     0.054 A 
ENDROOT
BRANCH   8   9
HETATM    9  C   UNL     2     -28.732 -63.646  15.796  1.00  0.00     0.265 C 
BRANCH   9  10
HETATM   10  O   UNL     2     -29.330 -64.651  15.013  1.00  0.00    -0.379 OA
HETATM   11  H   UNL     2     -29.169 -65.525  15.459  1.00  0.00     0.211 HD
ENDBRANCH   9  10
BRANCH   9  12
HETATM   12  C   UNL     2     -29.112 -63.831  17.253  1.00  0.00     0.176 C 
HETATM   13  O   UNL     2     -28.613 -64.757  17.876  1.00  0.00    -0.648 OA
BRANCH  12  14
HETATM   14  O   UNL     2     -30.010 -63.040  17.884  1.00  0.00    -0.774 OA
HETATM   15  H   UNL     2     -30.582 -62.417  17.419  1.00  0.00     0.167 HD
ENDBRANCH  12  14
ENDBRANCH   9  12
ENDBRANCH   8   9
TORSDOF 4
ENDMDL
MODEL 3
REMARK VINA RESULT:      -4.5      6.009      7.521
REMARK  4 active torsions:
REMARK  status: ('A' for Active; 'I' for Inactive)
REMARK    1  A    between atoms: C_10  and  C_11 
REMARK    2  A    between atoms: C_11  and  O_12 
REMARK    3  A    between atoms: C_11  and  C_13 
REMARK    4  A    between atoms: C_13  and  O_15 
ROOT
HETATM    1  C   UNL     2     -42.063 -44.638  11.406  1.00  0.00     0.050 C 
HETATM    2  C   UNL     2     -41.751 -46.085  11.135  1.00  0.00    -0.036 A 
HETATM    3  C   UNL     2     -40.811 -46.743  11.945  1.00  0.00     0.010 A 
HETATM    4  C   UNL     2     -40.502 -48.083  11.727  1.00  0.00     0.018 A 
HETATM    5  C   UNL     2     -41.144 -48.771  10.702  1.00  0.00     0.088 A 
HETATM    6  N   UNL     2     -42.048 -48.134   9.919  1.00  0.00    -0.366 N 
ATOM      7  HN  UNL     2     -42.506 -48.659   9.175  1.00  0.00     0.165 HD
HETATM    8  C   UNL     2     -42.372 -46.815  10.085  1.00  0.00     0.054 A 
ENDROOT
BRANCH   8   9
HETATM    9  C   UNL     2     -43.340 -46.196   9.090  1.00  0.00     0.265 C 
BRANCH   9  10
HETATM   10  O   UNL     2     -42.695 -46.077   7.845  1.00  0.00    -0.379 OA
HETATM   11  H   UNL     2     -41.818 -46.542   7.907  1.00  0.00     0.211 HD
ENDBRANCH   9  10
BRANCH   9  12
HETATM   12  C   UNL     2     -44.656 -46.933   8.922  1.00  0.00     0.176 C 
HETATM   13  O   UNL     2     -44.675 -47.954   8.251  1.00  0.00    -0.648 OA
BRANCH  12  14
HETATM   14  O   UNL     2     -45.819 -46.486   9.449  1.00  0.00    -0.774 OA
HETATM   15  H   UNL     2     -46.685 -46.788   9.148  1.00  0.00     0.167 HD
ENDBRANCH  12  14
ENDBRANCH   9  12
ENDBRANCH   8   9
TORSDOF 4
ENDMDL
MODEL 4
REMARK VINA RESULT:      -4.5      2.214      2.667
REMARK  4 active torsions:
REMARK  status: ('A' for Active; 'I' for Inactive)
REMARK    1  A    between atoms: C_10  and  C_11 
REMARK    2  A    between atoms: C_11  and  O_12 
REMARK    3  A    between atoms: C_11  and  C_13 
REMARK    4  A    between atoms: C_13  and  O_15 
ROOT
HETATM    1  C   UNL     2     -43.611 -51.115  15.458  1.00  0.00     0.050 C 
HETATM    2  C   UNL     2     -44.526 -51.558  14.348  1.00  0.00    -0.036 A 
HETATM    3  C   UNL     2     -45.885 -51.208  14.406  1.00  0.00     0.010 A 
HETATM    4  C   UNL     2     -46.761 -51.595  13.394  1.00  0.00     0.018 A 
HETATM    5  C   UNL     2     -46.272 -52.325  12.314  1.00  0.00     0.088 A 
HETATM    6  N   UNL     2     -44.961 -52.664  12.263  1.00  0.00    -0.366 N 
ATOM      7  HN  UNL     2     -44.627 -53.198  11.461  1.00  0.00     0.165 HD
HETATM    8  C   UNL     2     -44.068 -52.321  13.240  1.00  0.00     0.054 A 
ENDROOT
BRANCH   8   9
HETATM    9  C   UNL     2     -42.642 -52.831  13.104  1.00  0.00     0.265 C 
BRANCH   9  10
HETATM   10  O   UNL     2     -42.681 -54.202  12.791  1.00  0.00    -0.379 OA
HETATM   11  H   UNL     2     -43.634 -54.469  12.692  1.00  0.00     0.211 HD
ENDBRANCH   9  10
BRANCH   9  12
HETATM   12  C   UNL     2     -41.784 -52.094  12.093  1.00  0.00     0.176 C 
HETATM   13  O   UNL     2     -41.639 -50.887  12.217  1.00  0.00    -0.648 OA
BRANCH  12  14
HETATM   14  O   UNL     2     -41.204 -52.708  11.036  1.00  0.00    -0.774 OA
HETATM   15  H   UNL     2     -41.240 -52.357  10.138  1.00  0.00     0.167 HD
ENDBRANCH  12  14
ENDBRANCH   9  12
ENDBRANCH   8   9
TORSDOF 4
ENDMDL
MODEL 5
REMARK VINA RESULT:      -4.4      5.317      7.491
REMARK  4 active torsions:
REMARK  status: ('A' for Active; 'I' for Inactive)
REMARK    1  A    between atoms: C_10  and  C_11 
REMARK    2  A    between atoms: C_11  and  O_12 
REMARK    3  A    between atoms: C_11  and  C_13 
REMARK    4  A    between atoms: C_13  and  O_15 
ROOT
HETATM    1  C   UNL     2     -42.876 -46.116  12.961  1.00  0.00     0.050 C 
HETATM    2  C   UNL     2     -41.785 -45.746  11.993  1.00  0.00    -0.036 A 
HETATM    3  C   UNL     2     -41.375 -44.406  11.908  1.00  0.00     0.010 A 
HETATM    4  C   UNL     2     -40.363 -44.028  11.028  1.00  0.00     0.018 A 
HETATM    5  C   UNL     2     -39.751 -44.997  10.239  1.00  0.00     0.088 A 
HETATM    6  N   UNL     2     -40.150 -46.290  10.321  1.00  0.00    -0.366 N 
ATOM      7  HN  UNL     2     -39.686 -46.982   9.733  1.00  0.00     0.165 HD
HETATM    8  C   UNL     2     -41.149 -46.705  11.157  1.00  0.00     0.054 A 
ENDROOT
BRANCH   8   9
HETATM    9  C   UNL     2     -41.559 -48.168  11.096  1.00  0.00     0.265 C 
BRANCH   9  10
HETATM   10  O   UNL     2     -42.315 -48.377   9.928  1.00  0.00    -0.379 OA
HETATM   11  H   UNL     2     -42.687 -49.298   9.963  1.00  0.00     0.211 HD
ENDBRANCH   9  10
BRANCH   9  12
HETATM   12  C   UNL     2     -40.416 -49.163  11.158  1.00  0.00     0.176 C 
HETATM   13  O   UNL     2     -39.506 -48.963  11.948  1.00  0.00    -0.648 OA
BRANCH  12  14
HETATM   14  O   UNL     2     -40.339 -50.244  10.347  1.00  0.00    -0.774 OA
HETATM   15  H   UNL     2     -40.088 -50.188   9.417  1.00  0.00     0.167 HD
ENDBRANCH  12  14
ENDBRANCH   9  12
ENDBRANCH   8   9
TORSDOF 4
ENDMDL
MODEL 6
REMARK VINA RESULT:      -4.4      2.084      3.020
REMARK  4 active torsions:
REMARK  status: ('A' for Active; 'I' for Inactive)
REMARK    1  A    between atoms: C_10  and  C_11 
REMARK    2  A    between atoms: C_11  and  O_12 
REMARK    3  A    between atoms: C_11  and  C_13 
REMARK    4  A    between atoms: C_13  and  O_15 
ROOT
HETATM    1  C   UNL     2     -43.707 -54.384  14.012  1.00  0.00     0.050 C 
HETATM    2  C   UNL     2     -43.323 -52.989  13.597  1.00  0.00    -0.036 A 
HETATM    3  C   UNL     2     -44.241 -51.944  13.790  1.00  0.00     0.010 A 
HETATM    4  C   UNL     2     -43.918 -50.639  13.424  1.00  0.00     0.018 A 
HETATM    5  C   UNL     2     -42.667 -50.377  12.873  1.00  0.00     0.088 A 
HETATM    6  N   UNL     2     -41.784 -51.388  12.685  1.00  0.00    -0.366 N 
ATOM      7  HN  UNL     2     -40.874 -51.171  12.280  1.00  0.00     0.165 HD
HETATM    8  C   UNL     2     -42.063 -52.686  13.013  1.00  0.00     0.054 A 
ENDROOT
BRANCH   8   9
HETATM    9  C   UNL     2     -41.019 -53.739  12.677  1.00  0.00     0.265 C 
BRANCH   9  10
HETATM   10  O   UNL     2     -40.545 -53.505  11.373  1.00  0.00    -0.379 OA
HETATM   11  H   UNL     2     -41.307 -53.617  10.744  1.00  0.00     0.211 HD
ENDBRANCH   9  10
BRANCH   9  12
HETATM   12  C   UNL     2     -39.852 -53.826  13.643  1.00  0.00     0.176 C 
HETATM   13  O   UNL     2     -39.829 -53.072  14.604  1.00  0.00    -0.648 OA
BRANCH  12  14
HETATM   14  O   UNL     2     -38.814 -54.675  13.466  1.00  0.00    -0.774 OA
HETATM   15  H   UNL     2     -37.916 -54.378  13.275  1.00  0.00     0.167 HD
ENDBRANCH  12  14
ENDBRANCH   9  12
ENDBRANCH   8   9
TORSDOF 4
ENDMDL
MODEL 7
REMARK VINA RESULT:      -4.4      2.411      4.162
REMARK  4 active torsions:
REMARK  status: ('A' for Active; 'I' for Inactive)
REMARK    1  A    between atoms: C_10  and  C_11 
REMARK    2  A    between atoms: C_11  and  O_12 
REMARK    3  A    between atoms: C_11  and  C_13 
REMARK    4  A    between atoms: C_13  and  O_15 
ROOT
HETATM    1  C   UNL     2     -44.208 -50.593  14.326  1.00  0.00     0.050 C 
HETATM    2  C   UNL     2     -43.235 -50.140  13.271  1.00  0.00    -0.036 A 
HETATM    3  C   UNL     2     -43.133 -48.769  12.982  1.00  0.00     0.010 A 
HETATM    4  C   UNL     2     -42.239 -48.313  12.016  1.00  0.00     0.018 A 
HETATM    5  C   UNL     2     -41.436 -49.230  11.345  1.00  0.00     0.088 A 
HETATM    6  N   UNL     2     -41.539 -50.552  11.623  1.00  0.00    -0.366 N 
ATOM      7  HN  UNL     2     -40.940 -51.205  11.118  1.00  0.00     0.165 HD
HETATM    8  C   UNL     2     -42.413 -51.049  12.550  1.00  0.00     0.054 A 
ENDROOT
BRANCH   8   9
HETATM    9  C   UNL     2     -42.490 -52.559  12.711  1.00  0.00     0.265 C 
BRANCH   9  10
HETATM   10  O   UNL     2     -43.481 -53.055  11.844  1.00  0.00    -0.379 OA
HETATM   11  H   UNL     2     -44.358 -52.982  12.306  1.00  0.00     0.211 HD
ENDBRANCH   9  10
BRANCH   9  12
HETATM   12  C   UNL     2     -41.186 -53.301  12.485  1.00  0.00     0.176 C 
HETATM   13  O   UNL     2     -40.673 -53.884  13.429  1.00  0.00    -0.648 OA
BRANCH  12  14
HETATM   14  O   UNL     2     -40.545 -53.313  11.294  1.00  0.00    -0.774 OA
HETATM   15  H   UNL     2     -40.229 -52.512  10.857  1.00  0.00     0.167 HD
ENDBRANCH  12  14
ENDBRANCH   9  12
ENDBRANCH   8   9
TORSDOF 4
ENDMDL
MODEL 8
REMARK VINA RESULT:      -4.3      7.716      9.114
REMARK  4 active torsions:
REMARK  status: ('A' for Active; 'I' for Inactive)
REMARK    1  A    between atoms: C_10  and  C_11 
REMARK    2  A    between atoms: C_11  and  O_12 
REMARK    3  A    between atoms: C_11  and  C_13 
REMARK    4  A    between atoms: C_13  and  O_15 
ROOT
HETATM    1  C   UNL     2     -39.837 -45.736  10.681  1.00  0.00     0.050 C 
HETATM    2  C   UNL     2     -40.880 -44.671  10.889  1.00  0.00    -0.036 A 
HETATM    3  C   UNL     2     -40.480 -43.406  11.349  1.00  0.00     0.010 A 
HETATM    4  C   UNL     2     -41.417 -42.394  11.547  1.00  0.00     0.018 A 
HETATM    5  C   UNL     2     -42.758 -42.646  11.273  1.00  0.00     0.088 A 
HETATM    6  N   UNL     2     -43.142 -43.869  10.833  1.00  0.00    -0.366 N 
ATOM      7  HN  UNL     2     -44.130 -44.028  10.638  1.00  0.00     0.165 HD
HETATM    8  C   UNL     2     -42.262 -44.897  10.639  1.00  0.00     0.054 A 
ENDROOT
BRANCH   8   9
HETATM    9  C   UNL     2     -42.830 -46.243  10.221  1.00  0.00     0.265 C 
BRANCH   9  10
HETATM   10  O   UNL     2     -43.693 -46.704  11.232  1.00  0.00    -0.379 OA
HETATM   11  H   UNL     2     -44.591 -46.845  10.831  1.00  0.00     0.211 HD
ENDBRANCH   9  10
BRANCH   9  12
HETATM   12  C   UNL     2     -43.547 -46.256   8.884  1.00  0.00     0.176 C 
HETATM   13  O   UNL     2     -44.651 -45.738   8.805  1.00  0.00    -0.648 OA
BRANCH  12  14
HETATM   14  O   UNL     2     -43.035 -46.853   7.782  1.00  0.00    -0.774 OA
HETATM   15  H   UNL     2     -43.162 -46.510   6.889  1.00  0.00     0.167 HD
ENDBRANCH  12  14
ENDBRANCH   9  12
ENDBRANCH   8   9
TORSDOF 4
ENDMDL
MODEL 9
REMARK VINA RESULT:      -4.2      1.904      2.973
REMARK  4 active torsions:
REMARK  status: ('A' for Active; 'I' for Inactive)
REMARK    1  A    between atoms: C_10  and  C_11 
REMARK    2  A    between atoms: C_11  and  O_12 
REMARK    3  A    between atoms: C_11  and  C_13 
REMARK    4  A    between atoms: C_13  and  O_15 
ROOT
HETATM    1  C   UNL     2     -43.428 -49.678  13.671  1.00  0.00     0.050 C 
HETATM    2  C   UNL     2     -43.874 -51.076  13.337  1.00  0.00    -0.036 A 
HETATM    3  C   UNL     2     -45.244 -51.332  13.168  1.00  0.00     0.010 A 
HETATM    4  C   UNL     2     -45.693 -52.613  12.853  1.00  0.00     0.018 A 
HETATM    5  C   UNL     2     -44.766 -53.638  12.694  1.00  0.00     0.088 A 
HETATM    6  N   UNL     2     -43.444 -53.389  12.861  1.00  0.00    -0.366 N 
ATOM      7  HN  UNL     2     -42.784 -54.157  12.739  1.00  0.00     0.165 HD
HETATM    8  C   UNL     2     -42.958 -52.153  13.187  1.00  0.00     0.054 A 
ENDROOT
BRANCH   8   9
HETATM    9  C   UNL     2     -41.463 -52.023  13.426  1.00  0.00     0.265 C 
BRANCH   9  10
HETATM   10  O   UNL     2     -41.213 -52.144  14.805  1.00  0.00    -0.379 OA
HETATM   11  H   UNL     2     -41.225 -51.233  15.202  1.00  0.00     0.211 HD
ENDBRANCH   9  10
BRANCH   9  12
HETATM   12  C   UNL     2     -40.596 -53.001  12.655  1.00  0.00     0.176 C 
HETATM   13  O   UNL     2     -39.725 -53.613  13.256  1.00  0.00    -0.648 OA
BRANCH  12  14
HETATM   14  O   UNL     2     -40.717 -53.197  11.322  1.00  0.00    -0.774 OA
HETATM   15  H   UNL     2     -40.008 -53.009  10.695  1.00  0.00     0.167 HD
ENDBRANCH  12  14
ENDBRANCH   9  12
ENDBRANCH   8   9
TORSDOF 4
ENDMDL
