MODEL 1
REMARK VINA RESULT:      -4.7      0.000      0.000
REMARK  5 active torsions:
REMARK  status: ('A' for Active; 'I' for Inactive)
REMARK    1  A    between atoms: O_2  and  C_3 
REMARK    2  A    between atoms: C_3  and  C_4 
REMARK    3  A    between atoms: C_4  and  N_5 
REMARK    4  A    between atoms: C_6  and  C_7 
REMARK    5  A    between atoms: C_7  and  O_8 
ROOT
HETATM    1  N   UNL     1     -42.675 -51.985  13.313  1.00  0.00    -0.331 N 
HETATM    2  C   UNL     1     -42.244 -53.278  13.074  1.00  0.00     0.108 A 
HETATM    3  N   UNL     1     -43.248 -54.127  13.192  1.00  0.00    -0.342 N 
ATOM      4  HN  UNL     1     -43.210 -55.140  13.083  1.00  0.00     0.167 HD
HETATM    5  C   UNL     1     -44.351 -53.372  13.491  1.00  0.00     0.060 A 
HETATM    6  C   UNL     1     -45.664 -53.781  13.766  1.00  0.00     0.032 A 
HETATM    7  C   UNL     1     -46.628 -52.808  14.056  1.00  0.00     0.002 A 
HETATM    8  C   UNL     1     -46.301 -51.453  14.034  1.00  0.00     0.002 A 
HETATM    9  C   UNL     1     -45.001 -51.027  13.743  1.00  0.00     0.032 A 
HETATM   10  C   UNL     1     -44.037 -52.019  13.514  1.00  0.00     0.062 A 
ENDROOT
BRANCH   1  11
HETATM   11  C   UNL     1     -41.852 -50.790  13.407  1.00  0.00     0.156 C 
BRANCH  11  12
HETATM   12  C   UNL     1     -41.767 -50.035  12.080  1.00  0.00     0.187 C 
BRANCH  12  13
HETATM   13  O   UNL     1     -40.580 -50.415  11.379  1.00  0.00    -0.394 OA
HETATM   14  C   UNL     1     -39.419 -50.158  12.163  1.00  0.00     0.201 C 
ENDBRANCH  12  13
ENDBRANCH  11  12
ENDBRANCH   1  11
BRANCH   2  15
HETATM   15  C   UNL     1     -40.841 -53.668  12.757  1.00  0.00     0.240 C 
BRANCH  15  16
HETATM   16  O   UNL     1     -40.609 -53.409  11.377  1.00  0.00    -0.393 OA
HETATM   17  H   UNL     1     -41.116 -52.604  11.169  1.00  0.00     0.209 HD
ENDBRANCH  15  16
ENDBRANCH   2  15
TORSDOF 5
ENDMDL
MODEL 2
REMARK VINA RESULT:      -4.7      2.373      3.516
REMARK  5 active torsions:
REMARK  status: ('A' for Active; 'I' for Inactive)
REMARK    1  A    between atoms: O_2  and  C_3 
REMARK    2  A    between atoms: C_3  and  C_4 
REMARK    3  A    between atoms: C_4  and  N_5 
REMARK    4  A    between atoms: C_6  and  C_7 
REMARK    5  A    between atoms: C_7  and  O_8 
ROOT
HETATM    1  N   UNL     1     -43.127 -53.083  14.303  1.00  0.00    -0.331 N 
HETATM    2  C   UNL     1     -42.620 -53.470  13.075  1.00  0.00     0.108 A 
HETATM    3  N   UNL     1     -43.493 -53.216  12.117  1.00  0.00    -0.342 N 
ATOM      4  HN  UNL     1     -43.385 -53.412  11.122  1.00  0.00     0.167 HD
HETATM    5  C   UNL     1     -44.573 -52.637  12.730  1.00  0.00     0.060 A 
HETATM    6  C   UNL     1     -45.794 -52.221  12.179  1.00  0.00     0.032 A 
HETATM    7  C   UNL     1     -46.758 -51.657  13.023  1.00  0.00     0.002 A 
HETATM    8  C   UNL     1     -46.498 -51.476  14.382  1.00  0.00     0.002 A 
HETATM    9  C   UNL     1     -45.279 -51.869  14.943  1.00  0.00     0.032 A 
HETATM   10  C   UNL     1     -44.350 -52.485  14.093  1.00  0.00     0.062 A 
ENDROOT
BRANCH   1  11
HETATM   11  C   UNL     1     -42.529 -53.314  15.609  1.00  0.00     0.156 C 
BRANCH  11  12
HETATM   12  C   UNL     1     -43.257 -54.401  16.400  1.00  0.00     0.187 C 
BRANCH  12  13
HETATM   13  O   UNL     1     -42.929 -55.688  15.873  1.00  0.00    -0.394 OA
HETATM   14  C   UNL     1     -41.876 -56.292  16.619  1.00  0.00     0.201 C 
ENDBRANCH  12  13
ENDBRANCH  11  12
ENDBRANCH   1  11
BRANCH   2  15
HETATM   15  C   UNL     1     -41.292 -54.109  12.859  1.00  0.00     0.240 C 
BRANCH  15  16
HETATM   16  O   UNL     1     -40.708 -53.537  11.694  1.00  0.00    -0.393 OA
HETATM   17  H   UNL     1     -39.982 -54.134  11.441  1.00  0.00     0.209 HD
ENDBRANCH  15  16
ENDBRANCH   2  15
TORSDOF 5
ENDMDL
MODEL 3
REMARK VINA RESULT:      -4.6      3.730      5.379
REMARK  5 active torsions:
REMARK  status: ('A' for Active; 'I' for Inactive)
REMARK    1  A    between atoms: O_2  and  C_3 
REMARK    2  A    between atoms: C_3  and  C_4 
REMARK    3  A    between atoms: C_4  and  N_5 
REMARK    4  A    between atoms: C_6  and  C_7 
REMARK    5  A    between atoms: C_7  and  O_8 
ROOT
HETATM    1  N   UNL     1     -40.064 -49.163  11.819  1.00  0.00    -0.331 N 
HETATM    2  C   UNL     1     -41.028 -50.154  11.792  1.00  0.00     0.108 A 
HETATM    3  N   UNL     1     -42.185 -49.660  11.391  1.00  0.00    -0.342 N 
ATOM      4  HN  UNL     1     -43.066 -50.164  11.293  1.00  0.00     0.167 HD
HETATM    5  C   UNL     1     -41.962 -48.333  11.133  1.00  0.00     0.060 A 
HETATM    6  C   UNL     1     -42.865 -47.339  10.729  1.00  0.00     0.032 A 
HETATM    7  C   UNL     1     -42.392 -46.035  10.535  1.00  0.00     0.002 A 
HETATM    8  C   UNL     1     -41.041 -45.735  10.703  1.00  0.00     0.002 A 
HETATM    9  C   UNL     1     -40.124 -46.719  11.087  1.00  0.00     0.032 A 
HETATM   10  C   UNL     1     -40.627 -48.004  11.334  1.00  0.00     0.062 A 
ENDROOT
BRANCH   1  11
HETATM   11  C   UNL     1     -38.704 -49.276  12.325  1.00  0.00     0.156 C 
BRANCH  11  12
HETATM   12  C   UNL     1     -37.737 -49.832  11.280  1.00  0.00     0.187 C 
BRANCH  12  13
HETATM   13  O   UNL     1     -37.223 -51.093  11.713  1.00  0.00    -0.394 OA
HETATM   14  C   UNL     1     -37.269 -51.203  13.133  1.00  0.00     0.201 C 
ENDBRANCH  12  13
ENDBRANCH  11  12
ENDBRANCH   1  11
BRANCH   2  15
HETATM   15  C   UNL     1     -40.809 -51.574  12.187  1.00  0.00     0.240 C 
BRANCH  15  16
HETATM   16  O   UNL     1     -41.206 -52.404  11.102  1.00  0.00    -0.393 OA
HETATM   17  H   UNL     1     -40.382 -52.673  10.658  1.00  0.00     0.209 HD
ENDBRANCH  15  16
ENDBRANCH   2  15
TORSDOF 5
ENDMDL
MODEL 4
REMARK VINA RESULT:      -4.6      1.575      1.625
REMARK  5 active torsions:
REMARK  status: ('A' for Active; 'I' for Inactive)
REMARK    1  A    between atoms: O_2  and  C_3 
REMARK    2  A    between atoms: C_3  and  C_4 
REMARK    3  A    between atoms: C_4  and  N_5 
REMARK    4  A    between atoms: C_6  and  C_7 
REMARK    5  A    between atoms: C_7  and  O_8 
ROOT
HETATM    1  N   UNL     1     -42.661 -52.665  14.072  1.00  0.00    -0.331 N 
HETATM    2  C   UNL     1     -42.431 -53.486  12.982  1.00  0.00     0.108 A 
HETATM    3  N   UNL     1     -43.534 -53.624  12.270  1.00  0.00    -0.342 N 
ATOM      4  HN  UNL     1     -43.653 -54.184  11.426  1.00  0.00     0.167 HD
HETATM    5  C   UNL     1     -44.488 -52.865  12.895  1.00  0.00     0.060 A 
HETATM    6  C   UNL     1     -45.845 -52.701  12.580  1.00  0.00     0.032 A 
HETATM    7  C   UNL     1     -46.629 -51.866  13.386  1.00  0.00     0.002 A 
HETATM    8  C   UNL     1     -46.065 -51.179  14.460  1.00  0.00     0.002 A 
HETATM    9  C   UNL     1     -44.710 -51.317  14.776  1.00  0.00     0.032 A 
HETATM   10  C   UNL     1     -43.956 -52.202  13.994  1.00  0.00     0.062 A 
ENDROOT
BRANCH   1  11
HETATM   11  C   UNL     1     -41.740 -52.374  15.159  1.00  0.00     0.156 C 
BRANCH  11  12
HETATM   12  C   UNL     1     -41.000 -51.051  14.959  1.00  0.00     0.187 C 
BRANCH  12  13
HETATM   13  O   UNL     1     -40.047 -51.182  13.903  1.00  0.00    -0.394 OA
HETATM   14  C   UNL     1     -38.816 -51.712  14.388  1.00  0.00     0.201 C 
ENDBRANCH  12  13
ENDBRANCH  11  12
ENDBRANCH   1  11
BRANCH   2  15
HETATM   15  C   UNL     1     -41.134 -54.148  12.666  1.00  0.00     0.240 C 
BRANCH  15  16
HETATM   16  O   UNL     1     -40.471 -53.374  11.674  1.00  0.00    -0.393 OA
HETATM   17  H   UNL     1     -40.676 -52.445  11.881  1.00  0.00     0.209 HD
ENDBRANCH  15  16
ENDBRANCH   2  15
TORSDOF 5
ENDMDL
MODEL 5
REMARK VINA RESULT:      -4.6      2.068      3.643
REMARK  5 active torsions:
REMARK  status: ('A' for Active; 'I' for Inactive)
REMARK    1  A    between atoms: O_2  and  C_3 
REMARK    2  A    between atoms: C_3  and  C_4 
REMARK    3  A    between atoms: C_4  and  N_5 
REMARK    4  A    between atoms: C_6  and  C_7 
REMARK    5  A    between atoms: C_7  and  O_8 
ROOT
HETATM    1  N   UNL     1     -41.145 -52.958  13.614  1.00  0.00    -0.331 N 
HETATM    2  C   UNL     1     -41.220 -52.049  12.575  1.00  0.00     0.108 A 
HETATM    3  N   UNL     1     -42.411 -52.096  12.007  1.00  0.00    -0.342 N 
ATOM      4  HN  UNL     1     -42.733 -51.546  11.211  1.00  0.00     0.167 HD
HETATM    5  C   UNL     1     -43.126 -53.035  12.703  1.00  0.00     0.060 A 
HETATM    6  C   UNL     1     -44.428 -53.508  12.483  1.00  0.00     0.032 A 
HETATM    7  C   UNL     1     -44.943 -54.490  13.337  1.00  0.00     0.002 A 
HETATM    8  C   UNL     1     -44.192 -54.965  14.412  1.00  0.00     0.002 A 
HETATM    9  C   UNL     1     -42.900 -54.490  14.657  1.00  0.00     0.032 A 
HETATM   10  C   UNL     1     -42.380 -53.551  13.755  1.00  0.00     0.062 A 
ENDROOT
BRANCH   1  11
HETATM   11  C   UNL     1     -39.967 -53.298  14.397  1.00  0.00     0.156 C 
BRANCH  11  12
HETATM   12  C   UNL     1     -39.257 -54.546  13.870  1.00  0.00     0.187 C 
BRANCH  12  13
HETATM   13  O   UNL     1     -38.929 -55.414  14.957  1.00  0.00    -0.394 OA
HETATM   14  C   UNL     1     -39.472 -54.929  16.181  1.00  0.00     0.201 C 
ENDBRANCH  12  13
ENDBRANCH  11  12
ENDBRANCH   1  11
BRANCH   2  15
HETATM   15  C   UNL     1     -40.109 -51.159  12.132  1.00  0.00     0.240 C 
BRANCH  15  16
HETATM   16  O   UNL     1     -40.488 -50.555  10.900  1.00  0.00    -0.393 OA
HETATM   17  H   UNL     1     -40.445 -49.594  11.052  1.00  0.00     0.209 HD
ENDBRANCH  15  16
ENDBRANCH   2  15
TORSDOF 5
ENDMDL
MODEL 6
REMARK VINA RESULT:      -4.5      1.862      2.229
REMARK  5 active torsions:
REMARK  status: ('A' for Active; 'I' for Inactive)
REMARK    1  A    between atoms: O_2  and  C_3 
REMARK    2  A    between atoms: C_3  and  C_4 
REMARK    3  A    between atoms: C_4  and  N_5 
REMARK    4  A    between atoms: C_6  and  C_7 
REMARK    5  A    between atoms: C_7  and  O_8 
ROOT
HETATM    1  N   UNL     1     -41.475 -53.152  12.979  1.00  0.00    -0.331 N 
HETATM    2  C   UNL     1     -40.659 -53.709  13.947  1.00  0.00     0.108 A 
HETATM    3  N   UNL     1     -41.364 -54.478  14.756  1.00  0.00    -0.342 N 
ATOM      4  HN  UNL     1     -41.020 -54.998  15.563  1.00  0.00     0.167 HD
HETATM    5  C   UNL     1     -42.654 -54.435  14.293  1.00  0.00     0.060 A 
HETATM    6  C   UNL     1     -43.809 -55.033  14.816  1.00  0.00     0.032 A 
HETATM    7  C   UNL     1     -45.029 -54.833  14.159  1.00  0.00     0.002 A 
HETATM    8  C   UNL     1     -45.092 -54.084  12.984  1.00  0.00     0.002 A 
HETATM    9  C   UNL     1     -43.945 -53.498  12.440  1.00  0.00     0.032 A 
HETATM   10  C   UNL     1     -42.745 -53.660  13.144  1.00  0.00     0.062 A 
ENDROOT
BRANCH   1  11
HETATM   11  C   UNL     1     -41.103 -52.152  11.989  1.00  0.00     0.156 C 
BRANCH  11  12
HETATM   12  C   UNL     1     -41.525 -50.741  12.399  1.00  0.00     0.187 C 
BRANCH  12  13
HETATM   13  O   UNL     1     -40.384 -50.003  12.842  1.00  0.00    -0.394 OA
HETATM   14  C   UNL     1     -39.230 -50.335  12.075  1.00  0.00     0.201 C 
ENDBRANCH  12  13
ENDBRANCH  11  12
ENDBRANCH   1  11
BRANCH   2  15
HETATM   15  C   UNL     1     -39.196 -53.460  14.082  1.00  0.00     0.240 C 
BRANCH  15  16
HETATM   16  O   UNL     1     -38.504 -54.495  13.395  1.00  0.00    -0.393 OA
HETATM   17  H   UNL     1     -39.193 -55.081  13.033  1.00  0.00     0.209 HD
ENDBRANCH  15  16
ENDBRANCH   2  15
TORSDOF 5
ENDMDL
MODEL 7
REMARK VINA RESULT:      -4.4      1.985      2.866
REMARK  5 active torsions:
REMARK  status: ('A' for Active; 'I' for Inactive)
REMARK    1  A    between atoms: O_2  and  C_3 
REMARK    2  A    between atoms: C_3  and  C_4 
REMARK    3  A    between atoms: C_4  and  N_5 
REMARK    4  A    between atoms: C_6  and  C_7 
REMARK    5  A    between atoms: C_7  and  O_8 
ROOT
HETATM    1  N   UNL     1     -41.503 -51.951  13.702  1.00  0.00    -0.331 N 
HETATM    2  C   UNL     1     -41.941 -51.327  12.548  1.00  0.00     0.108 A 
HETATM    3  N   UNL     1     -43.006 -51.943  12.067  1.00  0.00    -0.342 N 
ATOM      4  HN  UNL     1     -43.523 -51.704  11.222  1.00  0.00     0.167 HD
HETATM    5  C   UNL     1     -43.275 -52.969  12.935  1.00  0.00     0.060 A 
HETATM    6  C   UNL     1     -44.267 -53.958  12.867  1.00  0.00     0.032 A 
HETATM    7  C   UNL     1     -44.337 -54.916  13.885  1.00  0.00     0.002 A 
HETATM    8  C   UNL     1     -43.461 -54.868  14.969  1.00  0.00     0.002 A 
HETATM    9  C   UNL     1     -42.479 -53.878  15.062  1.00  0.00     0.032 A 
HETATM   10  C   UNL     1     -42.387 -52.964  14.004  1.00  0.00     0.062 A 
ENDROOT
BRANCH   1  11
HETATM   11  C   UNL     1     -40.292 -51.656  14.452  1.00  0.00     0.156 C 
BRANCH  11  12
HETATM   12  C   UNL     1     -39.112 -52.528  14.020  1.00  0.00     0.187 C 
BRANCH  12  13
HETATM   13  O   UNL     1     -38.459 -51.938  12.893  1.00  0.00    -0.394 OA
HETATM   14  C   UNL     1     -37.669 -50.820  13.287  1.00  0.00     0.201 C 
ENDBRANCH  12  13
ENDBRANCH  11  12
ENDBRANCH   1  11
BRANCH   2  15
HETATM   15  C   UNL     1     -41.291 -50.146  11.913  1.00  0.00     0.240 C 
BRANCH  15  16
HETATM   16  O   UNL     1     -40.389 -50.617  10.918  1.00  0.00    -0.393 OA
HETATM   17  H   UNL     1     -40.715 -51.497  10.659  1.00  0.00     0.209 HD
ENDBRANCH  15  16
ENDBRANCH   2  15
TORSDOF 5
ENDMDL
MODEL 8
REMARK VINA RESULT:      -4.4      5.060      7.006
REMARK  5 active torsions:
REMARK  status: ('A' for Active; 'I' for Inactive)
REMARK    1  A    between atoms: O_2  and  C_3 
REMARK    2  A    between atoms: C_3  and  C_4 
REMARK    3  A    between atoms: C_4  and  N_5 
REMARK    4  A    between atoms: C_6  and  C_7 
REMARK    5  A    between atoms: C_7  and  O_8 
ROOT
HETATM    1  N   UNL     1     -41.144 -46.610  10.603  1.00  0.00    -0.331 N 
HETATM    2  C   UNL     1     -42.328 -47.049  10.038  1.00  0.00     0.108 A 
HETATM    3  N   UNL     1     -42.519 -48.328  10.304  1.00  0.00    -0.342 N 
ATOM      4  HN  UNL     1     -43.301 -48.907  10.000  1.00  0.00     0.167 HD
HETATM    5  C   UNL     1     -41.452 -48.719  11.071  1.00  0.00     0.060 A 
HETATM    6  C   UNL     1     -41.139 -49.988  11.581  1.00  0.00     0.032 A 
HETATM    7  C   UNL     1     -39.973 -50.141  12.341  1.00  0.00     0.002 A 
HETATM    8  C   UNL     1     -39.156 -49.045  12.619  1.00  0.00     0.002 A 
HETATM    9  C   UNL     1     -39.464 -47.771  12.134  1.00  0.00     0.032 A 
HETATM   10  C   UNL     1     -40.603 -47.650  11.327  1.00  0.00     0.062 A 
ENDROOT
BRANCH   1  11
HETATM   11  C   UNL     1     -40.519 -45.308  10.429  1.00  0.00     0.156 C 
BRANCH  11  12
HETATM   12  C   UNL     1     -41.076 -44.261  11.394  1.00  0.00     0.187 C 
BRANCH  12  13
HETATM   13  O   UNL     1     -41.642 -43.174  10.660  1.00  0.00    -0.394 OA
HETATM   14  C   UNL     1     -42.990 -42.936  11.057  1.00  0.00     0.201 C 
ENDBRANCH  12  13
ENDBRANCH  11  12
ENDBRANCH   1  11
BRANCH   2  15
HETATM   15  C   UNL     1     -43.249 -46.211   9.219  1.00  0.00     0.240 C 
BRANCH  15  16
HETATM   16  O   UNL     1     -42.700 -46.097   7.911  1.00  0.00    -0.393 OA
HETATM   17  H   UNL     1     -43.458 -45.942   7.319  1.00  0.00     0.209 HD
ENDBRANCH  15  16
ENDBRANCH   2  15
TORSDOF 5
ENDMDL
MODEL 9
REMARK VINA RESULT:      -4.3      2.850      5.047
REMARK  5 active torsions:
REMARK  status: ('A' for Active; 'I' for Inactive)
REMARK    1  A    between atoms: O_2  and  C_3 
REMARK    2  A    between atoms: C_3  and  C_4 
REMARK    3  A    between atoms: C_4  and  N_5 
REMARK    4  A    between atoms: C_6  and  C_7 
REMARK    5  A    between atoms: C_7  and  O_8 
ROOT
HETATM    1  N   UNL     1     -42.514 -53.604  13.993  1.00  0.00    -0.331 N 
HETATM    2  C   UNL     1     -41.474 -53.046  13.272  1.00  0.00     0.108 A 
HETATM    3  N   UNL     1     -40.314 -53.494  13.716  1.00  0.00    -0.342 N 
ATOM      4  HN  UNL     1     -39.387 -53.238  13.377  1.00  0.00     0.167 HD
HETATM    5  C   UNL     1     -40.607 -54.371  14.727  1.00  0.00     0.060 A 
HETATM    6  C   UNL     1     -39.741 -55.087  15.566  1.00  0.00     0.032 A 
HETATM    7  C   UNL     1     -40.288 -55.928  16.543  1.00  0.00     0.002 A 
HETATM    8  C   UNL     1     -41.670 -56.081  16.658  1.00  0.00     0.002 A 
HETATM    9  C   UNL     1     -42.546 -55.389  15.817  1.00  0.00     0.032 A 
HETATM   10  C   UNL     1     -41.981 -54.508  14.885  1.00  0.00     0.062 A 
ENDROOT
BRANCH   1  11
HETATM   11  C   UNL     1     -43.926 -53.268  13.897  1.00  0.00     0.156 C 
BRANCH  11  12
HETATM   12  C   UNL     1     -44.679 -54.186  12.933  1.00  0.00     0.187 C 
BRANCH  12  13
HETATM   13  O   UNL     1     -45.423 -55.159  13.670  1.00  0.00    -0.394 OA
HETATM   14  C   UNL     1     -46.243 -54.538  14.656  1.00  0.00     0.201 C 
ENDBRANCH  12  13
ENDBRANCH  11  12
ENDBRANCH   1  11
BRANCH   2  15
HETATM   15  C   UNL     1     -41.630 -52.057  12.169  1.00  0.00     0.240 C 
BRANCH  15  16
HETATM   16  O   UNL     1     -41.240 -52.683  10.952  1.00  0.00    -0.393 OA
HETATM   17  H   UNL     1     -40.384 -53.110  11.136  1.00  0.00     0.209 HD
ENDBRANCH  15  16
ENDBRANCH   2  15
TORSDOF 5
ENDMDL
