MODEL 1
REMARK VINA RESULT:      -6.0      0.000      0.000
REMARK  4 active torsions:
REMARK  status: ('A' for Active; 'I' for Inactive)
REMARK    1  A    between atoms: C_2  and  C_4 
REMARK       I    between atoms: C_4  and  N_6 
REMARK    2  A    between atoms: N_6  and  C_7 
REMARK    3  A    between atoms: C_7  and  C_8 
REMARK    4  A    between atoms: C_13  and  N_15 
ROOT
HETATM    1  C   UNL     1     -42.174 -50.066  12.882  1.00  0.00    -0.036 A 
HETATM    2  C   UNL     1     -40.971 -50.634  12.473  1.00  0.00     0.026 A 
HETATM    3  C   UNL     1     -40.370 -50.135  11.331  1.00  0.00     0.090 A 
HETATM    4  N   UNL     1     -40.865 -49.113  10.592  1.00  0.00    -0.352 N 
ATOM      5  HN  UNL     1     -40.360 -48.753   9.783  1.00  0.00     0.166 HD
HETATM    6  C   UNL     1     -42.046 -48.590  10.966  1.00  0.00     0.103 A 
HETATM    7  C   UNL     1     -42.739 -49.075  12.075  1.00  0.00     0.057 A 
ENDROOT
BRANCH   1   8
HETATM    8  C   UNL     1     -42.806 -50.405  14.198  1.00  0.00     0.161 C 
BRANCH   8   9
HETATM    9  N   UNL     1     -44.218 -50.678  14.099  1.00  0.00    -0.357 N 
HETATM   10  C   UNL     1     -44.635 -51.965  13.841  1.00  0.00     0.221 C 
HETATM   11  O   UNL     1     -43.840 -52.887  13.677  1.00  0.00    -0.273 OA
HETATM   12  H   UNL     1     -44.882 -49.936  14.272  1.00  0.00     0.162 HD
BRANCH  10  13
HETATM   13  C   UNL     1     -46.147 -52.146  13.729  1.00  0.00     0.070 C 
HETATM   14  C   UNL     1     -46.861 -51.385  14.850  1.00  0.00     0.019 C 
HETATM   15  C   UNL     1     -46.672 -51.683  12.373  1.00  0.00     0.019 C 
ENDBRANCH  10  13
ENDBRANCH   8   9
ENDBRANCH   1   8
BRANCH   6  16
HETATM   16  N   UNL     1     -42.530 -47.435  10.377  1.00  0.00    -0.363 N 
HETATM   17  C   UNL     1     -41.746 -46.208  10.519  1.00  0.00     0.150 C 
HETATM   18  C   UNL     1     -42.739 -45.038  10.368  1.00  0.00     0.187 C 
HETATM   19  O   UNL     1     -43.423 -45.085   9.097  1.00  0.00    -0.388 OA
HETATM   20  C   UNL     1     -44.127 -46.334   8.936  1.00  0.00     0.187 C 
HETATM   21  C   UNL     1     -43.181 -47.541   9.070  1.00  0.00     0.150 C 
ENDBRANCH   6  16
TORSDOF 4
ENDMDL
MODEL 2
REMARK VINA RESULT:      -5.8      3.373      4.785
REMARK  4 active torsions:
REMARK  status: ('A' for Active; 'I' for Inactive)
REMARK    1  A    between atoms: C_2  and  C_4 
REMARK       I    between atoms: C_4  and  N_6 
REMARK    2  A    between atoms: N_6  and  C_7 
REMARK    3  A    between atoms: C_7  and  C_8 
REMARK    4  A    between atoms: C_13  and  N_15 
ROOT
HETATM    1  C   UNL     1     -41.898 -54.072  14.268  1.00  0.00    -0.036 A 
HETATM    2  C   UNL     1     -40.999 -54.734  15.099  1.00  0.00     0.026 A 
HETATM    3  C   UNL     1     -39.675 -54.332  15.078  1.00  0.00     0.090 A 
HETATM    4  N   UNL     1     -39.197 -53.320  14.314  1.00  0.00    -0.352 N 
ATOM      5  HN  UNL     1     -38.219 -53.034  14.368  1.00  0.00     0.166 HD
HETATM    6  C   UNL     1     -40.058 -52.706  13.484  1.00  0.00     0.103 A 
HETATM    7  C   UNL     1     -41.397 -53.090  13.410  1.00  0.00     0.057 A 
ENDROOT
BRANCH   1   8
HETATM    8  C   UNL     1     -43.376 -54.303  14.352  1.00  0.00     0.161 C 
BRANCH   8   9
HETATM    9  N   UNL     1     -44.152 -53.096  14.216  1.00  0.00    -0.357 N 
HETATM   10  C   UNL     1     -45.129 -53.034  13.247  1.00  0.00     0.221 C 
HETATM   11  O   UNL     1     -45.351 -53.971  12.484  1.00  0.00    -0.273 OA
HETATM   12  H   UNL     1     -44.006 -52.334  14.863  1.00  0.00     0.162 HD
BRANCH  10  13
HETATM   13  C   UNL     1     -45.876 -51.705  13.165  1.00  0.00     0.070 C 
HETATM   14  C   UNL     1     -46.827 -51.699  11.964  1.00  0.00     0.019 C 
HETATM   15  C   UNL     1     -46.655 -51.416  14.445  1.00  0.00     0.019 C 
ENDBRANCH  10  13
ENDBRANCH   8   9
ENDBRANCH   1   8
BRANCH   6  16
HETATM   16  N   UNL     1     -39.695 -51.555  12.808  1.00  0.00    -0.363 N 
HETATM   17  C   UNL     1     -40.739 -50.579  12.496  1.00  0.00     0.150 C 
HETATM   18  C   UNL     1     -40.242 -49.789  11.268  1.00  0.00     0.187 C 
HETATM   19  O   UNL     1     -38.977 -49.145  11.530  1.00  0.00    -0.388 OA
HETATM   20  C   UNL     1     -37.976 -50.110  11.914  1.00  0.00     0.187 C 
HETATM   21  C   UNL     1     -38.416 -50.926  13.143  1.00  0.00     0.150 C 
ENDBRANCH   6  16
TORSDOF 4
ENDMDL
MODEL 3
REMARK VINA RESULT:      -5.7      5.279      8.482
REMARK  4 active torsions:
REMARK  status: ('A' for Active; 'I' for Inactive)
REMARK    1  A    between atoms: C_2  and  C_4 
REMARK       I    between atoms: C_4  and  N_6 
REMARK    2  A    between atoms: N_6  and  C_7 
REMARK    3  A    between atoms: C_7  and  C_8 
REMARK    4  A    between atoms: C_13  and  N_15 
ROOT
HETATM    1  C   UNL     1     -42.246 -54.427  14.570  1.00  0.00    -0.036 A 
HETATM    2  C   UNL     1     -41.610 -53.925  13.439  1.00  0.00     0.026 A 
HETATM    3  C   UNL     1     -40.229 -54.002  13.380  1.00  0.00     0.090 A 
HETATM    4  N   UNL     1     -39.454 -54.553  14.344  1.00  0.00    -0.352 N 
ATOM      5  HN  UNL     1     -38.443 -54.625  14.232  1.00  0.00     0.166 HD
HETATM    6  C   UNL     1     -40.066 -55.004  15.453  1.00  0.00     0.103 A 
HETATM    7  C   UNL     1     -41.449 -54.914  15.610  1.00  0.00     0.057 A 
ENDROOT
BRANCH   1   8
HETATM    8  C   UNL     1     -43.737 -54.561  14.651  1.00  0.00     0.161 C 
BRANCH   8   9
HETATM    9  N   UNL     1     -44.432 -53.309  14.483  1.00  0.00    -0.357 N 
HETATM   10  C   UNL     1     -45.221 -53.126  13.369  1.00  0.00     0.221 C 
HETATM   11  O   UNL     1     -45.341 -53.991  12.505  1.00  0.00    -0.273 OA
HETATM   12  H   UNL     1     -44.374 -52.606  15.207  1.00  0.00     0.162 HD
BRANCH  10  13
HETATM   13  C   UNL     1     -45.893 -51.759  13.270  1.00  0.00     0.070 C 
HETATM   14  C   UNL     1     -46.811 -51.701  12.045  1.00  0.00     0.019 C 
HETATM   15  C   UNL     1     -46.690 -51.429  14.530  1.00  0.00     0.019 C 
ENDBRANCH  10  13
ENDBRANCH   8   9
ENDBRANCH   1   8
BRANCH   6  16
HETATM   16  N   UNL     1     -39.372 -55.737  16.399  1.00  0.00    -0.363 N 
HETATM   17  C   UNL     1     -38.286 -55.077  17.124  1.00  0.00     0.150 C 
HETATM   18  C   UNL     1     -37.329 -56.195  17.584  1.00  0.00     0.187 C 
HETATM   19  O   UNL     1     -38.005 -57.163  18.414  1.00  0.00    -0.388 OA
HETATM   20  C   UNL     1     -39.123 -57.749  17.715  1.00  0.00     0.187 C 
HETATM   21  C   UNL     1     -40.119 -56.678  17.237  1.00  0.00     0.150 C 
ENDBRANCH   6  16
TORSDOF 4
ENDMDL
MODEL 4
REMARK VINA RESULT:      -5.7      1.641      6.219
REMARK  4 active torsions:
REMARK  status: ('A' for Active; 'I' for Inactive)
REMARK    1  A    between atoms: C_2  and  C_4 
REMARK       I    between atoms: C_4  and  N_6 
REMARK    2  A    between atoms: N_6  and  C_7 
REMARK    3  A    between atoms: C_7  and  C_8 
REMARK    4  A    between atoms: C_13  and  N_15 
ROOT
HETATM    1  C   UNL     1     -41.800 -49.977  12.028  1.00  0.00    -0.036 A 
HETATM    2  C   UNL     1     -40.770 -50.888  11.812  1.00  0.00     0.026 A 
HETATM    3  C   UNL     1     -40.963 -52.196  12.222  1.00  0.00     0.090 A 
HETATM    4  N   UNL     1     -42.097 -52.655  12.803  1.00  0.00    -0.352 N 
ATOM      5  HN  UNL     1     -42.205 -53.640  13.047  1.00  0.00     0.166 HD
HETATM    6  C   UNL     1     -43.075 -51.765  13.046  1.00  0.00     0.103 A 
HETATM    7  C   UNL     1     -42.936 -50.419  12.710  1.00  0.00     0.057 A 
ENDROOT
BRANCH   1   8
HETATM    8  C   UNL     1     -41.766 -48.591  11.458  1.00  0.00     0.161 C 
BRANCH   8   9
HETATM    9  N   UNL     1     -42.645 -48.417  10.328  1.00  0.00    -0.357 N 
HETATM   10  C   UNL     1     -43.081 -47.150  10.008  1.00  0.00     0.221 C 
HETATM   11  O   UNL     1     -42.756 -46.164  10.664  1.00  0.00    -0.273 OA
HETATM   12  H   UNL     1     -42.886 -49.215   9.757  1.00  0.00     0.162 HD
BRANCH  10  13
HETATM   13  C   UNL     1     -44.027 -47.074   8.813  1.00  0.00     0.070 C 
HETATM   14  C   UNL     1     -43.487 -47.911   7.648  1.00  0.00     0.019 C 
HETATM   15  C   UNL     1     -45.434 -47.541   9.177  1.00  0.00     0.019 C 
ENDBRANCH  10  13
ENDBRANCH   8   9
ENDBRANCH   1   8
BRANCH   6  16
HETATM   16  N   UNL     1     -44.325 -52.182  13.470  1.00  0.00    -0.363 N 
HETATM   17  C   UNL     1     -45.449 -51.259  13.317  1.00  0.00     0.150 C 
HETATM   18  C   UNL     1     -46.491 -51.663  14.380  1.00  0.00     0.187 C 
HETATM   19  O   UNL     1     -46.908 -53.035  14.217  1.00  0.00    -0.388 OA
HETATM   20  C   UNL     1     -45.780 -53.930  14.289  1.00  0.00     0.187 C 
HETATM   21  C   UNL     1     -44.707 -53.578  13.243  1.00  0.00     0.150 C 
ENDBRANCH   6  16
TORSDOF 4
ENDMDL
MODEL 5
REMARK VINA RESULT:      -5.5      1.995      6.238
REMARK  4 active torsions:
REMARK  status: ('A' for Active; 'I' for Inactive)
REMARK    1  A    between atoms: C_2  and  C_4 
REMARK       I    between atoms: C_4  and  N_6 
REMARK    2  A    between atoms: N_6  and  C_7 
REMARK    3  A    between atoms: C_7  and  C_8 
REMARK    4  A    between atoms: C_13  and  N_15 
ROOT
HETATM    1  C   UNL     1     -40.322 -48.483  11.532  1.00  0.00    -0.036 A 
HETATM    2  C   UNL     1     -38.956 -48.691  11.368  1.00  0.00     0.026 A 
HETATM    3  C   UNL     1     -38.438 -49.924  11.724  1.00  0.00     0.090 A 
HETATM    4  N   UNL     1     -39.177 -50.952  12.206  1.00  0.00    -0.352 N 
ATOM      5  HN  UNL     1     -38.753 -51.856  12.412  1.00  0.00     0.166 HD
HETATM    6  C   UNL     1     -40.490 -50.737  12.401  1.00  0.00     0.103 A 
HETATM    7  C   UNL     1     -41.076 -49.504  12.115  1.00  0.00     0.057 A 
ENDROOT
BRANCH   1   8
HETATM    8  C   UNL     1     -41.008 -47.258  11.007  1.00  0.00     0.161 C 
BRANCH   8   9
HETATM    9  N   UNL     1     -42.064 -47.553  10.071  1.00  0.00    -0.357 N 
HETATM   10  C   UNL     1     -42.792 -46.514   9.533  1.00  0.00     0.221 C 
HETATM   11  O   UNL     1     -42.578 -45.343   9.837  1.00  0.00    -0.273 OA
HETATM   12  H   UNL     1     -42.222 -48.508   9.782  1.00  0.00     0.162 HD
BRANCH  10  13
HETATM   13  C   UNL     1     -43.904 -46.931   8.573  1.00  0.00     0.070 C 
HETATM   14  C   UNL     1     -43.386 -47.967   7.571  1.00  0.00     0.019 C 
HETATM   15  C   UNL     1     -45.112 -47.490   9.319  1.00  0.00     0.019 C 
ENDBRANCH  10  13
ENDBRANCH   8   9
ENDBRANCH   1   8
BRANCH   6  16
HETATM   16  N   UNL     1     -41.341 -51.781  12.717  1.00  0.00    -0.363 N 
HETATM   17  C   UNL     1     -42.783 -51.533  12.676  1.00  0.00     0.150 C 
HETATM   18  C   UNL     1     -43.427 -52.557  13.632  1.00  0.00     0.187 C 
HETATM   19  O   UNL     1     -43.113 -53.912  13.247  1.00  0.00    -0.388 OA
HETATM   20  C   UNL     1     -41.686 -54.121  13.214  1.00  0.00     0.187 C 
HETATM   21  C   UNL     1     -40.988 -53.128  12.267  1.00  0.00     0.150 C 
ENDBRANCH   6  16
TORSDOF 4
ENDMDL
MODEL 6
REMARK VINA RESULT:      -5.2      1.554      2.140
REMARK  4 active torsions:
REMARK  status: ('A' for Active; 'I' for Inactive)
REMARK    1  A    between atoms: C_2  and  C_4 
REMARK       I    between atoms: C_4  and  N_6 
REMARK    2  A    between atoms: N_6  and  C_7 
REMARK    3  A    between atoms: C_7  and  C_8 
REMARK    4  A    between atoms: C_13  and  N_15 
ROOT
HETATM    1  C   UNL     1     -40.740 -50.892  12.616  1.00  0.00    -0.036 A 
HETATM    2  C   UNL     1     -39.360 -51.038  12.509  1.00  0.00     0.026 A 
HETATM    3  C   UNL     1     -38.662 -50.100  11.767  1.00  0.00     0.090 A 
HETATM    4  N   UNL     1     -39.231 -49.035  11.153  1.00  0.00    -0.352 N 
ATOM      5  HN  UNL     1     -38.666 -48.348  10.654  1.00  0.00     0.166 HD
HETATM    6  C   UNL     1     -40.569 -48.917  11.225  1.00  0.00     0.103 A 
HETATM    7  C   UNL     1     -41.346 -49.850  11.910  1.00  0.00     0.057 A 
ENDROOT
BRANCH   1   8
HETATM    8  C   UNL     1     -41.558 -51.739  13.543  1.00  0.00     0.161 C 
BRANCH   8   9
HETATM    9  N   UNL     1     -42.673 -52.382  12.893  1.00  0.00    -0.357 N 
HETATM   10  C   UNL     1     -43.667 -52.940  13.666  1.00  0.00     0.221 C 
HETATM   11  O   UNL     1     -43.628 -52.919  14.893  1.00  0.00    -0.273 OA
HETATM   12  H   UNL     1     -42.737 -52.370  11.885  1.00  0.00     0.162 HD
BRANCH  10  13
HETATM   13  C   UNL     1     -44.789 -53.620  12.885  1.00  0.00     0.070 C 
HETATM   14  C   UNL     1     -45.325 -54.828  13.660  1.00  0.00     0.019 C 
HETATM   15  C   UNL     1     -45.930 -52.653  12.579  1.00  0.00     0.019 C 
ENDBRANCH  10  13
ENDBRANCH   8   9
ENDBRANCH   1   8
BRANCH   6  16
HETATM   16  N   UNL     1     -41.205 -47.771  10.782  1.00  0.00    -0.363 N 
HETATM   17  C   UNL     1     -42.629 -47.855  10.456  1.00  0.00     0.150 C 
HETATM   18  C   UNL     1     -42.909 -46.727   9.442  1.00  0.00     0.187 C 
HETATM   19  O   UNL     1     -42.565 -45.433   9.981  1.00  0.00    -0.388 OA
HETATM   20  C   UNL     1     -41.177 -45.389  10.372  1.00  0.00     0.187 C 
HETATM   21  C   UNL     1     -40.840 -46.491  11.392  1.00  0.00     0.150 C 
ENDBRANCH   6  16
TORSDOF 4
ENDMDL
MODEL 7
REMARK VINA RESULT:      -5.2      3.780      5.675
REMARK  4 active torsions:
REMARK  status: ('A' for Active; 'I' for Inactive)
REMARK    1  A    between atoms: C_2  and  C_4 
REMARK       I    between atoms: C_4  and  N_6 
REMARK    2  A    between atoms: N_6  and  C_7 
REMARK    3  A    between atoms: C_7  and  C_8 
REMARK    4  A    between atoms: C_13  and  N_15 
ROOT
HETATM    1  C   UNL     1     -42.059 -47.765  10.832  1.00  0.00    -0.036 A 
HETATM    2  C   UNL     1     -43.011 -47.436   9.872  1.00  0.00     0.026 A 
HETATM    3  C   UNL     1     -43.351 -46.102   9.723  1.00  0.00     0.090 A 
HETATM    4  N   UNL     1     -42.803 -45.091  10.439  1.00  0.00    -0.352 N 
ATOM      5  HN  UNL     1     -43.056 -44.119  10.260  1.00  0.00     0.166 HD
HETATM    6  C   UNL     1     -41.912 -45.414  11.393  1.00  0.00     0.103 A 
HETATM    7  C   UNL     1     -41.557 -46.740  11.638  1.00  0.00     0.057 A 
ENDROOT
BRANCH   1   8
HETATM    8  C   UNL     1     -41.488 -49.147  10.943  1.00  0.00     0.161 C 
BRANCH   8   9
HETATM    9  N   UNL     1     -40.082 -49.160  11.260  1.00  0.00    -0.357 N 
HETATM   10  C   UNL     1     -39.557 -50.244  11.929  1.00  0.00     0.221 C 
HETATM   11  O   UNL     1     -40.252 -51.195  12.277  1.00  0.00    -0.273 OA
HETATM   12  H   UNL     1     -39.493 -48.403  10.944  1.00  0.00     0.162 HD
BRANCH  10  13
HETATM   13  C   UNL     1     -38.065 -50.150  12.241  1.00  0.00     0.070 C 
HETATM   14  C   UNL     1     -37.264 -49.909  10.958  1.00  0.00     0.019 C 
HETATM   15  C   UNL     1     -37.769 -49.047  13.253  1.00  0.00     0.019 C 
ENDBRANCH  10  13
ENDBRANCH   8   9
ENDBRANCH   1   8
BRANCH   6  16
HETATM   16  N   UNL     1     -41.179 -44.436  12.041  1.00  0.00    -0.363 N 
HETATM   17  C   UNL     1     -40.396 -44.824  13.214  1.00  0.00     0.150 C 
HETATM   18  C   UNL     1     -40.231 -43.550  14.067  1.00  0.00     0.187 C 
HETATM   19  O   UNL     1     -39.582 -42.496  13.324  1.00  0.00    -0.388 OA
HETATM   20  C   UNL     1     -40.322 -42.178  12.127  1.00  0.00     0.187 C 
HETATM   21  C   UNL     1     -40.512 -43.415  11.231  1.00  0.00     0.150 C 
ENDBRANCH   6  16
TORSDOF 4
ENDMDL
MODEL 8
REMARK VINA RESULT:      -5.1      4.243      6.334
REMARK  4 active torsions:
REMARK  status: ('A' for Active; 'I' for Inactive)
REMARK    1  A    between atoms: C_2  and  C_4 
REMARK       I    between atoms: C_4  and  N_6 
REMARK    2  A    between atoms: N_6  and  C_7 
REMARK    3  A    between atoms: C_7  and  C_8 
REMARK    4  A    between atoms: C_13  and  N_15 
ROOT
HETATM    1  C   UNL     1     -45.772 -51.743  15.332  1.00  0.00    -0.036 A 
HETATM    2  C   UNL     1     -46.725 -51.499  14.348  1.00  0.00     0.026 A 
HETATM    3  C   UNL     1     -46.312 -51.503  13.027  1.00  0.00     0.090 A 
HETATM    4  N   UNL     1     -45.042 -51.749  12.625  1.00  0.00    -0.352 N 
ATOM      5  HN  UNL     1     -44.799 -51.784  11.635  1.00  0.00     0.166 HD
HETATM    6  C   UNL     1     -44.115 -51.947  13.579  1.00  0.00     0.103 A 
HETATM    7  C   UNL     1     -44.443 -51.906  14.933  1.00  0.00     0.057 A 
ENDROOT
BRANCH   1   8
HETATM    8  C   UNL     1     -46.148 -51.945  16.770  1.00  0.00     0.161 C 
BRANCH   8   9
HETATM    9  N   UNL     1     -46.529 -50.725  17.436  1.00  0.00    -0.357 N 
HETATM   10  C   UNL     1     -47.797 -50.618  17.963  1.00  0.00     0.221 C 
HETATM   11  O   UNL     1     -48.620 -51.525  17.870  1.00  0.00    -0.273 OA
HETATM   12  H   UNL     1     -45.848 -49.988  17.554  1.00  0.00     0.162 HD
BRANCH  10  13
HETATM   13  C   UNL     1     -48.113 -49.279  18.625  1.00  0.00     0.070 C 
HETATM   14  C   UNL     1     -48.699 -49.497  20.023  1.00  0.00     0.019 C 
HETATM   15  C   UNL     1     -46.876 -48.389  18.714  1.00  0.00     0.019 C 
ENDBRANCH  10  13
ENDBRANCH   8   9
ENDBRANCH   1   8
BRANCH   6  16
HETATM   16  N   UNL     1     -42.842 -52.378  13.252  1.00  0.00    -0.363 N 
HETATM   17  C   UNL     1     -42.620 -53.815  13.090  1.00  0.00     0.150 C 
HETATM   18  C   UNL     1     -41.123 -54.058  13.369  1.00  0.00     0.187 C 
HETATM   19  O   UNL     1     -40.287 -53.291  12.476  1.00  0.00    -0.388 OA
HETATM   20  C   UNL     1     -40.571 -51.881  12.588  1.00  0.00     0.187 C 
HETATM   21  C   UNL     1     -42.055 -51.577  12.312  1.00  0.00     0.150 C 
ENDBRANCH   6  16
TORSDOF 4
ENDMDL
MODEL 9
REMARK VINA RESULT:      -5.1      4.023      5.430
REMARK  4 active torsions:
REMARK  status: ('A' for Active; 'I' for Inactive)
REMARK    1  A    between atoms: C_2  and  C_4 
REMARK       I    between atoms: C_4  and  N_6 
REMARK    2  A    between atoms: N_6  and  C_7 
REMARK    3  A    between atoms: C_7  and  C_8 
REMARK    4  A    between atoms: C_13  and  N_15 
ROOT
HETATM    1  C   UNL     1     -42.654 -54.405  15.822  1.00  0.00    -0.036 A 
HETATM    2  C   UNL     1     -41.753 -55.274  16.430  1.00  0.00     0.026 A 
HETATM    3  C   UNL     1     -40.426 -55.211  16.041  1.00  0.00     0.090 A 
HETATM    4  N   UNL     1     -39.940 -54.344  15.120  1.00  0.00    -0.352 N 
ATOM      5  HN  UNL     1     -38.945 -54.309  14.901  1.00  0.00     0.166 HD
HETATM    6  C   UNL     1     -40.819 -53.532  14.506  1.00  0.00     0.103 A 
HETATM    7  C   UNL     1     -42.180 -53.573  14.806  1.00  0.00     0.057 A 
ENDROOT
BRANCH   1   8
HETATM    8  C   UNL     1     -44.068 -54.265  16.301  1.00  0.00     0.161 C 
BRANCH   8   9
HETATM    9  N   UNL     1     -44.837 -53.315  15.538  1.00  0.00    -0.357 N 
HETATM   10  C   UNL     1     -45.898 -53.765  14.783  1.00  0.00     0.221 C 
HETATM   11  O   UNL     1     -46.200 -54.955  14.728  1.00  0.00    -0.273 OA
HETATM   12  H   UNL     1     -44.624 -52.330  15.607  1.00  0.00     0.162 HD
BRANCH  10  13
HETATM   13  C   UNL     1     -46.633 -52.686  13.991  1.00  0.00     0.070 C 
HETATM   14  C   UNL     1     -46.667 -51.373  14.779  1.00  0.00     0.019 C 
HETATM   15  C   UNL     1     -45.992 -52.455  12.625  1.00  0.00     0.019 C 
ENDBRANCH  10  13
ENDBRANCH   8   9
ENDBRANCH   1   8
BRANCH   6  16
HETATM   16  N   UNL     1     -40.384 -52.503  13.691  1.00  0.00    -0.363 N 
HETATM   17  C   UNL     1     -38.997 -52.057  13.823  1.00  0.00     0.150 C 
HETATM   18  C   UNL     1     -38.961 -50.595  13.332  1.00  0.00     0.187 C 
HETATM   19  O   UNL     1     -39.425 -50.483  11.970  1.00  0.00    -0.388 OA
HETATM   20  C   UNL     1     -40.765 -50.999  11.837  1.00  0.00     0.187 C 
HETATM   21  C   UNL     1     -40.860 -52.462  12.307  1.00  0.00     0.150 C 
ENDBRANCH   6  16
TORSDOF 4
ENDMDL
