MODEL 1
REMARK VINA RESULT:      -6.5      0.000      0.000
REMARK  4 active torsions:
REMARK  status: ('A' for Active; 'I' for Inactive)
REMARK    1  A    between atoms: C_2  and  C_5 
REMARK    2  A    between atoms: N_9  and  C_10 
REMARK    3  A    between atoms: C_10  and  C_11 
REMARK       I    between atoms: C_11  and  N_13 
REMARK    4  A    between atoms: N_13  and  C_14 
ROOT
HETATM    1  C   UNL     1     -41.816 -52.468  12.035  1.00  0.00     0.234 C 
ENDROOT
BRANCH   1   2
HETATM    2  N   UNL     1     -42.310 -53.401  13.039  1.00  0.00    -0.315 N 
HETATM    3  C   UNL     1     -41.448 -53.894  14.001  1.00  0.00     0.095 C 
HETATM    4  C   UNL     1     -41.903 -54.673  14.989  1.00  0.00     0.018 C 
HETATM    5  C   UNL     1     -43.318 -54.918  15.105  1.00  0.00     0.023 C 
HETATM    6  C   UNL     1     -44.183 -54.493  14.164  1.00  0.00     0.115 C 
HETATM    7  C   UNL     1     -43.652 -53.784  12.971  1.00  0.00     0.263 C 
HETATM    8  O   UNL     1     -44.347 -53.533  11.988  1.00  0.00    -0.267 OA
BRANCH   6   9
HETATM    9  C   UNL     1     -45.655 -54.610  14.306  1.00  0.00     0.422 C 
HETATM   10  F   UNL     1     -46.390 -53.622  13.740  1.00  0.00    -0.166 F 
HETATM   11  F   UNL     1     -46.005 -54.626  15.623  1.00  0.00    -0.166 F 
HETATM   12  F   UNL     1     -46.113 -55.780  13.786  1.00  0.00    -0.166 F 
ENDBRANCH   6   9
ENDBRANCH   1   2
BRANCH   1  13
HETATM   13  C   UNL     1     -41.909 -51.021  12.511  1.00  0.00     0.236 C 
HETATM   14  O   UNL     1     -42.049 -50.715  13.690  1.00  0.00    -0.272 OA
HETATM   15  N   UNL     1     -41.771 -50.097  11.493  1.00  0.00    -0.354 N 
HETATM   16  H   UNL     1     -41.269 -50.439  10.671  1.00  0.00     0.162 HD
BRANCH  15  17
HETATM   17  C   UNL     1     -41.772 -48.665  11.749  1.00  0.00     0.099 C 
HETATM   18  C   UNL     1     -42.759 -47.955  10.811  1.00  0.00     0.041 C 
HETATM   19  C   UNL     1     -42.297 -46.525  10.549  1.00  0.00     0.142 C 
HETATM   20  S   UNL     1     -40.725 -46.328  11.350  1.00  0.00     0.146 S 
HETATM   21  O   UNL     1     -39.773 -45.774  10.405  1.00  0.00    -0.228 OA
HETATM   22  O   UNL     1     -40.946 -45.734  12.654  1.00  0.00    -0.228 OA
HETATM   23  C   UNL     1     -40.394 -48.052  11.557  1.00  0.00     0.165 C 
ENDBRANCH  15  17
ENDBRANCH   1  13
TORSDOF 4
ENDMDL
MODEL 2
REMARK VINA RESULT:      -6.4      1.959      2.194
REMARK  4 active torsions:
REMARK  status: ('A' for Active; 'I' for Inactive)
REMARK    1  A    between atoms: C_2  and  C_5 
REMARK    2  A    between atoms: N_9  and  C_10 
REMARK    3  A    between atoms: C_10  and  C_11 
REMARK       I    between atoms: C_11  and  N_13 
REMARK    4  A    between atoms: N_13  and  C_14 
ROOT
HETATM    1  C   UNL     1     -42.316 -52.252  12.298  1.00  0.00     0.234 C 
ENDROOT
BRANCH   1   2
HETATM    2  N   UNL     1     -43.084 -52.303  13.535  1.00  0.00    -0.315 N 
HETATM    3  C   UNL     1     -42.428 -52.260  14.752  1.00  0.00     0.095 C 
HETATM    4  C   UNL     1     -43.118 -52.205  15.896  1.00  0.00     0.018 C 
HETATM    5  C   UNL     1     -44.554 -52.091  15.854  1.00  0.00     0.023 C 
HETATM    6  C   UNL     1     -45.231 -52.174  14.692  1.00  0.00     0.115 C 
HETATM    7  C   UNL     1     -44.473 -52.418  13.438  1.00  0.00     0.263 C 
HETATM    8  O   UNL     1     -45.026 -52.691  12.374  1.00  0.00    -0.267 OA
BRANCH   6   9
HETATM    9  C   UNL     1     -46.691 -51.934  14.587  1.00  0.00     0.422 C 
HETATM   10  F   UNL     1     -47.092 -51.123  13.578  1.00  0.00    -0.166 F 
HETATM   11  F   UNL     1     -47.162 -51.364  15.733  1.00  0.00    -0.166 F 
HETATM   12  F   UNL     1     -47.377 -53.099  14.443  1.00  0.00    -0.166 F 
ENDBRANCH   6   9
ENDBRANCH   1   2
BRANCH   1  13
HETATM   13  C   UNL     1     -41.548 -50.941  12.160  1.00  0.00     0.236 C 
HETATM   14  O   UNL     1     -40.325 -50.874  12.224  1.00  0.00    -0.272 OA
HETATM   15  N   UNL     1     -42.360 -49.851  11.907  1.00  0.00    -0.354 N 
HETATM   16  H   UNL     1     -43.261 -50.080  11.483  1.00  0.00     0.162 HD
BRANCH  15  17
HETATM   17  C   UNL     1     -41.815 -48.521  11.685  1.00  0.00     0.099 C 
HETATM   18  C   UNL     1     -42.476 -47.507  12.631  1.00  0.00     0.041 C 
HETATM   19  C   UNL     1     -42.485 -46.122  11.992  1.00  0.00     0.142 C 
HETATM   20  S   UNL     1     -41.831 -46.299  10.351  1.00  0.00     0.146 S 
HETATM   21  O   UNL     1     -42.736 -45.672   9.406  1.00  0.00    -0.228 OA
HETATM   22  O   UNL     1     -40.416 -45.983  10.384  1.00  0.00    -0.228 OA
HETATM   23  C   UNL     1     -42.021 -48.054  10.253  1.00  0.00     0.165 C 
ENDBRANCH  15  17
ENDBRANCH   1  13
TORSDOF 4
ENDMDL
MODEL 3
REMARK VINA RESULT:      -6.3      3.551      4.402
REMARK  4 active torsions:
REMARK  status: ('A' for Active; 'I' for Inactive)
REMARK    1  A    between atoms: C_2  and  C_5 
REMARK    2  A    between atoms: N_9  and  C_10 
REMARK    3  A    between atoms: C_10  and  C_11 
REMARK       I    between atoms: C_11  and  N_13 
REMARK    4  A    between atoms: N_13  and  C_14 
ROOT
HETATM    1  C   UNL     1     -42.247 -53.642  15.971  1.00  0.00     0.234 C 
ENDROOT
BRANCH   1   2
HETATM    2  N   UNL     1     -43.353 -53.753  15.029  1.00  0.00    -0.315 N 
HETATM    3  C   UNL     1     -43.851 -55.000  14.699  1.00  0.00     0.095 C 
HETATM    4  C   UNL     1     -44.927 -55.118  13.915  1.00  0.00     0.018 C 
HETATM    5  C   UNL     1     -45.631 -53.934  13.492  1.00  0.00     0.023 C 
HETATM    6  C   UNL     1     -45.153 -52.702  13.756  1.00  0.00     0.115 C 
HETATM    7  C   UNL     1     -43.858 -52.575  14.472  1.00  0.00     0.263 C 
HETATM    8  O   UNL     1     -43.268 -51.503  14.584  1.00  0.00    -0.267 OA
BRANCH   6   9
HETATM    9  C   UNL     1     -45.907 -51.460  13.455  1.00  0.00     0.422 C 
HETATM   10  F   UNL     1     -45.215 -50.481  12.824  1.00  0.00    -0.166 F 
HETATM   11  F   UNL     1     -46.380 -50.902  14.606  1.00  0.00    -0.166 F 
HETATM   12  F   UNL     1     -47.001 -51.716  12.690  1.00  0.00    -0.166 F 
ENDBRANCH   6   9
ENDBRANCH   1   2
BRANCH   1  13
HETATM   13  C   UNL     1     -40.899 -53.588  15.259  1.00  0.00     0.236 C 
HETATM   14  O   UNL     1     -40.373 -54.573  14.752  1.00  0.00    -0.272 OA
HETATM   15  N   UNL     1     -40.358 -52.318  15.198  1.00  0.00    -0.354 N 
HETATM   16  H   UNL     1     -41.040 -51.559  15.276  1.00  0.00     0.162 HD
BRANCH  15  17
HETATM   17  C   UNL     1     -39.106 -52.046  14.509  1.00  0.00     0.099 C 
HETATM   18  C   UNL     1     -38.259 -51.048  15.312  1.00  0.00     0.041 C 
HETATM   19  C   UNL     1     -37.370 -50.240  14.372  1.00  0.00     0.142 C 
HETATM   20  S   UNL     1     -37.792 -50.716  12.714  1.00  0.00     0.146 S 
HETATM   21  O   UNL     1     -38.045 -49.526  11.925  1.00  0.00    -0.228 OA
HETATM   22  O   UNL     1     -36.863 -51.741  12.281  1.00  0.00    -0.228 OA
HETATM   23  C   UNL     1     -39.335 -51.479  13.117  1.00  0.00     0.165 C 
ENDBRANCH  15  17
ENDBRANCH   1  13
TORSDOF 4
ENDMDL
MODEL 4
REMARK VINA RESULT:      -6.1      5.282      8.453
REMARK  4 active torsions:
REMARK  status: ('A' for Active; 'I' for Inactive)
REMARK    1  A    between atoms: C_2  and  C_5 
REMARK    2  A    between atoms: N_9  and  C_10 
REMARK    3  A    between atoms: C_10  and  C_11 
REMARK       I    between atoms: C_11  and  N_13 
REMARK    4  A    between atoms: N_13  and  C_14 
ROOT
HETATM    1  C   UNL     1     -41.667 -49.210  13.117  1.00  0.00     0.234 C 
ENDROOT
BRANCH   1   2
HETATM    2  N   UNL     1     -41.834 -48.195  12.085  1.00  0.00    -0.315 N 
HETATM    3  C   UNL     1     -43.067 -48.024  11.485  1.00  0.00     0.095 C 
HETATM    4  C   UNL     1     -43.267 -47.034  10.608  1.00  0.00     0.018 C 
HETATM    5  C   UNL     1     -42.215 -46.081  10.362  1.00  0.00     0.023 C 
HETATM    6  C   UNL     1     -40.987 -46.240  10.892  1.00  0.00     0.115 C 
HETATM    7  C   UNL     1     -40.714 -47.442  11.722  1.00  0.00     0.263 C 
HETATM    8  O   UNL     1     -39.581 -47.753  12.082  1.00  0.00    -0.267 OA
BRANCH   6   9
HETATM    9  C   UNL     1     -39.915 -45.220  10.772  1.00  0.00     0.422 C 
HETATM   10  F   UNL     1     -39.214 -44.955  11.901  1.00  0.00    -0.166 F 
HETATM   11  F   UNL     1     -40.438 -44.028  10.368  1.00  0.00    -0.166 F 
HETATM   12  F   UNL     1     -39.004 -45.566   9.823  1.00  0.00    -0.166 F 
ENDBRANCH   6   9
ENDBRANCH   1   2
BRANCH   1  13
HETATM   13  C   UNL     1     -42.390 -50.506  12.761  1.00  0.00     0.236 C 
HETATM   14  O   UNL     1     -41.933 -51.330  11.977  1.00  0.00    -0.272 OA
HETATM   15  N   UNL     1     -43.578 -50.679  13.444  1.00  0.00    -0.354 N 
HETATM   16  H   UNL     1     -43.643 -50.165  14.326  1.00  0.00     0.162 HD
BRANCH  15  17
HETATM   17  C   UNL     1     -44.387 -51.878  13.289  1.00  0.00     0.099 C 
HETATM   18  C   UNL     1     -45.874 -51.549  13.490  1.00  0.00     0.041 C 
HETATM   19  C   UNL     1     -46.613 -52.771  14.026  1.00  0.00     0.142 C 
HETATM   20  S   UNL     1     -45.398 -54.033  14.314  1.00  0.00     0.146 S 
HETATM   21  O   UNL     1     -45.562 -54.556  15.658  1.00  0.00    -0.228 OA
HETATM   22  O   UNL     1     -45.354 -54.900  13.153  1.00  0.00    -0.228 OA
HETATM   23  C   UNL     1     -43.992 -52.962  14.280  1.00  0.00     0.165 C 
ENDBRANCH  15  17
ENDBRANCH   1  13
TORSDOF 4
ENDMDL
MODEL 5
REMARK VINA RESULT:      -6.1      2.744      3.297
REMARK  4 active torsions:
REMARK  status: ('A' for Active; 'I' for Inactive)
REMARK    1  A    between atoms: C_2  and  C_5 
REMARK    2  A    between atoms: N_9  and  C_10 
REMARK    3  A    between atoms: C_10  and  C_11 
REMARK       I    between atoms: C_11  and  N_13 
REMARK    4  A    between atoms: N_13  and  C_14 
ROOT
HETATM    1  C   UNL     1     -42.033 -54.163  13.761  1.00  0.00     0.234 C 
ENDROOT
BRANCH   1   2
HETATM    2  N   UNL     1     -43.384 -53.884  14.232  1.00  0.00    -0.315 N 
HETATM    3  C   UNL     1     -43.768 -54.293  15.495  1.00  0.00     0.095 C 
HETATM    4  C   UNL     1     -44.968 -53.961  15.984  1.00  0.00     0.018 C 
HETATM    5  C   UNL     1     -45.826 -53.087  15.224  1.00  0.00     0.023 C 
HETATM    6  C   UNL     1     -45.506 -52.704  13.973  1.00  0.00     0.115 C 
HETATM    7  C   UNL     1     -44.256 -53.224  13.362  1.00  0.00     0.263 C 
HETATM    8  O   UNL     1     -43.990 -53.075  12.171  1.00  0.00    -0.267 OA
BRANCH   6   9
HETATM    9  C   UNL     1     -46.293 -51.707  13.205  1.00  0.00     0.422 C 
HETATM   10  F   UNL     1     -46.970 -52.179  12.131  1.00  0.00    -0.166 F 
HETATM   11  F   UNL     1     -45.476 -50.724  12.729  1.00  0.00    -0.166 F 
HETATM   12  F   UNL     1     -47.206 -51.081  13.994  1.00  0.00    -0.166 F 
ENDBRANCH   6   9
ENDBRANCH   1   2
BRANCH   1  13
HETATM   13  C   UNL     1     -41.079 -53.010  14.058  1.00  0.00     0.236 C 
HETATM   14  O   UNL     1     -40.349 -52.985  15.042  1.00  0.00    -0.272 OA
HETATM   15  N   UNL     1     -41.085 -52.027  13.086  1.00  0.00    -0.354 N 
HETATM   16  H   UNL     1     -41.400 -52.339  12.165  1.00  0.00     0.162 HD
BRANCH  15  17
HETATM   17  C   UNL     1     -40.202 -50.873  13.154  1.00  0.00     0.099 C 
HETATM   18  C   UNL     1     -40.761 -49.722  12.305  1.00  0.00     0.041 C 
HETATM   19  C   UNL     1     -39.620 -48.848  11.791  1.00  0.00     0.142 C 
HETATM   20  S   UNL     1     -38.103 -49.618  12.297  1.00  0.00     0.146 S 
HETATM   21  O   UNL     1     -37.225 -49.744  11.149  1.00  0.00    -0.228 OA
HETATM   22  O   UNL     1     -37.665 -49.000  13.533  1.00  0.00    -0.228 OA
HETATM   23  C   UNL     1     -38.800 -51.200  12.666  1.00  0.00     0.165 C 
ENDBRANCH  15  17
ENDBRANCH   1  13
TORSDOF 4
ENDMDL
MODEL 6
REMARK VINA RESULT:      -5.9      4.402      7.324
REMARK  4 active torsions:
REMARK  status: ('A' for Active; 'I' for Inactive)
REMARK    1  A    between atoms: C_2  and  C_5 
REMARK    2  A    between atoms: N_9  and  C_10 
REMARK    3  A    between atoms: C_10  and  C_11 
REMARK       I    between atoms: C_11  and  N_13 
REMARK    4  A    between atoms: N_13  and  C_14 
ROOT
HETATM    1  C   UNL     1     -39.321 -52.147  14.496  1.00  0.00     0.234 C 
ENDROOT
BRANCH   1   2
HETATM    2  N   UNL     1     -38.912 -51.081  13.591  1.00  0.00    -0.315 N 
HETATM    3  C   UNL     1     -37.758 -51.222  12.842  1.00  0.00     0.095 C 
HETATM    4  C   UNL     1     -37.418 -50.301  11.935  1.00  0.00     0.018 C 
HETATM    5  C   UNL     1     -38.314 -49.204  11.667  1.00  0.00     0.023 C 
HETATM    6  C   UNL     1     -39.424 -49.009  12.404  1.00  0.00     0.115 C 
HETATM    7  C   UNL     1     -39.705 -49.932  13.534  1.00  0.00     0.263 C 
HETATM    8  O   UNL     1     -40.586 -49.713  14.363  1.00  0.00    -0.267 OA
BRANCH   6   9
HETATM    9  C   UNL     1     -40.438 -47.974  12.084  1.00  0.00     0.422 C 
HETATM   10  F   UNL     1     -41.695 -48.421  11.854  1.00  0.00    -0.166 F 
HETATM   11  F   UNL     1     -40.075 -47.286  10.963  1.00  0.00    -0.166 F 
HETATM   12  F   UNL     1     -40.531 -47.046  13.074  1.00  0.00    -0.166 F 
ENDBRANCH   6   9
ENDBRANCH   1   2
BRANCH   1  13
HETATM   13  C   UNL     1     -40.395 -53.037  13.876  1.00  0.00     0.236 C 
HETATM   14  O   UNL     1     -40.146 -53.897  13.039  1.00  0.00    -0.272 OA
HETATM   15  N   UNL     1     -41.659 -52.812  14.387  1.00  0.00    -0.354 N 
HETATM   16  H   UNL     1     -41.674 -52.393  15.320  1.00  0.00     0.162 HD
BRANCH  15  17
HETATM   17  C   UNL     1     -42.809 -53.598  13.969  1.00  0.00     0.099 C 
HETATM   18  C   UNL     1     -43.429 -53.003  12.696  1.00  0.00     0.041 C 
HETATM   19  C   UNL     1     -44.922 -53.311  12.647  1.00  0.00     0.142 C 
HETATM   20  S   UNL     1     -45.338 -54.129  14.167  1.00  0.00     0.146 S 
HETATM   21  O   UNL     1     -46.484 -53.472  14.766  1.00  0.00    -0.228 OA
HETATM   22  O   UNL     1     -45.306 -55.561  13.941  1.00  0.00    -0.228 OA
HETATM   23  C   UNL     1     -43.879 -53.658  15.048  1.00  0.00     0.165 C 
ENDBRANCH  15  17
ENDBRANCH   1  13
TORSDOF 4
ENDMDL
MODEL 7
REMARK VINA RESULT:      -5.8      4.443      7.782
REMARK  4 active torsions:
REMARK  status: ('A' for Active; 'I' for Inactive)
REMARK    1  A    between atoms: C_2  and  C_5 
REMARK    2  A    between atoms: N_9  and  C_10 
REMARK    3  A    between atoms: C_10  and  C_11 
REMARK       I    between atoms: C_11  and  N_13 
REMARK    4  A    between atoms: N_13  and  C_14 
ROOT
HETATM    1  C   UNL     1     -39.785 -47.998  11.423  1.00  0.00     0.234 C 
ENDROOT
BRANCH   1   2
HETATM    2  N   UNL     1     -40.769 -46.924  11.387  1.00  0.00    -0.315 N 
HETATM    3  C   UNL     1     -40.586 -45.801  12.173  1.00  0.00     0.095 C 
HETATM    4  C   UNL     1     -41.424 -44.762  12.081  1.00  0.00     0.018 C 
HETATM    5  C   UNL     1     -42.465 -44.776  11.086  1.00  0.00     0.023 C 
HETATM    6  C   UNL     1     -42.702 -45.868  10.333  1.00  0.00     0.115 C 
HETATM    7  C   UNL     1     -41.886 -47.088  10.564  1.00  0.00     0.263 C 
HETATM    8  O   UNL     1     -42.161 -48.173  10.056  1.00  0.00    -0.267 OA
BRANCH   6   9
HETATM    9  C   UNL     1     -43.675 -45.884   9.213  1.00  0.00     0.422 C 
HETATM   10  F   UNL     1     -44.360 -44.735   9.001  1.00  0.00    -0.166 F 
HETATM   11  F   UNL     1     -44.617 -46.848   9.417  1.00  0.00    -0.166 F 
HETATM   12  F   UNL     1     -43.071 -46.198   8.035  1.00  0.00    -0.166 F 
ENDBRANCH   6   9
ENDBRANCH   1   2
BRANCH   1  13
HETATM   13  C   UNL     1     -40.106 -49.026  12.504  1.00  0.00     0.236 C 
HETATM   14  O   UNL     1     -39.818 -48.864  13.684  1.00  0.00    -0.272 OA
HETATM   15  N   UNL     1     -40.795 -50.127  12.030  1.00  0.00    -0.354 N 
HETATM   16  H   UNL     1     -41.317 -49.964  11.165  1.00  0.00     0.162 HD
BRANCH  15  17
HETATM   17  C   UNL     1     -41.246 -51.191  12.913  1.00  0.00     0.099 C 
HETATM   18  C   UNL     1     -40.426 -52.467  12.674  1.00  0.00     0.041 C 
HETATM   19  C   UNL     1     -41.265 -53.698  13.004  1.00  0.00     0.142 C 
HETATM   20  S   UNL     1     -42.896 -53.127  13.409  1.00  0.00     0.146 S 
HETATM   21  O   UNL     1     -43.870 -53.874  12.636  1.00  0.00    -0.228 OA
HETATM   22  O   UNL     1     -42.993 -53.002  14.851  1.00  0.00    -0.228 OA
HETATM   23  C   UNL     1     -42.718 -51.514  12.708  1.00  0.00     0.165 C 
ENDBRANCH  15  17
ENDBRANCH   1  13
TORSDOF 4
ENDMDL
MODEL 8
REMARK VINA RESULT:      -5.8      2.253      2.792
REMARK  4 active torsions:
REMARK  status: ('A' for Active; 'I' for Inactive)
REMARK    1  A    between atoms: C_2  and  C_5 
REMARK    2  A    between atoms: N_9  and  C_10 
REMARK    3  A    between atoms: C_10  and  C_11 
REMARK       I    between atoms: C_11  and  N_13 
REMARK    4  A    between atoms: N_13  and  C_14 
ROOT
HETATM    1  C   UNL     1     -41.988 -49.859  13.812  1.00  0.00     0.234 C 
ENDROOT
BRANCH   1   2
HETATM    2  N   UNL     1     -42.293 -51.229  13.423  1.00  0.00    -0.315 N 
HETATM    3  C   UNL     1     -41.264 -52.129  13.219  1.00  0.00     0.095 C 
HETATM    4  C   UNL     1     -41.525 -53.414  12.958  1.00  0.00     0.018 C 
HETATM    5  C   UNL     1     -42.887 -53.882  12.987  1.00  0.00     0.023 C 
HETATM    6  C   UNL     1     -43.919 -53.029  13.138  1.00  0.00     0.115 C 
HETATM    7  C   UNL     1     -43.635 -51.575  13.245  1.00  0.00     0.263 C 
HETATM    8  O   UNL     1     -44.521 -50.724  13.196  1.00  0.00    -0.267 OA
BRANCH   6   9
HETATM    9  C   UNL     1     -45.323 -53.478  13.302  1.00  0.00     0.422 C 
HETATM   10  F   UNL     1     -46.219 -52.973  12.419  1.00  0.00    -0.166 F 
HETATM   11  F   UNL     1     -45.787 -53.140  14.539  1.00  0.00    -0.166 F 
HETATM   12  F   UNL     1     -45.425 -54.832  13.225  1.00  0.00    -0.166 F 
ENDBRANCH   6   9
ENDBRANCH   1   2
BRANCH   1  13
HETATM   13  C   UNL     1     -41.658 -48.986  12.605  1.00  0.00     0.236 C 
HETATM   14  O   UNL     1     -40.533 -48.912  12.124  1.00  0.00    -0.272 OA
HETATM   15  N   UNL     1     -42.757 -48.331  12.082  1.00  0.00    -0.354 N 
HETATM   16  H   UNL     1     -43.656 -48.771  12.291  1.00  0.00     0.162 HD
BRANCH  15  17
HETATM   17  C   UNL     1     -42.662 -47.497  10.894  1.00  0.00     0.099 C 
HETATM   18  C   UNL     1     -42.339 -46.047  11.283  1.00  0.00     0.041 C 
HETATM   19  C   UNL     1     -42.910 -45.086  10.246  1.00  0.00     0.142 C 
HETATM   20  S   UNL     1     -43.829 -46.060   9.080  1.00  0.00     0.146 S 
HETATM   21  O   UNL     1     -45.150 -45.485   8.913  1.00  0.00    -0.228 OA
HETATM   22  O   UNL     1     -42.970 -46.350   7.948  1.00  0.00    -0.228 OA
HETATM   23  C   UNL     1     -43.952 -47.507  10.088  1.00  0.00     0.165 C 
ENDBRANCH  15  17
ENDBRANCH   1  13
TORSDOF 4
ENDMDL
MODEL 9
REMARK VINA RESULT:      -5.7      3.355      4.458
REMARK  4 active torsions:
REMARK  status: ('A' for Active; 'I' for Inactive)
REMARK    1  A    between atoms: C_2  and  C_5 
REMARK    2  A    between atoms: N_9  and  C_10 
REMARK    3  A    between atoms: C_10  and  C_11 
REMARK       I    between atoms: C_11  and  N_13 
REMARK    4  A    between atoms: N_13  and  C_14 
ROOT
HETATM    1  C   UNL     1     -41.903 -49.020  14.152  1.00  0.00     0.234 C 
ENDROOT
BRANCH   1   2
HETATM    2  N   UNL     1     -40.803 -49.910  13.807  1.00  0.00    -0.315 N 
HETATM    3  C   UNL     1     -39.513 -49.416  13.749  1.00  0.00     0.095 C 
HETATM    4  C   UNL     1     -38.478 -50.235  13.532  1.00  0.00     0.018 C 
HETATM    5  C   UNL     1     -38.702 -51.656  13.455  1.00  0.00     0.023 C 
HETATM    6  C   UNL     1     -39.947 -52.172  13.462  1.00  0.00     0.115 C 
HETATM    7  C   UNL     1     -41.106 -51.244  13.520  1.00  0.00     0.263 C 
HETATM    8  O   UNL     1     -42.262 -51.620  13.342  1.00  0.00    -0.267 OA
BRANCH   6   9
HETATM    9  C   UNL     1     -40.219 -53.629  13.515  1.00  0.00     0.422 C 
HETATM   10  F   UNL     1     -40.876 -54.153  12.452  1.00  0.00    -0.166 F 
HETATM   11  F   UNL     1     -40.977 -53.931  14.608  1.00  0.00    -0.166 F 
HETATM   12  F   UNL     1     -39.071 -54.345  13.651  1.00  0.00    -0.166 F 
ENDBRANCH   6   9
ENDBRANCH   1   2
BRANCH   1  13
HETATM   13  C   UNL     1     -42.149 -47.975  13.067  1.00  0.00     0.236 C 
HETATM   14  O   UNL     1     -41.601 -46.878  13.063  1.00  0.00    -0.272 OA
HETATM   15  N   UNL     1     -43.005 -48.405  12.071  1.00  0.00    -0.354 N 
HETATM   16  H   UNL     1     -43.061 -49.421  11.966  1.00  0.00     0.162 HD
BRANCH  15  17
HETATM   17  C   UNL     1     -43.319 -47.578  10.916  1.00  0.00     0.099 C 
HETATM   18  C   UNL     1     -44.800 -47.730  10.538  1.00  0.00     0.041 C 
HETATM   19  C   UNL     1     -44.985 -47.494   9.042  1.00  0.00     0.142 C 
HETATM   20  S   UNL     1     -43.368 -47.266   8.344  1.00  0.00     0.146 S 
HETATM   21  O   UNL     1     -43.215 -48.141   7.197  1.00  0.00    -0.228 OA
HETATM   22  O   UNL     1     -43.100 -45.843   8.265  1.00  0.00    -0.228 OA
HETATM   23  C   UNL     1     -42.470 -47.941   9.709  1.00  0.00     0.165 C 
ENDBRANCH  15  17
ENDBRANCH   1  13
TORSDOF 4
ENDMDL
