MODEL 1
REMARK VINA RESULT:      -6.7      0.000      0.000
REMARK  4 active torsions:
REMARK  status: ('A' for Active; 'I' for Inactive)
REMARK    1  A    between atoms: C_2  and  N_3 
REMARK       I    between atoms: N_3  and  C_4 
REMARK    2  A    between atoms: C_4  and  C_6 
REMARK    3  A    between atoms: C_8  and  N_13 
REMARK    4  A    between atoms: C_17  and  C_19 
REMARK       I    between atoms: C_19  and  N_21 
ROOT
HETATM    1  C   UNL     1     -42.474 -47.195   9.869  1.00  0.00     0.102 A 
HETATM    2  C   UNL     1     -42.099 -48.279  10.659  1.00  0.00     0.064 A 
HETATM    3  C   UNL     1     -40.954 -48.199  11.453  1.00  0.00     0.034 A 
HETATM    4  C   UNL     1     -40.243 -46.996  11.391  1.00  0.00     0.046 A 
HETATM    5  C   UNL     1     -40.680 -45.963  10.567  1.00  0.00     0.090 A 
HETATM    6  N   UNL     1     -41.786 -46.025   9.799  1.00  0.00    -0.361 N 
ATOM      7  HN  UNL     1     -42.084 -45.250   9.209  1.00  0.00     0.165 HD
ENDROOT
BRANCH   3   8
HETATM    8  N   UNL     1     -40.542 -49.247  12.249  1.00  0.00    -0.376 N 
HETATM    9  C   UNL     1     -39.181 -49.368  12.796  1.00  0.00     0.149 C 
HETATM   10  C   UNL     1     -38.546 -50.687  12.334  1.00  0.00     0.188 C 
HETATM   11  O   UNL     1     -39.363 -51.819  12.686  1.00  0.00    -0.373 OA
HETATM   12  C   UNL     1     -40.667 -51.706  12.074  1.00  0.00     0.230 C 
HETATM   13  C   UNL     1     -41.399 -50.421  12.516  1.00  0.00     0.164 C 
BRANCH  12  14
HETATM   14  C   UNL     1     -41.516 -52.927  12.435  1.00  0.00     0.246 C 
HETATM   15  O   UNL     1     -42.674 -52.875  12.838  1.00  0.00    -0.271 OA
HETATM   16  N   UNL     1     -40.908 -54.131  12.199  1.00  0.00    -0.368 N 
HETATM   17  H   UNL     1     -39.894 -54.147  12.157  1.00  0.00     0.159 HD
HETATM   18  H   UNL     1     -41.388 -54.961  12.517  1.00  0.00     0.159 HD
ENDBRANCH  12  14
ENDBRANCH   3   8
BRANCH   1  19
HETATM   19  C   UNL     1     -43.715 -47.300   9.037  1.00  0.00     0.268 C 
HETATM   20  N   UNL     1     -44.889 -46.995   9.693  1.00  0.00    -0.356 N 
HETATM   21  H   UNL     1     -44.811 -46.779  10.685  1.00  0.00     0.162 HD
HETATM   22  O   UNL     1     -43.665 -47.634   7.858  1.00  0.00    -0.266 OA
BRANCH  20  23
HETATM   23  C   UNL     1     -46.178 -47.055   9.046  1.00  0.00     0.118 C 
HETATM   24  C   UNL     1     -46.737 -48.466   9.027  1.00  0.00     0.026 C 
ENDBRANCH  20  23
ENDBRANCH   1  19
TORSDOF 4
ENDMDL
MODEL 2
REMARK VINA RESULT:      -6.5      2.073      2.574
REMARK  4 active torsions:
REMARK  status: ('A' for Active; 'I' for Inactive)
REMARK    1  A    between atoms: C_2  and  N_3 
REMARK       I    between atoms: N_3  and  C_4 
REMARK    2  A    between atoms: C_4  and  C_6 
REMARK    3  A    between atoms: C_8  and  N_13 
REMARK    4  A    between atoms: C_17  and  C_19 
REMARK       I    between atoms: C_19  and  N_21 
ROOT
HETATM    1  C   UNL     1     -43.122 -46.731  10.008  1.00  0.00     0.102 A 
HETATM    2  C   UNL     1     -42.616 -47.877  10.617  1.00  0.00     0.064 A 
HETATM    3  C   UNL     1     -41.357 -47.849  11.218  1.00  0.00     0.034 A 
HETATM    4  C   UNL     1     -40.671 -46.631  11.157  1.00  0.00     0.046 A 
HETATM    5  C   UNL     1     -41.243 -45.534  10.519  1.00  0.00     0.090 A 
HETATM    6  N   UNL     1     -42.460 -45.546   9.940  1.00  0.00    -0.361 N 
ATOM      7  HN  UNL     1     -42.856 -44.725   9.484  1.00  0.00     0.165 HD
ENDROOT
BRANCH   3   8
HETATM    8  N   UNL     1     -40.814 -48.958  11.831  1.00  0.00    -0.376 N 
HETATM    9  C   UNL     1     -41.185 -49.404  13.184  1.00  0.00     0.149 C 
HETATM   10  C   UNL     1     -39.939 -49.450  14.080  1.00  0.00     0.188 C 
HETATM   11  O   UNL     1     -38.908 -50.278  13.512  1.00  0.00    -0.373 OA
HETATM   12  C   UNL     1     -38.515 -49.771  12.217  1.00  0.00     0.230 C 
HETATM   13  C   UNL     1     -39.703 -49.728  11.233  1.00  0.00     0.164 C 
BRANCH  12  14
HETATM   14  C   UNL     1     -37.401 -50.645  11.635  1.00  0.00     0.246 C 
HETATM   15  O   UNL     1     -36.862 -51.572  12.230  1.00  0.00    -0.271 OA
HETATM   16  N   UNL     1     -37.086 -50.368  10.331  1.00  0.00    -0.368 N 
HETATM   17  H   UNL     1     -37.318 -49.447   9.975  1.00  0.00     0.159 HD
HETATM   18  H   UNL     1     -36.289 -50.849   9.938  1.00  0.00     0.159 HD
ENDBRANCH  12  14
ENDBRANCH   3   8
BRANCH   1  19
HETATM   19  C   UNL     1     -44.482 -46.783   9.384  1.00  0.00     0.268 C 
HETATM   20  N   UNL     1     -45.173 -47.960   9.580  1.00  0.00    -0.356 N 
HETATM   21  H   UNL     1     -44.681 -48.697  10.082  1.00  0.00     0.162 HD
HETATM   22  O   UNL     1     -44.928 -45.834   8.749  1.00  0.00    -0.266 OA
BRANCH  20  23
HETATM   23  C   UNL     1     -46.493 -48.185   9.039  1.00  0.00     0.118 C 
HETATM   24  C   UNL     1     -46.447 -48.978   7.746  1.00  0.00     0.026 C 
ENDBRANCH  20  23
ENDBRANCH   1  19
TORSDOF 4
ENDMDL
MODEL 3
REMARK VINA RESULT:      -6.4      2.123      3.204
REMARK  4 active torsions:
REMARK  status: ('A' for Active; 'I' for Inactive)
REMARK    1  A    between atoms: C_2  and  N_3 
REMARK       I    between atoms: N_3  and  C_4 
REMARK    2  A    between atoms: C_4  and  C_6 
REMARK    3  A    between atoms: C_8  and  N_13 
REMARK    4  A    between atoms: C_17  and  C_19 
REMARK       I    between atoms: C_19  and  N_21 
ROOT
HETATM    1  C   UNL     1     -40.923 -48.560  11.119  1.00  0.00     0.102 A 
HETATM    2  C   UNL     1     -41.562 -49.620  11.758  1.00  0.00     0.064 A 
HETATM    3  C   UNL     1     -40.817 -50.543  12.493  1.00  0.00     0.034 A 
HETATM    4  C   UNL     1     -39.435 -50.331  12.528  1.00  0.00     0.046 A 
HETATM    5  C   UNL     1     -38.872 -49.253  11.853  1.00  0.00     0.090 A 
HETATM    6  N   UNL     1     -39.580 -48.350  11.146  1.00  0.00    -0.361 N 
ATOM      7  HN  UNL     1     -39.141 -47.566  10.665  1.00  0.00     0.165 HD
ENDROOT
BRANCH   3   8
HETATM    8  N   UNL     1     -41.406 -51.609  13.140  1.00  0.00    -0.376 N 
HETATM    9  C   UNL     1     -40.645 -52.680  13.804  1.00  0.00     0.149 C 
HETATM   10  C   UNL     1     -41.016 -54.040  13.197  1.00  0.00     0.188 C 
HETATM   11  O   UNL     1     -42.434 -54.278  13.261  1.00  0.00    -0.373 OA
HETATM   12  C   UNL     1     -43.148 -53.251  12.537  1.00  0.00     0.230 C 
HETATM   13  C   UNL     1     -42.864 -51.846  13.108  1.00  0.00     0.164 C 
BRANCH  12  14
HETATM   14  C   UNL     1     -44.652 -53.530  12.591  1.00  0.00     0.246 C 
HETATM   15  O   UNL     1     -45.153 -54.573  12.999  1.00  0.00    -0.271 OA
HETATM   16  N   UNL     1     -45.438 -52.473  12.214  1.00  0.00    -0.368 N 
HETATM   17  H   UNL     1     -45.022 -51.763  11.621  1.00  0.00     0.159 HD
HETATM   18  H   UNL     1     -46.432 -52.643  12.136  1.00  0.00     0.159 HD
ENDBRANCH  12  14
ENDBRANCH   3   8
BRANCH   1  19
HETATM   19  C   UNL     1     -41.747 -47.574  10.351  1.00  0.00     0.268 C 
HETATM   20  N   UNL     1     -42.576 -48.122   9.394  1.00  0.00    -0.356 N 
HETATM   21  H   UNL     1     -42.515 -49.129   9.265  1.00  0.00     0.162 HD
HETATM   22  O   UNL     1     -41.673 -46.371  10.574  1.00  0.00    -0.266 OA
BRANCH  20  23
HETATM   23  C   UNL     1     -43.431 -47.316   8.555  1.00  0.00     0.118 C 
HETATM   24  C   UNL     1     -44.889 -47.427   8.960  1.00  0.00     0.026 C 
ENDBRANCH  20  23
ENDBRANCH   1  19
TORSDOF 4
ENDMDL
MODEL 4
REMARK VINA RESULT:      -6.2      2.627      5.673
REMARK  4 active torsions:
REMARK  status: ('A' for Active; 'I' for Inactive)
REMARK    1  A    between atoms: C_2  and  N_3 
REMARK       I    between atoms: N_3  and  C_4 
REMARK    2  A    between atoms: C_4  and  C_6 
REMARK    3  A    between atoms: C_8  and  N_13 
REMARK    4  A    between atoms: C_17  and  C_19 
REMARK       I    between atoms: C_19  and  N_21 
ROOT
HETATM    1  C   UNL     1     -43.154 -53.185  12.938  1.00  0.00     0.102 A 
HETATM    2  C   UNL     1     -42.429 -52.099  12.452  1.00  0.00     0.064 A 
HETATM    3  C   UNL     1     -41.036 -52.093  12.545  1.00  0.00     0.034 A 
HETATM    4  C   UNL     1     -40.453 -53.215  13.143  1.00  0.00     0.046 A 
HETATM    5  C   UNL     1     -41.250 -54.254  13.614  1.00  0.00     0.090 A 
HETATM    6  N   UNL     1     -42.595 -54.275  13.525  1.00  0.00    -0.361 N 
ATOM      7  HN  UNL     1     -43.153 -55.054  13.874  1.00  0.00     0.165 HD
ENDROOT
BRANCH   3   8
HETATM    8  N   UNL     1     -40.277 -51.040  12.080  1.00  0.00    -0.376 N 
HETATM    9  C   UNL     1     -38.925 -50.731  12.573  1.00  0.00     0.149 C 
HETATM   10  C   UNL     1     -38.885 -49.302  13.131  1.00  0.00     0.188 C 
HETATM   11  O   UNL     1     -39.328 -48.340  12.156  1.00  0.00    -0.373 OA
HETATM   12  C   UNL     1     -40.684 -48.628  11.748  1.00  0.00     0.230 C 
HETATM   13  C   UNL     1     -40.810 -50.038  11.134  1.00  0.00     0.164 C 
BRANCH  12  14
HETATM   14  C   UNL     1     -41.150 -47.584  10.730  1.00  0.00     0.246 C 
HETATM   15  O   UNL     1     -40.848 -46.396  10.763  1.00  0.00    -0.271 OA
HETATM   16  N   UNL     1     -41.891 -48.092   9.696  1.00  0.00    -0.368 N 
HETATM   17  H   UNL     1     -42.362 -48.979   9.844  1.00  0.00     0.159 HD
HETATM   18  H   UNL     1     -42.307 -47.429   9.057  1.00  0.00     0.159 HD
ENDBRANCH  12  14
ENDBRANCH   3   8
BRANCH   1  19
HETATM   19  C   UNL     1     -44.646 -53.174  12.813  1.00  0.00     0.268 C 
HETATM   20  N   UNL     1     -45.222 -51.921  12.778  1.00  0.00    -0.356 N 
HETATM   21  H   UNL     1     -44.593 -51.129  12.890  1.00  0.00     0.162 HD
HETATM   22  O   UNL     1     -45.288 -54.216  12.748  1.00  0.00    -0.266 OA
BRANCH  20  23
HETATM   23  C   UNL     1     -46.649 -51.726  12.671  1.00  0.00     0.118 C 
HETATM   24  C   UNL     1     -47.103 -51.645  11.226  1.00  0.00     0.026 C 
ENDBRANCH  20  23
ENDBRANCH   1  19
TORSDOF 4
ENDMDL
MODEL 5
REMARK VINA RESULT:      -6.1      3.401      6.234
REMARK  4 active torsions:
REMARK  status: ('A' for Active; 'I' for Inactive)
REMARK    1  A    between atoms: C_2  and  N_3 
REMARK       I    between atoms: N_3  and  C_4 
REMARK    2  A    between atoms: C_4  and  C_6 
REMARK    3  A    between atoms: C_8  and  N_13 
REMARK    4  A    between atoms: C_17  and  C_19 
REMARK       I    between atoms: C_19  and  N_21 
ROOT
HETATM    1  C   UNL     1     -42.485 -47.498  10.003  1.00  0.00     0.102 A 
HETATM    2  C   UNL     1     -41.927 -46.290  10.415  1.00  0.00     0.064 A 
HETATM    3  C   UNL     1     -40.791 -46.288  11.225  1.00  0.00     0.034 A 
HETATM    4  C   UNL     1     -40.283 -47.542  11.578  1.00  0.00     0.046 A 
HETATM    5  C   UNL     1     -40.906 -48.704  11.133  1.00  0.00     0.090 A 
HETATM    6  N   UNL     1     -42.000 -48.721  10.346  1.00  0.00    -0.361 N 
ATOM      7  HN  UNL     1     -42.433 -49.588  10.031  1.00  0.00     0.165 HD
ENDROOT
BRANCH   3   8
HETATM    8  N   UNL     1     -40.205 -45.118  11.659  1.00  0.00    -0.376 N 
HETATM    9  C   UNL     1     -39.333 -45.034  12.842  1.00  0.00     0.149 C 
HETATM   10  C   UNL     1     -39.910 -44.028  13.848  1.00  0.00     0.188 C 
HETATM   11  O   UNL     1     -40.116 -42.737  13.247  1.00  0.00    -0.373 OA
HETATM   12  C   UNL     1     -41.034 -42.842  12.136  1.00  0.00     0.230 C 
HETATM   13  C   UNL     1     -40.512 -43.806  11.051  1.00  0.00     0.164 C 
BRANCH  12  14
HETATM   14  C   UNL     1     -41.263 -41.458  11.521  1.00  0.00     0.246 C 
HETATM   15  O   UNL     1     -42.210 -41.166  10.799  1.00  0.00    -0.271 OA
HETATM   16  N   UNL     1     -40.353 -40.510  11.905  1.00  0.00    -0.368 N 
HETATM   17  H   UNL     1     -39.450 -40.830  12.242  1.00  0.00     0.159 HD
HETATM   18  H   UNL     1     -40.403 -39.610  11.447  1.00  0.00     0.159 HD
ENDBRANCH  12  14
ENDBRANCH   3   8
BRANCH   1  19
HETATM   19  C   UNL     1     -43.696 -47.474   9.122  1.00  0.00     0.268 C 
HETATM   20  N   UNL     1     -44.877 -47.150   9.757  1.00  0.00    -0.356 N 
HETATM   21  H   UNL     1     -44.827 -47.009  10.763  1.00  0.00     0.162 HD
HETATM   22  O   UNL     1     -43.618 -47.726   7.925  1.00  0.00    -0.266 OA
BRANCH  20  23
HETATM   23  C   UNL     1     -46.141 -47.091   9.061  1.00  0.00     0.118 C 
HETATM   24  C   UNL     1     -46.782 -48.461   8.934  1.00  0.00     0.026 C 
ENDBRANCH  20  23
ENDBRANCH   1  19
TORSDOF 4
ENDMDL
MODEL 6
REMARK VINA RESULT:      -6.0      1.918      2.346
REMARK  4 active torsions:
REMARK  status: ('A' for Active; 'I' for Inactive)
REMARK    1  A    between atoms: C_2  and  N_3 
REMARK       I    between atoms: N_3  and  C_4 
REMARK    2  A    between atoms: C_4  and  C_6 
REMARK    3  A    between atoms: C_8  and  N_13 
REMARK    4  A    between atoms: C_17  and  C_19 
REMARK       I    between atoms: C_19  and  N_21 
ROOT
HETATM    1  C   UNL     1     -41.147 -45.781  11.575  1.00  0.00     0.102 A 
HETATM    2  C   UNL     1     -40.719 -47.090  11.782  1.00  0.00     0.064 A 
HETATM    3  C   UNL     1     -39.797 -47.370  12.791  1.00  0.00     0.034 A 
HETATM    4  C   UNL     1     -39.352 -46.277  13.541  1.00  0.00     0.046 A 
HETATM    5  C   UNL     1     -39.821 -44.997  13.263  1.00  0.00     0.090 A 
HETATM    6  N   UNL     1     -40.716 -44.713  12.296  1.00  0.00    -0.361 N 
ATOM      7  HN  UNL     1     -41.046 -43.765  12.119  1.00  0.00     0.165 HD
ENDROOT
BRANCH   3   8
HETATM    8  N   UNL     1     -39.343 -48.650  13.031  1.00  0.00    -0.376 N 
HETATM    9  C   UNL     1     -37.919 -49.022  13.030  1.00  0.00     0.149 C 
HETATM   10  C   UNL     1     -37.666 -50.125  11.992  1.00  0.00     0.188 C 
HETATM   11  O   UNL     1     -38.513 -51.266  12.216  1.00  0.00    -0.373 OA
HETATM   12  C   UNL     1     -39.904 -50.881  12.137  1.00  0.00     0.230 C 
HETATM   13  C   UNL     1     -40.259 -49.800  13.178  1.00  0.00     0.164 C 
BRANCH  12  14
HETATM   14  C   UNL     1     -40.794 -52.109  12.352  1.00  0.00     0.246 C 
HETATM   15  O   UNL     1     -41.109 -52.556  13.449  1.00  0.00    -0.271 OA
HETATM   16  N   UNL     1     -41.298 -52.652  11.200  1.00  0.00    -0.368 N 
HETATM   17  H   UNL     1     -40.804 -52.463  10.333  1.00  0.00     0.159 HD
HETATM   18  H   UNL     1     -41.806 -53.521  11.284  1.00  0.00     0.159 HD
ENDBRANCH  12  14
ENDBRANCH   3   8
BRANCH   1  19
HETATM   19  C   UNL     1     -42.149 -45.508  10.496  1.00  0.00     0.268 C 
HETATM   20  N   UNL     1     -42.294 -46.514   9.563  1.00  0.00    -0.356 N 
HETATM   21  H   UNL     1     -41.679 -47.318   9.663  1.00  0.00     0.162 HD
HETATM   22  O   UNL     1     -42.782 -44.459  10.464  1.00  0.00    -0.266 OA
BRANCH  20  23
HETATM   23  C   UNL     1     -43.208 -46.413   8.450  1.00  0.00     0.118 C 
HETATM   24  C   UNL     1     -43.600 -47.777   7.914  1.00  0.00     0.026 C 
ENDBRANCH  20  23
ENDBRANCH   1  19
TORSDOF 4
ENDMDL
MODEL 7
REMARK VINA RESULT:      -5.9      1.874      3.133
REMARK  4 active torsions:
REMARK  status: ('A' for Active; 'I' for Inactive)
REMARK    1  A    between atoms: C_2  and  N_3 
REMARK       I    between atoms: N_3  and  C_4 
REMARK    2  A    between atoms: C_4  and  C_6 
REMARK    3  A    between atoms: C_8  and  N_13 
REMARK    4  A    between atoms: C_17  and  C_19 
REMARK       I    between atoms: C_19  and  N_21 
ROOT
HETATM    1  C   UNL     1     -42.349 -47.299   9.729  1.00  0.00     0.102 A 
HETATM    2  C   UNL     1     -41.696 -48.318  10.418  1.00  0.00     0.064 A 
HETATM    3  C   UNL     1     -40.596 -48.021  11.224  1.00  0.00     0.034 A 
HETATM    4  C   UNL     1     -40.217 -46.676  11.278  1.00  0.00     0.046 A 
HETATM    5  C   UNL     1     -40.917 -45.719  10.550  1.00  0.00     0.090 A 
HETATM    6  N   UNL     1     -41.983 -45.991   9.772  1.00  0.00    -0.361 N 
ATOM      7  HN  UNL     1     -42.480 -45.267   9.254  1.00  0.00     0.165 HD
ENDROOT
BRANCH   3   8
HETATM    8  N   UNL     1     -39.917 -48.996  11.923  1.00  0.00    -0.376 N 
HETATM    9  C   UNL     1     -40.439 -50.355  12.140  1.00  0.00     0.149 C 
HETATM   10  C   UNL     1     -40.528 -50.648  13.644  1.00  0.00     0.188 C 
HETATM   11  O   UNL     1     -39.260 -50.456  14.297  1.00  0.00    -0.373 OA
HETATM   12  C   UNL     1     -38.811 -49.093  14.128  1.00  0.00     0.230 C 
HETATM   13  C   UNL     1     -38.653 -48.722  12.639  1.00  0.00     0.164 C 
BRANCH  12  14
HETATM   14  C   UNL     1     -37.474 -48.895  14.847  1.00  0.00     0.246 C 
HETATM   15  O   UNL     1     -36.872 -49.776  15.452  1.00  0.00    -0.271 OA
HETATM   16  N   UNL     1     -36.932 -47.645  14.704  1.00  0.00    -0.368 N 
HETATM   17  H   UNL     1     -37.560 -46.883  14.469  1.00  0.00     0.159 HD
HETATM   18  H   UNL     1     -36.104 -47.437  15.244  1.00  0.00     0.159 HD
ENDBRANCH  12  14
ENDBRANCH   3   8
BRANCH   1  19
HETATM   19  C   UNL     1     -43.535 -47.642   8.882  1.00  0.00     0.268 C 
HETATM   20  N   UNL     1     -44.719 -47.806   9.571  1.00  0.00    -0.356 N 
HETATM   21  H   UNL     1     -44.669 -47.730  10.584  1.00  0.00     0.162 HD
HETATM   22  O   UNL     1     -43.437 -47.762   7.666  1.00  0.00    -0.266 OA
BRANCH  20  23
HETATM   23  C   UNL     1     -45.958 -48.149   8.913  1.00  0.00     0.118 C 
HETATM   24  C   UNL     1     -47.013 -47.073   9.095  1.00  0.00     0.026 C 
ENDBRANCH  20  23
ENDBRANCH   1  19
TORSDOF 4
ENDMDL
MODEL 8
REMARK VINA RESULT:      -5.8      1.674      2.053
REMARK  4 active torsions:
REMARK  status: ('A' for Active; 'I' for Inactive)
REMARK    1  A    between atoms: C_2  and  N_3 
REMARK       I    between atoms: N_3  and  C_4 
REMARK    2  A    between atoms: C_4  and  C_6 
REMARK    3  A    between atoms: C_8  and  N_13 
REMARK    4  A    between atoms: C_17  and  C_19 
REMARK       I    between atoms: C_19  and  N_21 
ROOT
HETATM    1  C   UNL     1     -42.279 -47.052  10.196  1.00  0.00     0.102 A 
HETATM    2  C   UNL     1     -42.341 -48.240  10.920  1.00  0.00     0.064 A 
HETATM    3  C   UNL     1     -41.257 -48.636  11.704  1.00  0.00     0.034 A 
HETATM    4  C   UNL     1     -40.149 -47.782  11.701  1.00  0.00     0.046 A 
HETATM    5  C   UNL     1     -40.163 -46.616  10.941  1.00  0.00     0.090 A 
HETATM    6  N   UNL     1     -41.205 -46.219  10.184  1.00  0.00    -0.361 N 
ATOM      7  HN  UNL     1     -41.188 -45.356   9.642  1.00  0.00     0.165 HD
ENDROOT
BRANCH   3   8
HETATM    8  N   UNL     1     -41.271 -49.805  12.435  1.00  0.00    -0.376 N 
HETATM    9  C   UNL     1     -40.354 -50.930  12.191  1.00  0.00     0.149 C 
HETATM   10  C   UNL     1     -41.156 -52.203  11.885  1.00  0.00     0.188 C 
HETATM   11  O   UNL     1     -42.095 -52.502  12.934  1.00  0.00    -0.373 OA
HETATM   12  C   UNL     1     -43.027 -51.409  13.098  1.00  0.00     0.230 C 
HETATM   13  C   UNL     1     -42.307 -50.090  13.450  1.00  0.00     0.164 C 
BRANCH  12  14
HETATM   14  C   UNL     1     -44.035 -51.750  14.199  1.00  0.00     0.246 C 
HETATM   15  O   UNL     1     -44.807 -52.702  14.164  1.00  0.00    -0.271 OA
HETATM   16  N   UNL     1     -43.965 -50.941  15.302  1.00  0.00    -0.368 N 
HETATM   17  H   UNL     1     -43.551 -50.021  15.187  1.00  0.00     0.159 HD
HETATM   18  H   UNL     1     -44.677 -51.063  16.009  1.00  0.00     0.159 HD
ENDBRANCH  12  14
ENDBRANCH   3   8
BRANCH   1  19
HETATM   19  C   UNL     1     -43.461 -46.642   9.374  1.00  0.00     0.268 C 
HETATM   20  N   UNL     1     -44.672 -47.155   9.791  1.00  0.00    -0.356 N 
HETATM   21  H   UNL     1     -44.645 -47.799  10.578  1.00  0.00     0.162 HD
HETATM   22  O   UNL     1     -43.338 -45.900   8.405  1.00  0.00    -0.266 OA
BRANCH  20  23
HETATM   23  C   UNL     1     -45.912 -46.872   9.107  1.00  0.00     0.118 C 
HETATM   24  C   UNL     1     -46.722 -48.130   8.858  1.00  0.00     0.026 C 
ENDBRANCH  20  23
ENDBRANCH   1  19
TORSDOF 4
ENDMDL
MODEL 9
REMARK VINA RESULT:      -5.7      2.225      5.820
REMARK  4 active torsions:
REMARK  status: ('A' for Active; 'I' for Inactive)
REMARK    1  A    between atoms: C_2  and  N_3 
REMARK       I    between atoms: N_3  and  C_4 
REMARK    2  A    between atoms: C_4  and  C_6 
REMARK    3  A    between atoms: C_8  and  N_13 
REMARK    4  A    between atoms: C_17  and  C_19 
REMARK       I    between atoms: C_19  and  N_21 
ROOT
HETATM    1  C   UNL     1     -41.577 -51.124  12.500  1.00  0.00     0.102 A 
HETATM    2  C   UNL     1     -41.944 -49.945  11.856  1.00  0.00     0.064 A 
HETATM    3  C   UNL     1     -40.961 -49.079  11.374  1.00  0.00     0.034 A 
HETATM    4  C   UNL     1     -39.635 -49.472  11.587  1.00  0.00     0.046 A 
HETATM    5  C   UNL     1     -39.353 -50.663  12.249  1.00  0.00     0.090 A 
HETATM    6  N   UNL     1     -40.292 -51.510  12.714  1.00  0.00    -0.361 N 
ATOM      7  HN  UNL     1     -40.055 -52.379  13.191  1.00  0.00     0.165 HD
ENDROOT
BRANCH   3   8
HETATM    8  N   UNL     1     -41.276 -47.900  10.733  1.00  0.00    -0.376 N 
HETATM    9  C   UNL     1     -40.682 -46.599  11.084  1.00  0.00     0.149 C 
HETATM   10  C   UNL     1     -41.788 -45.605  11.465  1.00  0.00     0.188 C 
HETATM   11  O   UNL     1     -42.769 -45.477  10.419  1.00  0.00    -0.373 OA
HETATM   12  C   UNL     1     -43.385 -46.757  10.151  1.00  0.00     0.230 C 
HETATM   13  C   UNL     1     -42.346 -47.813   9.718  1.00  0.00     0.164 C 
BRANCH  12  14
HETATM   14  C   UNL     1     -44.443 -46.602   9.055  1.00  0.00     0.246 C 
HETATM   15  O   UNL     1     -45.043 -45.561   8.809  1.00  0.00    -0.271 OA
HETATM   16  N   UNL     1     -44.629 -47.720   8.286  1.00  0.00    -0.368 N 
HETATM   17  H   UNL     1     -44.358 -48.615   8.680  1.00  0.00     0.159 HD
HETATM   18  H   UNL     1     -45.388 -47.699   7.618  1.00  0.00     0.159 HD
ENDBRANCH  12  14
ENDBRANCH   3   8
BRANCH   1  19
HETATM   19  C   UNL     1     -42.651 -52.044  12.993  1.00  0.00     0.268 C 
HETATM   20  N   UNL     1     -43.940 -51.651  12.700  1.00  0.00    -0.356 N 
HETATM   21  H   UNL     1     -44.045 -50.757  12.226  1.00  0.00     0.162 HD
HETATM   22  O   UNL     1     -42.379 -53.068  13.611  1.00  0.00    -0.266 OA
BRANCH  20  23
HETATM   23  C   UNL     1     -45.096 -52.414  13.110  1.00  0.00     0.118 C 
HETATM   24  C   UNL     1     -46.385 -51.639  12.911  1.00  0.00     0.026 C 
ENDBRANCH  20  23
ENDBRANCH   1  19
TORSDOF 4
ENDMDL
