MODEL 1
REMARK VINA RESULT:      -7.0      0.000      0.000
REMARK  6 active torsions:
REMARK  status: ('A' for Active; 'I' for Inactive)
REMARK    1  A    between atoms: N_2  and  C_11 
REMARK    2  A    between atoms: C_7  and  N_10 
REMARK    3  A    between atoms: C_9  and  C_11 
REMARK    4  A    between atoms: C_9  and  O_26 
REMARK    5  A    between atoms: N_10  and  C_20 
REMARK    6  A    between atoms: C_20  and  C_21 
ROOT
HETATM    1  C   UNL     1     -41.735 -50.097  13.290  1.00  0.00     0.122 C 
HETATM    2  N   UNL     1     -42.820 -51.337  14.727  1.00  0.00    -0.324 N 
HETATM    3  C   UNL     1     -42.063 -51.415  13.590  1.00  0.00     0.140 C 
HETATM    4  N   UNL     1     -42.120 -49.275  14.339  1.00  0.00    -0.346 N 
ATOM      5  HN  UNL     1     -41.990 -48.266  14.411  1.00  0.00     0.167 HD
HETATM    6  C   UNL     1     -41.160 -49.843  12.009  1.00  0.00     0.135 C 
HETATM    7  C   UNL     1     -42.688 -50.070  15.221  1.00  0.00     0.185 C 
HETATM    8  N   UNL     1     -41.782 -52.502  12.862  1.00  0.00    -0.336 N 
ATOM      9  HN  UNL     1     -42.088 -53.448  13.092  1.00  0.00     0.168 HD
HETATM   10  N   UNL     1     -40.728 -50.942  11.331  1.00  0.00    -0.337 N 
ATOM     11  HN  UNL     1     -40.172 -50.836  10.482  1.00  0.00     0.168 HD
HETATM   12  C   UNL     1     -41.043 -52.180  11.791  1.00  0.00     0.183 C 
ENDROOT
BRANCH   6  13
HETATM   13  N   UNL     1     -41.129 -48.605  11.375  1.00  0.00    -0.369 N 
HETATM   14  C   UNL     1     -40.046 -47.686  11.700  1.00  0.00     0.151 C 
BRANCH  13  15
HETATM   15  C   UNL     1     -42.002 -48.274  10.242  1.00  0.00     0.129 C 
BRANCH  15  16
HETATM   16  C   UNL     1     -43.084 -47.210  10.570  1.00  0.00     0.018 C 
HETATM   17  C   UNL     1     -44.510 -47.751  10.407  1.00  0.00     0.146 C 
HETATM   18  S   UNL     1     -45.022 -47.293   8.772  1.00  0.00     0.144 S 
HETATM   19  O   UNL     1     -44.286 -48.058   7.787  1.00  0.00    -0.228 OA
HETATM   20  O   UNL     1     -46.461 -47.155   8.730  1.00  0.00    -0.228 OA
HETATM   21  C   UNL     1     -44.283 -45.695   8.918  1.00  0.00     0.141 C 
HETATM   22  C   UNL     1     -42.958 -45.954   9.640  1.00  0.00     0.022 C 
ENDBRANCH  15  16
ENDBRANCH  13  15
ENDBRANCH   6  13
BRANCH   2  23
HETATM   23  C   UNL     1     -43.713 -52.355  15.259  1.00  0.00     0.172 C 
BRANCH  23  24
HETATM   24  C   UNL     1     -45.026 -52.519  14.454  1.00  0.00     0.102 C 
HETATM   25  C   UNL     1     -45.006 -53.592  13.334  1.00  0.00     0.153 C 
HETATM   26  O   UNL     1     -45.891 -53.132  12.283  1.00  0.00    -0.383 OA
HETATM   27  C   UNL     1     -45.464 -54.991  13.712  1.00  0.00     0.042 C 
HETATM   28  C   UNL     1     -46.347 -51.816  12.622  1.00  0.00     0.171 C 
HETATM   29  C   UNL     1     -45.336 -51.279  13.619  1.00  0.00     0.068 C 
BRANCH  24  30
HETATM   30  O   UNL     1     -46.148 -52.679  15.338  1.00  0.00    -0.385 OA
HETATM   31  H   UNL     1     -46.974 -52.450  14.872  1.00  0.00     0.210 HD
ENDBRANCH  24  30
ENDBRANCH  23  24
ENDBRANCH   2  23
TORSDOF 6
ENDMDL
MODEL 2
REMARK VINA RESULT:      -6.9      2.611      3.248
REMARK  6 active torsions:
REMARK  status: ('A' for Active; 'I' for Inactive)
REMARK    1  A    between atoms: N_2  and  C_11 
REMARK    2  A    between atoms: C_7  and  N_10 
REMARK    3  A    between atoms: C_9  and  C_11 
REMARK    4  A    between atoms: C_9  and  O_26 
REMARK    5  A    between atoms: N_10  and  C_20 
REMARK    6  A    between atoms: C_20  and  C_21 
ROOT
HETATM    1  C   UNL     1     -42.328 -49.006  12.346  1.00  0.00     0.122 C 
HETATM    2  N   UNL     1     -42.631 -50.630  13.778  1.00  0.00    -0.324 N 
HETATM    3  C   UNL     1     -41.849 -50.257  12.719  1.00  0.00     0.140 C 
HETATM    4  N   UNL     1     -43.241 -48.560  13.291  1.00  0.00    -0.346 N 
ATOM      5  HN  UNL     1     -43.739 -47.670  13.295  1.00  0.00     0.167 HD
HETATM    6  C   UNL     1     -41.870 -48.475  11.103  1.00  0.00     0.135 C 
HETATM    7  C   UNL     1     -43.329 -49.526  14.181  1.00  0.00     0.185 C 
HETATM    8  N   UNL     1     -40.900 -50.974  12.105  1.00  0.00    -0.336 N 
ATOM      9  HN  UNL     1     -40.615 -51.914  12.381  1.00  0.00     0.168 HD
HETATM   10  N   UNL     1     -40.799 -49.111  10.552  1.00  0.00    -0.337 N 
ATOM     11  HN  UNL     1     -40.319 -48.706   9.749  1.00  0.00     0.168 HD
HETATM   12  C   UNL     1     -40.375 -50.289  11.079  1.00  0.00     0.183 C 
ENDROOT
BRANCH   6  13
HETATM   13  N   UNL     1     -42.501 -47.468  10.379  1.00  0.00    -0.369 N 
HETATM   14  C   UNL     1     -43.929 -47.593  10.118  1.00  0.00     0.151 C 
BRANCH  13  15
HETATM   15  C   UNL     1     -41.846 -46.193  10.062  1.00  0.00     0.129 C 
BRANCH  15  16
HETATM   16  C   UNL     1     -41.300 -45.439  11.304  1.00  0.00     0.018 C 
HETATM   17  C   UNL     1     -42.418 -44.828  12.160  1.00  0.00     0.146 C 
HETATM   18  S   UNL     1     -42.585 -43.148  11.619  1.00  0.00     0.144 S 
HETATM   19  O   UNL     1     -43.155 -43.107  10.288  1.00  0.00    -0.228 OA
HETATM   20  O   UNL     1     -43.084 -42.332  12.702  1.00  0.00    -0.228 OA
HETATM   21  C   UNL     1     -40.834 -42.947  11.491  1.00  0.00     0.141 C 
HETATM   22  C   UNL     1     -40.342 -44.267  10.892  1.00  0.00     0.022 C 
ENDBRANCH  15  16
ENDBRANCH  13  15
ENDBRANCH   6  13
BRANCH   2  23
HETATM   23  C   UNL     1     -42.808 -51.973  14.309  1.00  0.00     0.172 C 
BRANCH  23  24
HETATM   24  C   UNL     1     -44.034 -52.720  13.728  1.00  0.00     0.102 C 
HETATM   25  C   UNL     1     -45.363 -52.557  14.513  1.00  0.00     0.153 C 
HETATM   26  O   UNL     1     -46.113 -53.786  14.349  1.00  0.00    -0.383 OA
HETATM   27  C   UNL     1     -46.280 -51.423  14.085  1.00  0.00     0.042 C 
HETATM   28  C   UNL     1     -45.294 -54.720  13.633  1.00  0.00     0.171 C 
HETATM   29  C   UNL     1     -43.867 -54.235  13.816  1.00  0.00     0.068 C 
BRANCH  24  30
HETATM   30  O   UNL     1     -44.191 -52.430  12.330  1.00  0.00    -0.385 OA
HETATM   31  H   UNL     1     -44.628 -51.565  12.217  1.00  0.00     0.210 HD
ENDBRANCH  24  30
ENDBRANCH  23  24
ENDBRANCH   2  23
TORSDOF 6
ENDMDL
MODEL 3
REMARK VINA RESULT:      -6.9      1.281      2.053
REMARK  6 active torsions:
REMARK  status: ('A' for Active; 'I' for Inactive)
REMARK    1  A    between atoms: N_2  and  C_11 
REMARK    2  A    between atoms: C_7  and  N_10 
REMARK    3  A    between atoms: C_9  and  C_11 
REMARK    4  A    between atoms: C_9  and  O_26 
REMARK    5  A    between atoms: N_10  and  C_20 
REMARK    6  A    between atoms: C_20  and  C_21 
ROOT
HETATM    1  C   UNL     1     -42.516 -50.511  12.685  1.00  0.00     0.122 C 
HETATM    2  N   UNL     1     -44.190 -51.783  13.284  1.00  0.00    -0.324 N 
HETATM    3  C   UNL     1     -42.947 -51.833  12.713  1.00  0.00     0.140 C 
HETATM    4  N   UNL     1     -43.398 -49.721  13.407  1.00  0.00    -0.346 N 
ATOM      5  HN  UNL     1     -43.330 -48.718  13.578  1.00  0.00     0.167 HD
HETATM    6  C   UNL     1     -41.353 -50.221  11.910  1.00  0.00     0.135 C 
HETATM    7  C   UNL     1     -44.343 -50.538  13.825  1.00  0.00     0.185 C 
HETATM    8  N   UNL     1     -42.321 -52.898  12.198  1.00  0.00    -0.336 N 
ATOM      9  HN  UNL     1     -42.699 -53.846  12.193  1.00  0.00     0.168 HD
HETATM   10  N   UNL     1     -40.624 -51.302  11.516  1.00  0.00    -0.337 N 
ATOM     11  HN  UNL     1     -39.705 -51.175  11.093  1.00  0.00     0.168 HD
HETATM   12  C   UNL     1     -41.130 -52.550  11.690  1.00  0.00     0.183 C 
ENDROOT
BRANCH   6  13
HETATM   13  N   UNL     1     -40.997 -48.961  11.439  1.00  0.00    -0.369 N 
HETATM   14  C   UNL     1     -39.781 -48.345  11.954  1.00  0.00     0.151 C 
BRANCH  13  15
HETATM   15  C   UNL     1     -41.664 -48.327  10.295  1.00  0.00     0.129 C 
BRANCH  15  16
HETATM   16  C   UNL     1     -42.685 -47.227  10.692  1.00  0.00     0.018 C 
HETATM   17  C   UNL     1     -44.140 -47.691  10.538  1.00  0.00     0.146 C 
HETATM   18  S   UNL     1     -44.662 -47.140   8.936  1.00  0.00     0.144 S 
HETATM   19  O   UNL     1     -43.985 -47.896   7.903  1.00  0.00    -0.228 OA
HETATM   20  O   UNL     1     -46.093 -46.931   8.931  1.00  0.00    -0.228 OA
HETATM   21  C   UNL     1     -43.842 -45.587   9.131  1.00  0.00     0.141 C 
HETATM   22  C   UNL     1     -42.517 -45.939   9.812  1.00  0.00     0.022 C 
ENDBRANCH  15  16
ENDBRANCH  13  15
ENDBRANCH   6  13
BRANCH   2  23
HETATM   23  C   UNL     1     -45.225 -52.804  13.224  1.00  0.00     0.172 C 
BRANCH  23  24
HETATM   24  C   UNL     1     -45.635 -53.364  14.608  1.00  0.00     0.102 C 
HETATM   25  C   UNL     1     -45.948 -52.310  15.702  1.00  0.00     0.153 C 
HETATM   26  O   UNL     1     -45.570 -52.886  16.976  1.00  0.00    -0.383 OA
HETATM   27  C   UNL     1     -47.396 -51.864  15.834  1.00  0.00     0.042 C 
HETATM   28  C   UNL     1     -44.942 -54.151  16.729  1.00  0.00     0.171 C 
HETATM   29  C   UNL     1     -44.481 -54.102  15.284  1.00  0.00     0.068 C 
BRANCH  24  30
HETATM   30  O   UNL     1     -46.686 -54.335  14.474  1.00  0.00    -0.385 OA
HETATM   31  H   UNL     1     -46.448 -54.990  13.791  1.00  0.00     0.210 HD
ENDBRANCH  24  30
ENDBRANCH  23  24
ENDBRANCH   2  23
TORSDOF 6
ENDMDL
MODEL 4
REMARK VINA RESULT:      -6.9      3.212      7.149
REMARK  6 active torsions:
REMARK  status: ('A' for Active; 'I' for Inactive)
REMARK    1  A    between atoms: N_2  and  C_11 
REMARK    2  A    between atoms: C_7  and  N_10 
REMARK    3  A    between atoms: C_9  and  C_11 
REMARK    4  A    between atoms: C_9  and  O_26 
REMARK    5  A    between atoms: N_10  and  C_20 
REMARK    6  A    between atoms: C_20  and  C_21 
ROOT
HETATM    1  C   UNL     1     -41.756 -49.237  11.781  1.00  0.00     0.122 C 
HETATM    2  N   UNL     1     -41.723 -47.310  10.748  1.00  0.00    -0.324 N 
HETATM    3  C   UNL     1     -40.903 -48.315  11.184  1.00  0.00     0.140 C 
HETATM    4  N   UNL     1     -43.072 -48.882  11.527  1.00  0.00    -0.346 N 
ATOM      5  HN  UNL     1     -43.913 -49.379  11.819  1.00  0.00     0.167 HD
HETATM    6  C   UNL     1     -41.156 -50.277  12.553  1.00  0.00     0.135 C 
HETATM    7  C   UNL     1     -43.008 -47.767  10.828  1.00  0.00     0.185 C 
HETATM    8  N   UNL     1     -39.566 -48.362  11.140  1.00  0.00    -0.336 N 
ATOM      9  HN  UNL     1     -38.974 -47.636  10.737  1.00  0.00     0.168 HD
HETATM   10  N   UNL     1     -39.812 -50.428  12.391  1.00  0.00    -0.337 N 
ATOM     11  HN  UNL     1     -39.335 -51.238  12.786  1.00  0.00     0.168 HD
HETATM   12  C   UNL     1     -39.111 -49.493  11.698  1.00  0.00     0.183 C 
ENDROOT
BRANCH   6  13
HETATM   13  N   UNL     1     -41.807 -51.034  13.522  1.00  0.00    -0.369 N 
HETATM   14  C   UNL     1     -41.557 -50.727  14.925  1.00  0.00     0.151 C 
BRANCH  13  15
HETATM   15  C   UNL     1     -42.890 -51.970  13.199  1.00  0.00     0.129 C 
BRANCH  15  16
HETATM   16  C   UNL     1     -44.106 -51.882  14.161  1.00  0.00     0.018 C 
HETATM   17  C   UNL     1     -44.368 -53.201  14.900  1.00  0.00     0.146 C 
HETATM   18  S   UNL     1     -45.596 -54.058  13.951  1.00  0.00     0.144 S 
HETATM   19  O   UNL     1     -45.029 -54.513  12.698  1.00  0.00    -0.228 OA
HETATM   20  O   UNL     1     -46.366 -54.925  14.814  1.00  0.00    -0.228 OA
HETATM   21  C   UNL     1     -46.501 -52.569  13.656  1.00  0.00     0.141 C 
HETATM   22  C   UNL     1     -45.423 -51.515  13.392  1.00  0.00     0.022 C 
ENDBRANCH  15  16
ENDBRANCH  13  15
ENDBRANCH   6  13
BRANCH   2  23
HETATM   23  C   UNL     1     -41.336 -45.954  10.391  1.00  0.00     0.172 C 
BRANCH  23  24
HETATM   24  C   UNL     1     -41.035 -45.046  11.609  1.00  0.00     0.102 C 
HETATM   25  C   UNL     1     -42.271 -44.516  12.383  1.00  0.00     0.153 C 
HETATM   26  O   UNL     1     -41.921 -43.214  12.912  1.00  0.00    -0.383 OA
HETATM   27  C   UNL     1     -42.758 -45.351  13.557  1.00  0.00     0.042 C 
HETATM   28  C   UNL     1     -40.621 -42.863  12.420  1.00  0.00     0.171 C 
HETATM   29  C   UNL     1     -40.408 -43.720  11.185  1.00  0.00     0.068 C 
BRANCH  24  30
HETATM   30  O   UNL     1     -40.075 -45.666  12.480  1.00  0.00    -0.385 OA
HETATM   31  H   UNL     1     -39.927 -45.105  13.264  1.00  0.00     0.210 HD
ENDBRANCH  24  30
ENDBRANCH  23  24
ENDBRANCH   2  23
TORSDOF 6
ENDMDL
MODEL 5
REMARK VINA RESULT:      -6.8      2.688      7.058
REMARK  6 active torsions:
REMARK  status: ('A' for Active; 'I' for Inactive)
REMARK    1  A    between atoms: N_2  and  C_11 
REMARK    2  A    between atoms: C_7  and  N_10 
REMARK    3  A    between atoms: C_9  and  C_11 
REMARK    4  A    between atoms: C_9  and  O_26 
REMARK    5  A    between atoms: N_10  and  C_20 
REMARK    6  A    between atoms: C_20  and  C_21 
ROOT
HETATM    1  C   UNL     1     -41.394 -50.093  12.155  1.00  0.00     0.122 C 
HETATM    2  N   UNL     1     -41.966 -47.987  12.020  1.00  0.00    -0.324 N 
HETATM    3  C   UNL     1     -40.909 -48.834  11.819  1.00  0.00     0.140 C 
HETATM    4  N   UNL     1     -42.764 -50.023  12.359  1.00  0.00    -0.346 N 
ATOM      5  HN  UNL     1     -43.392 -50.790  12.596  1.00  0.00     0.167 HD
HETATM    6  C   UNL     1     -40.439 -51.146  12.287  1.00  0.00     0.135 C 
HETATM    7  C   UNL     1     -43.083 -48.757  12.182  1.00  0.00     0.185 C 
HETATM    8  N   UNL     1     -39.656 -48.516  11.473  1.00  0.00    -0.336 N 
ATOM      9  HN  UNL     1     -39.330 -47.568  11.285  1.00  0.00     0.168 HD
HETATM   10  N   UNL     1     -39.198 -50.879  11.791  1.00  0.00    -0.337 N 
ATOM     11  HN  UNL     1     -38.507 -51.624  11.708  1.00  0.00     0.168 HD
HETATM   12  C   UNL     1     -38.888 -49.613  11.408  1.00  0.00     0.183 C 
ENDROOT
BRANCH   6  13
HETATM   13  N   UNL     1     -40.646 -52.336  12.977  1.00  0.00    -0.369 N 
HETATM   14  C   UNL     1     -39.714 -52.693  14.039  1.00  0.00     0.151 C 
BRANCH  13  15
HETATM   15  C   UNL     1     -41.873 -53.130  12.835  1.00  0.00     0.129 C 
BRANCH  15  16
HETATM   16  C   UNL     1     -42.545 -53.496  14.186  1.00  0.00     0.018 C 
HETATM   17  C   UNL     1     -43.318 -54.820  14.118  1.00  0.00     0.146 C 
HETATM   18  S   UNL     1     -45.002 -54.386  13.771  1.00  0.00     0.144 S 
HETATM   19  O   UNL     1     -45.119 -53.889  12.416  1.00  0.00    -0.228 OA
HETATM   20  O   UNL     1     -45.888 -55.394  14.307  1.00  0.00    -0.228 OA
HETATM   21  C   UNL     1     -44.942 -53.009  14.877  1.00  0.00     0.141 C 
HETATM   22  C   UNL     1     -43.561 -52.392  14.642  1.00  0.00     0.022 C 
ENDBRANCH  15  16
ENDBRANCH  13  15
ENDBRANCH   6  13
BRANCH   2  23
HETATM   23  C   UNL     1     -41.916 -46.541  12.174  1.00  0.00     0.172 C 
BRANCH  23  24
HETATM   24  C   UNL     1     -42.114 -45.763  10.850  1.00  0.00     0.102 C 
HETATM   25  C   UNL     1     -42.589 -44.293  10.991  1.00  0.00     0.153 C 
HETATM   26  O   UNL     1     -43.403 -43.991   9.832  1.00  0.00    -0.383 OA
HETATM   27  C   UNL     1     -41.510 -43.224  11.062  1.00  0.00     0.042 C 
HETATM   28  C   UNL     1     -43.557 -45.192   9.065  1.00  0.00     0.171 C 
HETATM   29  C   UNL     1     -43.269 -46.330  10.028  1.00  0.00     0.068 C 
BRANCH  24  30
HETATM   30  O   UNL     1     -40.952 -45.879  10.013  1.00  0.00    -0.385 OA
HETATM   31  H   UNL     1     -40.325 -45.157  10.212  1.00  0.00     0.210 HD
ENDBRANCH  24  30
ENDBRANCH  23  24
ENDBRANCH   2  23
TORSDOF 6
ENDMDL
MODEL 6
REMARK VINA RESULT:      -6.7      3.160      6.473
REMARK  6 active torsions:
REMARK  status: ('A' for Active; 'I' for Inactive)
REMARK    1  A    between atoms: N_2  and  C_11 
REMARK    2  A    between atoms: C_7  and  N_10 
REMARK    3  A    between atoms: C_9  and  C_11 
REMARK    4  A    between atoms: C_9  and  O_26 
REMARK    5  A    between atoms: N_10  and  C_20 
REMARK    6  A    between atoms: C_20  and  C_21 
ROOT
HETATM    1  C   UNL     1     -39.813 -50.939  12.579  1.00  0.00     0.122 C 
HETATM    2  N   UNL     1     -39.935 -48.898  11.803  1.00  0.00    -0.324 N 
HETATM    3  C   UNL     1     -39.277 -49.664  12.727  1.00  0.00     0.140 C 
HETATM    4  N   UNL     1     -40.627 -50.971  11.456  1.00  0.00    -0.346 N 
ATOM      5  HN  UNL     1     -41.137 -51.773  11.087  1.00  0.00     0.167 HD
HETATM    6  C   UNL     1     -39.498 -51.900  13.586  1.00  0.00     0.135 C 
HETATM    7  C   UNL     1     -40.604 -49.748  10.968  1.00  0.00     0.185 C 
HETATM    8  N   UNL     1     -38.386 -49.264  13.642  1.00  0.00    -0.336 N 
ATOM      9  HN  UNL     1     -38.058 -48.304  13.750  1.00  0.00     0.168 HD
HETATM   10  N   UNL     1     -38.481 -51.559  14.426  1.00  0.00    -0.337 N 
ATOM     11  HN  UNL     1     -38.096 -52.248  15.071  1.00  0.00     0.168 HD
HETATM   12  C   UNL     1     -37.985 -50.295  14.398  1.00  0.00     0.183 C 
ENDROOT
BRANCH   6  13
HETATM   13  N   UNL     1     -40.219 -53.063  13.838  1.00  0.00    -0.369 N 
HETATM   14  C   UNL     1     -39.493 -54.324  13.922  1.00  0.00     0.151 C 
BRANCH  13  15
HETATM   15  C   UNL     1     -41.631 -53.048  14.239  1.00  0.00     0.129 C 
BRANCH  15  16
HETATM   16  C   UNL     1     -42.530 -54.005  13.412  1.00  0.00     0.018 C 
HETATM   17  C   UNL     1     -43.356 -53.267  12.350  1.00  0.00     0.146 C 
HETATM   18  S   UNL     1     -44.935 -52.950  13.091  1.00  0.00     0.144 S 
HETATM   19  O   UNL     1     -44.806 -51.952  14.133  1.00  0.00    -0.228 OA
HETATM   20  O   UNL     1     -45.952 -52.874  12.066  1.00  0.00    -0.228 OA
HETATM   21  C   UNL     1     -44.976 -54.550  13.841  1.00  0.00     0.141 C 
HETATM   22  C   UNL     1     -43.542 -54.779  14.327  1.00  0.00     0.022 C 
ENDBRANCH  15  16
ENDBRANCH  13  15
ENDBRANCH   6  13
BRANCH   2  23
HETATM   23  C   UNL     1     -40.033 -47.447  11.776  1.00  0.00     0.172 C 
BRANCH  23  24
HETATM   24  C   UNL     1     -40.958 -46.859  12.869  1.00  0.00     0.102 C 
HETATM   25  C   UNL     1     -42.415 -47.393  12.884  1.00  0.00     0.153 C 
HETATM   26  O   UNL     1     -43.263 -46.317  13.356  1.00  0.00    -0.383 OA
HETATM   27  C   UNL     1     -42.699 -48.596  13.770  1.00  0.00     0.042 C 
HETATM   28  C   UNL     1     -42.455 -45.143  13.510  1.00  0.00     0.171 C 
HETATM   29  C   UNL     1     -41.230 -45.374  12.643  1.00  0.00     0.068 C 
BRANCH  24  30
HETATM   30  O   UNL     1     -40.336 -46.945  14.162  1.00  0.00    -0.385 OA
HETATM   31  H   UNL     1     -40.951 -46.624  14.848  1.00  0.00     0.210 HD
ENDBRANCH  24  30
ENDBRANCH  23  24
ENDBRANCH   2  23
TORSDOF 6
ENDMDL
MODEL 7
REMARK VINA RESULT:      -6.6      4.241      5.382
REMARK  6 active torsions:
REMARK  status: ('A' for Active; 'I' for Inactive)
REMARK    1  A    between atoms: N_2  and  C_11 
REMARK    2  A    between atoms: C_7  and  N_10 
REMARK    3  A    between atoms: C_9  and  C_11 
REMARK    4  A    between atoms: C_9  and  O_26 
REMARK    5  A    between atoms: N_10  and  C_20 
REMARK    6  A    between atoms: C_20  and  C_21 
ROOT
HETATM    1  C   UNL     1     -40.495 -47.598  11.458  1.00  0.00     0.122 C 
HETATM    2  N   UNL     1     -40.924 -49.422  12.584  1.00  0.00    -0.324 N 
HETATM    3  C   UNL     1     -41.392 -48.657  11.551  1.00  0.00     0.140 C 
HETATM    4  N   UNL     1     -39.408 -47.839  12.286  1.00  0.00    -0.346 N 
ATOM      5  HN  UNL     1     -38.585 -47.250  12.410  1.00  0.00     0.167 HD
HETATM    6  C   UNL     1     -40.868 -46.497  10.630  1.00  0.00     0.135 C 
HETATM    7  C   UNL     1     -39.663 -48.987  12.878  1.00  0.00     0.185 C 
HETATM    8  N   UNL     1     -42.518 -48.825  10.848  1.00  0.00    -0.336 N 
ATOM      9  HN  UNL     1     -43.178 -49.591  10.985  1.00  0.00     0.168 HD
HETATM   10  N   UNL     1     -41.921 -46.720   9.796  1.00  0.00    -0.337 N 
ATOM     11  HN  UNL     1     -42.153 -46.043   9.070  1.00  0.00     0.168 HD
HETATM   12  C   UNL     1     -42.661 -47.850   9.938  1.00  0.00     0.183 C 
ENDROOT
BRANCH   6  13
HETATM   13  N   UNL     1     -40.329 -45.217  10.707  1.00  0.00    -0.369 N 
HETATM   14  C   UNL     1     -39.282 -44.847   9.763  1.00  0.00     0.151 C 
BRANCH  13  15
HETATM   15  C   UNL     1     -40.914 -44.160  11.541  1.00  0.00     0.129 C 
BRANCH  15  16
HETATM   16  C   UNL     1     -39.871 -43.351  12.357  1.00  0.00     0.018 C 
HETATM   17  C   UNL     1     -39.730 -43.857  13.799  1.00  0.00     0.146 C 
HETATM   18  S   UNL     1     -40.802 -42.841  14.780  1.00  0.00     0.144 S 
HETATM   19  O   UNL     1     -42.186 -43.142  14.480  1.00  0.00    -0.228 OA
HETATM   20  O   UNL     1     -40.301 -42.765  16.134  1.00  0.00    -0.228 OA
HETATM   21  C   UNL     1     -40.335 -41.383  13.898  1.00  0.00     0.141 C 
HETATM   22  C   UNL     1     -40.254 -41.832  12.437  1.00  0.00     0.022 C 
ENDBRANCH  15  16
ENDBRANCH  13  15
ENDBRANCH   6  13
BRANCH   2  23
HETATM   23  C   UNL     1     -41.660 -50.427  13.337  1.00  0.00     0.172 C 
BRANCH  23  24
HETATM   24  C   UNL     1     -41.488 -51.867  12.795  1.00  0.00     0.102 C 
HETATM   25  C   UNL     1     -42.565 -52.893  13.238  1.00  0.00     0.153 C 
HETATM   26  O   UNL     1     -41.919 -54.187  13.319  1.00  0.00    -0.383 OA
HETATM   27  C   UNL     1     -43.771 -53.060  12.328  1.00  0.00     0.042 C 
HETATM   28  C   UNL     1     -40.517 -54.005  13.080  1.00  0.00     0.171 C 
HETATM   29  C   UNL     1     -40.241 -52.540  13.364  1.00  0.00     0.068 C 
BRANCH  24  30
HETATM   30  O   UNL     1     -41.303 -51.856  11.370  1.00  0.00    -0.385 OA
HETATM   31  H   UNL     1     -41.544 -52.725  10.997  1.00  0.00     0.210 HD
ENDBRANCH  24  30
ENDBRANCH  23  24
ENDBRANCH   2  23
TORSDOF 6
ENDMDL
MODEL 8
REMARK VINA RESULT:      -6.6      3.198      7.263
REMARK  6 active torsions:
REMARK  status: ('A' for Active; 'I' for Inactive)
REMARK    1  A    between atoms: N_2  and  C_11 
REMARK    2  A    between atoms: C_7  and  N_10 
REMARK    3  A    between atoms: C_9  and  C_11 
REMARK    4  A    between atoms: C_9  and  O_26 
REMARK    5  A    between atoms: N_10  and  C_20 
REMARK    6  A    between atoms: C_20  and  C_21 
ROOT
HETATM    1  C   UNL     1     -40.322 -51.208  12.729  1.00  0.00     0.122 C 
HETATM    2  N   UNL     1     -40.887 -49.191  12.101  1.00  0.00    -0.324 N 
HETATM    3  C   UNL     1     -40.333 -49.881  13.145  1.00  0.00     0.140 C 
HETATM    4  N   UNL     1     -40.678 -51.275  11.390  1.00  0.00    -0.346 N 
ATOM      5  HN  UNL     1     -40.737 -52.112  10.809  1.00  0.00     0.167 HD
HETATM    6  C   UNL     1     -40.031 -52.198  13.714  1.00  0.00     0.135 C 
HETATM    7  C   UNL     1     -40.924 -50.034  11.026  1.00  0.00     0.185 C 
HETATM    8  N   UNL     1     -39.971 -49.407  14.344  1.00  0.00    -0.336 N 
ATOM      9  HN  UNL     1     -40.045 -48.430  14.626  1.00  0.00     0.168 HD
HETATM   10  N   UNL     1     -39.514 -51.729  14.884  1.00  0.00    -0.337 N 
ATOM     11  HN  UNL     1     -39.140 -52.377  15.576  1.00  0.00     0.168 HD
HETATM   12  C   UNL     1     -39.500 -50.392  15.122  1.00  0.00     0.183 C 
ENDROOT
BRANCH   6  13
HETATM   13  N   UNL     1     -40.349 -53.549  13.613  1.00  0.00    -0.369 N 
HETATM   14  C   UNL     1     -39.331 -54.529  13.968  1.00  0.00     0.151 C 
BRANCH  13  15
HETATM   15  C   UNL     1     -41.718 -54.025  13.379  1.00  0.00     0.129 C 
BRANCH  15  16
HETATM   16  C   UNL     1     -42.677 -53.794  14.577  1.00  0.00     0.018 C 
HETATM   17  C   UNL     1     -43.658 -54.957  14.778  1.00  0.00     0.146 C 
HETATM   18  S   UNL     1     -45.142 -54.499  13.923  1.00  0.00     0.144 S 
HETATM   19  O   UNL     1     -44.920 -54.524  12.492  1.00  0.00    -0.228 OA
HETATM   20  O   UNL     1     -46.282 -55.136  14.542  1.00  0.00    -0.228 OA
HETATM   21  C   UNL     1     -45.027 -52.827  14.484  1.00  0.00     0.141 C 
HETATM   22  C   UNL     1     -43.536 -52.495  14.386  1.00  0.00     0.022 C 
ENDBRANCH  15  16
ENDBRANCH  13  15
ENDBRANCH   6  13
BRANCH   2  23
HETATM   23  C   UNL     1     -41.464 -47.855  12.138  1.00  0.00     0.172 C 
BRANCH  23  24
HETATM   24  C   UNL     1     -40.479 -46.736  11.719  1.00  0.00     0.102 C 
HETATM   25  C   UNL     1     -40.141 -45.685  12.810  1.00  0.00     0.153 C 
HETATM   26  O   UNL     1     -39.896 -44.428  12.134  1.00  0.00    -0.383 OA
HETATM   27  C   UNL     1     -38.924 -45.962  13.678  1.00  0.00     0.042 C 
HETATM   28  C   UNL     1     -40.177 -44.605  10.739  1.00  0.00     0.171 C 
HETATM   29  C   UNL     1     -41.082 -45.821  10.657  1.00  0.00     0.068 C 
BRANCH  24  30
HETATM   30  O   UNL     1     -39.298 -47.296  11.121  1.00  0.00    -0.385 OA
HETATM   31  H   UNL     1     -39.488 -48.193  10.787  1.00  0.00     0.210 HD
ENDBRANCH  24  30
ENDBRANCH  23  24
ENDBRANCH   2  23
TORSDOF 6
ENDMDL
MODEL 9
REMARK VINA RESULT:      -6.6      3.555      4.694
REMARK  6 active torsions:
REMARK  status: ('A' for Active; 'I' for Inactive)
REMARK    1  A    between atoms: N_2  and  C_11 
REMARK    2  A    between atoms: C_7  and  N_10 
REMARK    3  A    between atoms: C_9  and  C_11 
REMARK    4  A    between atoms: C_9  and  O_26 
REMARK    5  A    between atoms: N_10  and  C_20 
REMARK    6  A    between atoms: C_20  and  C_21 
ROOT
HETATM    1  C   UNL     1     -40.934 -49.720  11.698  1.00  0.00     0.122 C 
HETATM    2  N   UNL     1     -39.839 -50.976  13.112  1.00  0.00    -0.324 N 
HETATM    3  C   UNL     1     -41.083 -50.462  12.864  1.00  0.00     0.140 C 
HETATM    4  N   UNL     1     -39.678 -49.954  11.157  1.00  0.00    -0.346 N 
ATOM      5  HN  UNL     1     -39.296 -49.565  10.296  1.00  0.00     0.167 HD
HETATM    6  C   UNL     1     -42.010 -48.856  11.332  1.00  0.00     0.135 C 
HETATM    7  C   UNL     1     -39.084 -50.783  11.990  1.00  0.00     0.185 C 
HETATM    8  N   UNL     1     -42.180 -50.560  13.624  1.00  0.00    -0.336 N 
ATOM      9  HN  UNL     1     -42.231 -51.074  14.504  1.00  0.00     0.168 HD
HETATM   10  N   UNL     1     -43.180 -49.061  11.999  1.00  0.00    -0.337 N 
ATOM     11  HN  UNL     1     -44.033 -48.593  11.694  1.00  0.00     0.168 HD
HETATM   12  C   UNL     1     -43.203 -49.892  13.073  1.00  0.00     0.183 C 
ENDROOT
BRANCH   6  13
HETATM   13  N   UNL     1     -41.911 -47.774  10.463  1.00  0.00    -0.369 N 
HETATM   14  C   UNL     1     -42.916 -47.629   9.418  1.00  0.00     0.151 C 
BRANCH  13  15
HETATM   15  C   UNL     1     -40.978 -46.662  10.687  1.00  0.00     0.129 C 
BRANCH  15  16
HETATM   16  C   UNL     1     -41.039 -46.068  12.120  1.00  0.00     0.018 C 
HETATM   17  C   UNL     1     -42.414 -45.475  12.453  1.00  0.00     0.146 C 
HETATM   18  S   UNL     1     -42.300 -43.743  12.091  1.00  0.00     0.144 S 
HETATM   19  O   UNL     1     -42.212 -43.537  10.660  1.00  0.00    -0.228 OA
HETATM   20  O   UNL     1     -43.223 -43.006  12.925  1.00  0.00    -0.228 OA
HETATM   21  C   UNL     1     -40.676 -43.640  12.779  1.00  0.00     0.141 C 
HETATM   22  C   UNL     1     -39.984 -44.924  12.314  1.00  0.00     0.022 C 
ENDBRANCH  15  16
ENDBRANCH  13  15
ENDBRANCH   6  13
BRANCH   2  23
HETATM   23  C   UNL     1     -39.346 -51.512  14.372  1.00  0.00     0.172 C 
BRANCH  23  24
HETATM   24  C   UNL     1     -39.390 -53.058  14.456  1.00  0.00     0.102 C 
HETATM   25  C   UNL     1     -40.801 -53.701  14.384  1.00  0.00     0.153 C 
HETATM   26  O   UNL     1     -40.764 -54.908  15.184  1.00  0.00    -0.383 OA
HETATM   27  C   UNL     1     -41.305 -54.101  13.007  1.00  0.00     0.042 C 
HETATM   28  C   UNL     1     -39.486 -54.981  15.829  1.00  0.00     0.171 C 
HETATM   29  C   UNL     1     -38.946 -53.563  15.827  1.00  0.00     0.068 C 
BRANCH  24  30
HETATM   30  O   UNL     1     -38.478 -53.645  13.515  1.00  0.00    -0.385 OA
HETATM   31  H   UNL     1     -38.286 -53.011  12.798  1.00  0.00     0.210 HD
ENDBRANCH  24  30
ENDBRANCH  23  24
ENDBRANCH   2  23
TORSDOF 6
ENDMDL
