MODEL 1
REMARK VINA RESULT:      -6.5      0.000      0.000
REMARK  7 active torsions:
REMARK  status: ('A' for Active; 'I' for Inactive)
REMARK    1  A    between atoms: N_8  and  C_9 
REMARK    2  A    between atoms: C_9  and  C_10 
REMARK    3  A    between atoms: C_10  and  O_11 
REMARK    4  A    between atoms: C_10  and  C_12 
REMARK    5  A    between atoms: C_12  and  N_13 
REMARK    6  A    between atoms: N_13  and  C_14 
REMARK    7  A    between atoms: C_14  and  C_15 
ROOT
HETATM    1  C   UNL     1     -41.715 -50.140  12.251  1.00  0.00     0.163 C 
ENDROOT
BRANCH   1   2
HETATM    2  N   UNL     1     -42.089 -51.525  12.478  1.00  0.00    -0.339 N 
HETATM    3  C   UNL     1     -41.302 -52.603  12.182  1.00  0.00     0.184 A 
HETATM    4  N   UNL     1     -41.883 -53.733  12.505  1.00  0.00    -0.350 N 
HETATM    5  C   UNL     1     -43.100 -53.370  13.029  1.00  0.00     0.060 A 
ATOM      6  HN  UNL     1     -41.513 -54.676  12.392  1.00  0.00     0.166 HD
HETATM    7  C   UNL     1     -44.118 -54.181  13.549  1.00  0.00     0.039 A 
HETATM    8  C   UNL     1     -43.269 -51.991  13.004  1.00  0.00     0.062 A 
HETATM    9  C   UNL     1     -45.297 -53.590  14.038  1.00  0.00    -0.054 A 
HETATM   10  C   UNL     1     -46.367 -54.483  14.610  1.00  0.00     0.049 C 
HETATM   11  C   UNL     1     -45.456 -52.187  13.993  1.00  0.00    -0.054 A 
HETATM   12  C   UNL     1     -44.435 -51.366  13.467  1.00  0.00     0.039 A 
HETATM   13  C   UNL     1     -46.712 -51.536  14.510  1.00  0.00     0.049 C 
ENDBRANCH   1   2
BRANCH   1  14
HETATM   14  C   UNL     1     -40.321 -50.005  11.619  1.00  0.00     0.164 C 
BRANCH  14  15
HETATM   15  O   UNL     1     -40.381 -50.125  10.191  1.00  0.00    -0.392 OA
HETATM   16  H   UNL     1     -39.507 -50.383   9.854  1.00  0.00     0.210 HD
ENDBRANCH  14  15
BRANCH  14  17
HETATM   17  C   UNL     1     -39.669 -48.647  11.957  1.00  0.00     0.303 C 
BRANCH  17  18
HETATM   18  N   UNL     1     -39.962 -47.639  10.941  1.00  0.00     0.090 N 
HETATM   19  H   UNL     1     -40.334 -48.096  10.106  1.00  0.00     0.316 HD
BRANCH  18  20
HETATM   20  C   UNL     1     -40.969 -46.681  11.400  1.00  0.00     0.315 C 
BRANCH  20  21
HETATM   21  C   UNL     1     -42.084 -46.633  10.399  1.00  0.00     0.010 A 
HETATM   22  C   UNL     1     -42.590 -47.663   9.630  1.00  0.00     0.017 A 
HETATM   23  C   UNL     1     -43.675 -47.245   8.808  1.00  0.00     0.008 A 
HETATM   24  C   UNL     1     -43.964 -45.909   8.977  1.00  0.00     0.050 A 
HETATM   25  S   UNL     1     -42.929 -45.167  10.117  1.00  0.00    -0.105 SA
ENDBRANCH  20  21
ENDBRANCH  18  20
ENDBRANCH  17  18
ENDBRANCH  14  17
ENDBRANCH   1  14
TORSDOF 7
ENDMDL
MODEL 2
REMARK VINA RESULT:      -6.3      3.452      4.591
REMARK  7 active torsions:
REMARK  status: ('A' for Active; 'I' for Inactive)
REMARK    1  A    between atoms: N_8  and  C_9 
REMARK    2  A    between atoms: C_9  and  C_10 
REMARK    3  A    between atoms: C_10  and  O_11 
REMARK    4  A    between atoms: C_10  and  C_12 
REMARK    5  A    between atoms: C_12  and  N_13 
REMARK    6  A    between atoms: N_13  and  C_14 
REMARK    7  A    between atoms: C_14  and  C_15 
ROOT
HETATM    1  C   UNL     1     -42.267 -52.084  12.943  1.00  0.00     0.163 C 
ENDROOT
BRANCH   1   2
HETATM    2  N   UNL     1     -43.664 -52.415  13.159  1.00  0.00    -0.339 N 
HETATM    3  C   UNL     1     -44.388 -53.284  12.391  1.00  0.00     0.184 A 
HETATM    4  N   UNL     1     -45.620 -53.404  12.823  1.00  0.00    -0.350 N 
HETATM    5  C   UNL     1     -45.697 -52.576  13.916  1.00  0.00     0.060 A 
ATOM      6  HN  UNL     1     -46.361 -53.987  12.432  1.00  0.00     0.166 HD
HETATM    7  C   UNL     1     -46.781 -52.335  14.770  1.00  0.00     0.039 A 
HETATM    8  C   UNL     1     -44.491 -51.922  14.140  1.00  0.00     0.062 A 
HETATM    9  C   UNL     1     -46.637 -51.435  15.842  1.00  0.00    -0.054 A 
HETATM   10  C   UNL     1     -47.812 -51.209  16.756  1.00  0.00     0.049 C 
HETATM   11  C   UNL     1     -45.407 -50.770  16.045  1.00  0.00    -0.054 A 
HETATM   12  C   UNL     1     -44.313 -51.007  15.186  1.00  0.00     0.039 A 
HETATM   13  C   UNL     1     -45.234 -49.802  17.186  1.00  0.00     0.049 C 
ENDBRANCH   1   2
BRANCH   1  14
HETATM   14  C   UNL     1     -41.393 -53.333  12.745  1.00  0.00     0.164 C 
BRANCH  14  15
HETATM   15  O   UNL     1     -40.688 -53.285  11.497  1.00  0.00    -0.392 OA
HETATM   16  H   UNL     1     -40.316 -54.162  11.305  1.00  0.00     0.210 HD
ENDBRANCH  14  15
BRANCH  14  17
HETATM   17  C   UNL     1     -40.353 -53.488  13.876  1.00  0.00     0.303 C 
BRANCH  17  18
HETATM   18  N   UNL     1     -40.153 -52.235  14.600  1.00  0.00     0.090 N 
HETATM   19  H   UNL     1     -40.468 -52.346  15.566  1.00  0.00     0.316 HD
BRANCH  18  20
HETATM   20  C   UNL     1     -38.740 -51.853  14.643  1.00  0.00     0.315 C 
BRANCH  20  21
HETATM   21  C   UNL     1     -38.451 -50.937  13.492  1.00  0.00     0.010 A 
HETATM   22  C   UNL     1     -37.429 -51.021  12.566  1.00  0.00     0.017 A 
HETATM   23  C   UNL     1     -37.490 -49.983  11.594  1.00  0.00     0.008 A 
HETATM   24  C   UNL     1     -38.559 -49.141  11.806  1.00  0.00     0.050 A 
HETATM   25  S   UNL     1     -39.477 -49.600  13.172  1.00  0.00    -0.105 SA
ENDBRANCH  20  21
ENDBRANCH  18  20
ENDBRANCH  17  18
ENDBRANCH  14  17
ENDBRANCH   1  14
TORSDOF 7
ENDMDL
MODEL 3
REMARK VINA RESULT:      -6.3      3.069      7.215
REMARK  7 active torsions:
REMARK  status: ('A' for Active; 'I' for Inactive)
REMARK    1  A    between atoms: N_8  and  C_9 
REMARK    2  A    between atoms: C_9  and  C_10 
REMARK    3  A    between atoms: C_10  and  O_11 
REMARK    4  A    between atoms: C_10  and  C_12 
REMARK    5  A    between atoms: C_12  and  N_13 
REMARK    6  A    between atoms: N_13  and  C_14 
REMARK    7  A    between atoms: C_14  and  C_15 
ROOT
HETATM    1  C   UNL     1     -40.194 -51.364  12.544  1.00  0.00     0.163 C 
ENDROOT
BRANCH   1   2
HETATM    2  N   UNL     1     -40.291 -50.005  12.043  1.00  0.00    -0.339 N 
HETATM    3  C   UNL     1     -40.839 -49.654  10.841  1.00  0.00     0.184 A 
HETATM    4  N   UNL     1     -40.807 -48.357  10.652  1.00  0.00    -0.350 N 
HETATM    5  C   UNL     1     -40.211 -47.847  11.779  1.00  0.00     0.060 A 
ATOM      6  HN  UNL     1     -41.151 -47.839   9.843  1.00  0.00     0.166 HD
HETATM    7  C   UNL     1     -39.941 -46.513  12.112  1.00  0.00     0.039 A 
HETATM    8  C   UNL     1     -39.853 -48.859  12.662  1.00  0.00     0.062 A 
HETATM    9  C   UNL     1     -39.313 -46.214  13.335  1.00  0.00    -0.054 A 
HETATM   10  C   UNL     1     -39.053 -44.771  13.677  1.00  0.00     0.049 C 
HETATM   11  C   UNL     1     -38.945 -47.257  14.214  1.00  0.00    -0.054 A 
HETATM   12  C   UNL     1     -39.212 -48.602  13.881  1.00  0.00     0.039 A 
HETATM   13  C   UNL     1     -38.270 -46.957  15.527  1.00  0.00     0.049 C 
ENDBRANCH   1   2
BRANCH   1  14
HETATM   14  C   UNL     1     -41.177 -52.317  11.847  1.00  0.00     0.164 C 
BRANCH  14  15
HETATM   15  O   UNL     1     -40.518 -53.507  11.392  1.00  0.00    -0.392 OA
HETATM   16  H   UNL     1     -39.643 -53.273  11.038  1.00  0.00     0.210 HD
ENDBRANCH  14  15
BRANCH  14  17
HETATM   17  C   UNL     1     -42.328 -52.739  12.785  1.00  0.00     0.303 C 
BRANCH  17  18
HETATM   18  N   UNL     1     -43.567 -52.976  12.048  1.00  0.00     0.090 N 
HETATM   19  H   UNL     1     -43.349 -53.395  11.142  1.00  0.00     0.316 HD
BRANCH  18  20
HETATM   20  C   UNL     1     -44.453 -53.901  12.756  1.00  0.00     0.315 C 
BRANCH  20  21
HETATM   21  C   UNL     1     -45.406 -53.110  13.600  1.00  0.00     0.010 A 
HETATM   22  C   UNL     1     -45.776 -51.786  13.462  1.00  0.00     0.017 A 
HETATM   23  C   UNL     1     -46.731 -51.384  14.439  1.00  0.00     0.008 A 
HETATM   24  C   UNL     1     -47.062 -52.415  15.290  1.00  0.00     0.050 A 
HETATM   25  S   UNL     1     -46.221 -53.854  14.913  1.00  0.00    -0.105 SA
ENDBRANCH  20  21
ENDBRANCH  18  20
ENDBRANCH  17  18
ENDBRANCH  14  17
ENDBRANCH   1  14
TORSDOF 7
ENDMDL
MODEL 4
REMARK VINA RESULT:      -6.3      3.361      5.339
REMARK  7 active torsions:
REMARK  status: ('A' for Active; 'I' for Inactive)
REMARK    1  A    between atoms: N_8  and  C_9 
REMARK    2  A    between atoms: C_9  and  C_10 
REMARK    3  A    between atoms: C_10  and  O_11 
REMARK    4  A    between atoms: C_10  and  C_12 
REMARK    5  A    between atoms: C_12  and  N_13 
REMARK    6  A    between atoms: N_13  and  C_14 
REMARK    7  A    between atoms: C_14  and  C_15 
ROOT
HETATM    1  C   UNL     1     -41.428 -49.315  12.577  1.00  0.00     0.163 C 
ENDROOT
BRANCH   1   2
HETATM    2  N   UNL     1     -42.133 -49.647  13.802  1.00  0.00    -0.339 N 
HETATM    3  C   UNL     1     -41.650 -49.429  15.063  1.00  0.00     0.184 A 
HETATM    4  N   UNL     1     -42.503 -49.811  15.983  1.00  0.00    -0.350 N 
HETATM    5  C   UNL     1     -43.582 -50.301  15.288  1.00  0.00     0.060 A 
ATOM      6  HN  UNL     1     -42.389 -49.758  16.995  1.00  0.00     0.166 HD
HETATM    7  C   UNL     1     -44.787 -50.823  15.775  1.00  0.00     0.039 A 
HETATM    8  C   UNL     1     -43.371 -50.233  13.915  1.00  0.00     0.062 A 
HETATM    9  C   UNL     1     -45.767 -51.273  14.872  1.00  0.00    -0.054 A 
HETATM   10  C   UNL     1     -47.061 -51.812  15.423  1.00  0.00     0.049 C 
HETATM   11  C   UNL     1     -45.528 -51.208  13.481  1.00  0.00    -0.054 A 
HETATM   12  C   UNL     1     -44.315 -50.685  12.985  1.00  0.00     0.039 A 
HETATM   13  C   UNL     1     -46.565 -51.687  12.498  1.00  0.00     0.049 C 
ENDBRANCH   1   2
BRANCH   1  14
HETATM   14  C   UNL     1     -41.020 -50.564  11.779  1.00  0.00     0.164 C 
BRANCH  14  15
HETATM   15  O   UNL     1     -40.514 -50.214  10.484  1.00  0.00    -0.392 OA
HETATM   16  H   UNL     1     -39.654 -49.772  10.584  1.00  0.00     0.210 HD
ENDBRANCH  14  15
BRANCH  14  17
HETATM   17  C   UNL     1     -39.933 -51.380  12.512  1.00  0.00     0.303 C 
BRANCH  17  18
HETATM   18  N   UNL     1     -40.395 -52.730  12.830  1.00  0.00     0.090 N 
HETATM   19  H   UNL     1     -39.712 -53.411  12.493  1.00  0.00     0.316 HD
BRANCH  18  20
HETATM   20  C   UNL     1     -40.536 -52.929  14.273  1.00  0.00     0.315 C 
BRANCH  20  21
HETATM   21  C   UNL     1     -41.880 -53.534  14.549  1.00  0.00     0.010 A 
HETATM   22  C   UNL     1     -42.814 -53.998  13.642  1.00  0.00     0.017 A 
HETATM   23  C   UNL     1     -43.969 -54.534  14.279  1.00  0.00     0.008 A 
HETATM   24  C   UNL     1     -43.880 -54.465  15.651  1.00  0.00     0.050 A 
HETATM   25  S   UNL     1     -42.413 -53.754  16.165  1.00  0.00    -0.105 SA
ENDBRANCH  20  21
ENDBRANCH  18  20
ENDBRANCH  17  18
ENDBRANCH  14  17
ENDBRANCH   1  14
TORSDOF 7
ENDMDL
MODEL 5
REMARK VINA RESULT:      -6.1      2.953      4.659
REMARK  7 active torsions:
REMARK  status: ('A' for Active; 'I' for Inactive)
REMARK    1  A    between atoms: N_8  and  C_9 
REMARK    2  A    between atoms: C_9  and  C_10 
REMARK    3  A    between atoms: C_10  and  O_11 
REMARK    4  A    between atoms: C_10  and  C_12 
REMARK    5  A    between atoms: C_12  and  N_13 
REMARK    6  A    between atoms: N_13  and  C_14 
REMARK    7  A    between atoms: C_14  and  C_15 
ROOT
HETATM    1  C   UNL     1     -41.662 -50.157  12.229  1.00  0.00     0.163 C 
ENDROOT
BRANCH   1   2
HETATM    2  N   UNL     1     -42.055 -51.535  12.461  1.00  0.00    -0.339 N 
HETATM    3  C   UNL     1     -41.282 -52.626  12.174  1.00  0.00     0.184 A 
HETATM    4  N   UNL     1     -41.880 -53.745  12.500  1.00  0.00    -0.350 N 
HETATM    5  C   UNL     1     -43.094 -53.364  13.019  1.00  0.00     0.060 A 
ATOM      6  HN  UNL     1     -41.522 -54.694  12.393  1.00  0.00     0.166 HD
HETATM    7  C   UNL     1     -44.124 -54.158  13.539  1.00  0.00     0.039 A 
HETATM    8  C   UNL     1     -43.244 -51.982  12.986  1.00  0.00     0.062 A 
HETATM    9  C   UNL     1     -45.297 -53.548  14.022  1.00  0.00    -0.054 A 
HETATM   10  C   UNL     1     -46.380 -54.424  14.594  1.00  0.00     0.049 C 
HETATM   11  C   UNL     1     -45.436 -52.143  13.968  1.00  0.00    -0.054 A 
HETATM   12  C   UNL     1     -44.402 -51.340  13.442  1.00  0.00     0.039 A 
HETATM   13  C   UNL     1     -46.685 -51.473  14.479  1.00  0.00     0.049 C 
ENDBRANCH   1   2
BRANCH   1  14
HETATM   14  C   UNL     1     -40.286 -50.045  11.553  1.00  0.00     0.164 C 
BRANCH  14  15
HETATM   15  O   UNL     1     -40.413 -49.881  10.134  1.00  0.00    -0.392 OA
HETATM   16  H   UNL     1     -40.259 -48.950   9.904  1.00  0.00     0.210 HD
ENDBRANCH  14  15
BRANCH  14  17
HETATM   17  C   UNL     1     -39.475 -48.852  12.101  1.00  0.00     0.303 C 
BRANCH  17  18
HETATM   18  N   UNL     1     -38.182 -49.276  12.632  1.00  0.00     0.090 N 
HETATM   19  H   UNL     1     -37.601 -48.455  12.810  1.00  0.00     0.316 HD
BRANCH  18  20
HETATM   20  C   UNL     1     -38.324 -49.994  13.900  1.00  0.00     0.315 C 
BRANCH  20  21
HETATM   21  C   UNL     1     -37.337 -49.441  14.883  1.00  0.00     0.010 A 
HETATM   22  C   UNL     1     -36.488 -50.132  15.726  1.00  0.00     0.017 A 
HETATM   23  C   UNL     1     -35.668 -49.265  16.503  1.00  0.00     0.008 A 
HETATM   24  C   UNL     1     -35.916 -47.939  16.226  1.00  0.00     0.050 A 
HETATM   25  S   UNL     1     -37.132 -47.746  15.041  1.00  0.00    -0.105 SA
ENDBRANCH  20  21
ENDBRANCH  18  20
ENDBRANCH  17  18
ENDBRANCH  14  17
ENDBRANCH   1  14
TORSDOF 7
ENDMDL
MODEL 6
REMARK VINA RESULT:      -6.1      1.492      2.436
REMARK  7 active torsions:
REMARK  status: ('A' for Active; 'I' for Inactive)
REMARK    1  A    between atoms: N_8  and  C_9 
REMARK    2  A    between atoms: C_9  and  C_10 
REMARK    3  A    between atoms: C_10  and  O_11 
REMARK    4  A    between atoms: C_10  and  C_12 
REMARK    5  A    between atoms: C_12  and  N_13 
REMARK    6  A    between atoms: N_13  and  C_14 
REMARK    7  A    between atoms: C_14  and  C_15 
ROOT
HETATM    1  C   UNL     1     -41.743 -50.121  12.144  1.00  0.00     0.163 C 
ENDROOT
BRANCH   1   2
HETATM    2  N   UNL     1     -42.103 -51.504  12.403  1.00  0.00    -0.339 N 
HETATM    3  C   UNL     1     -41.310 -52.582  12.126  1.00  0.00     0.184 A 
HETATM    4  N   UNL     1     -41.880 -53.709  12.477  1.00  0.00    -0.350 N 
HETATM    5  C   UNL     1     -43.096 -53.345  13.002  1.00  0.00     0.060 A 
ATOM      6  HN  UNL     1     -41.503 -54.652  12.381  1.00  0.00     0.166 HD
HETATM    7  C   UNL     1     -44.104 -54.152  13.546  1.00  0.00     0.039 A 
HETATM    8  C   UNL     1     -43.277 -51.967  12.948  1.00  0.00     0.062 A 
HETATM    9  C   UNL     1     -45.285 -53.560  14.030  1.00  0.00    -0.054 A 
HETATM   10  C   UNL     1     -46.343 -54.449  14.628  1.00  0.00     0.049 C 
HETATM   11  C   UNL     1     -45.455 -52.159  13.955  1.00  0.00    -0.054 A 
HETATM   12  C   UNL     1     -44.444 -51.343  13.406  1.00  0.00     0.039 A 
HETATM   13  C   UNL     1     -46.713 -51.508  14.468  1.00  0.00     0.049 C 
ENDBRANCH   1   2
BRANCH   1  14
HETATM   14  C   UNL     1     -40.361 -49.990  11.484  1.00  0.00     0.164 C 
BRANCH  14  15
HETATM   15  O   UNL     1     -40.470 -49.907  10.057  1.00  0.00    -0.392 OA
HETATM   16  H   UNL     1     -40.490 -48.972   9.790  1.00  0.00     0.210 HD
ENDBRANCH  14  15
BRANCH  14  17
HETATM   17  C   UNL     1     -39.608 -48.736  11.980  1.00  0.00     0.303 C 
BRANCH  17  18
HETATM   18  N   UNL     1     -39.709 -47.634  11.026  1.00  0.00     0.090 N 
HETATM   19  H   UNL     1     -39.820 -48.009  10.082  1.00  0.00     0.316 HD
BRANCH  18  20
HETATM   20  C   UNL     1     -40.871 -46.785  11.298  1.00  0.00     0.315 C 
BRANCH  20  21
HETATM   21  C   UNL     1     -40.418 -45.571  12.050  1.00  0.00     0.010 A 
HETATM   22  C   UNL     1     -40.112 -45.459  13.393  1.00  0.00     0.017 A 
HETATM   23  C   UNL     1     -39.688 -44.146  13.747  1.00  0.00     0.008 A 
HETATM   24  C   UNL     1     -39.681 -43.298  12.662  1.00  0.00     0.050 A 
HETATM   25  S   UNL     1     -40.188 -44.082  11.230  1.00  0.00    -0.105 SA
ENDBRANCH  20  21
ENDBRANCH  18  20
ENDBRANCH  17  18
ENDBRANCH  14  17
ENDBRANCH   1  14
TORSDOF 7
ENDMDL
MODEL 7
REMARK VINA RESULT:      -5.9      2.220      6.502
REMARK  7 active torsions:
REMARK  status: ('A' for Active; 'I' for Inactive)
REMARK    1  A    between atoms: N_8  and  C_9 
REMARK    2  A    between atoms: C_9  and  C_10 
REMARK    3  A    between atoms: C_10  and  O_11 
REMARK    4  A    between atoms: C_10  and  C_12 
REMARK    5  A    between atoms: C_12  and  N_13 
REMARK    6  A    between atoms: N_13  and  C_14 
REMARK    7  A    between atoms: C_14  and  C_15 
ROOT
HETATM    1  C   UNL     1     -40.996 -50.036  12.886  1.00  0.00     0.163 C 
ENDROOT
BRANCH   1   2
HETATM    2  N   UNL     1     -40.853 -48.733  12.261  1.00  0.00    -0.339 N 
HETATM    3  C   UNL     1     -39.731 -47.954  12.328  1.00  0.00     0.184 A 
HETATM    4  N   UNL     1     -39.874 -46.836  11.659  1.00  0.00    -0.350 N 
HETATM    5  C   UNL     1     -41.145 -46.891  11.140  1.00  0.00     0.060 A 
ATOM      6  HN  UNL     1     -39.191 -46.087  11.549  1.00  0.00     0.166 HD
HETATM    7  C   UNL     1     -41.811 -45.965  10.327  1.00  0.00     0.039 A 
HETATM    8  C   UNL     1     -41.794 -48.061  11.519  1.00  0.00     0.062 A 
HETATM    9  C   UNL     1     -43.127 -46.228   9.906  1.00  0.00    -0.054 A 
HETATM   10  C   UNL     1     -43.812 -45.224   9.017  1.00  0.00     0.049 C 
HETATM   11  C   UNL     1     -43.775 -47.416  10.312  1.00  0.00    -0.054 A 
HETATM   12  C   UNL     1     -43.109 -48.351  11.133  1.00  0.00     0.039 A 
HETATM   13  C   UNL     1     -45.185 -47.714   9.873  1.00  0.00     0.049 C 
ENDBRANCH   1   2
BRANCH   1  14
HETATM   14  C   UNL     1     -40.777 -51.189  11.894  1.00  0.00     0.164 C 
BRANCH  14  15
HETATM   15  O   UNL     1     -39.385 -51.507  11.762  1.00  0.00    -0.392 OA
HETATM   16  H   UNL     1     -38.872 -50.967  12.385  1.00  0.00     0.210 HD
ENDBRANCH  14  15
BRANCH  14  17
HETATM   17  C   UNL     1     -41.520 -52.469  12.333  1.00  0.00     0.303 C 
BRANCH  17  18
HETATM   18  N   UNL     1     -42.843 -52.562  11.721  1.00  0.00     0.090 N 
HETATM   19  H   UNL     1     -42.756 -52.952  10.780  1.00  0.00     0.316 HD
BRANCH  18  20
HETATM   20  C   UNL     1     -43.732 -53.444  12.479  1.00  0.00     0.315 C 
BRANCH  20  21
HETATM   21  C   UNL     1     -44.702 -52.605  13.255  1.00  0.00     0.010 A 
HETATM   22  C   UNL     1     -45.996 -52.259  12.918  1.00  0.00     0.017 A 
HETATM   23  C   UNL     1     -46.626 -51.467  13.920  1.00  0.00     0.008 A 
HETATM   24  C   UNL     1     -45.792 -51.236  14.992  1.00  0.00     0.050 A 
HETATM   25  S   UNL     1     -44.261 -51.966  14.785  1.00  0.00    -0.105 SA
ENDBRANCH  20  21
ENDBRANCH  18  20
ENDBRANCH  17  18
ENDBRANCH  14  17
ENDBRANCH   1  14
TORSDOF 7
ENDMDL
MODEL 8
REMARK VINA RESULT:      -5.9      4.034      5.903
REMARK  7 active torsions:
REMARK  status: ('A' for Active; 'I' for Inactive)
REMARK    1  A    between atoms: N_8  and  C_9 
REMARK    2  A    between atoms: C_9  and  C_10 
REMARK    3  A    between atoms: C_10  and  O_11 
REMARK    4  A    between atoms: C_10  and  C_12 
REMARK    5  A    between atoms: C_12  and  N_13 
REMARK    6  A    between atoms: N_13  and  C_14 
REMARK    7  A    between atoms: C_14  and  C_15 
ROOT
HETATM    1  C   UNL     1     -42.485 -51.281  13.465  1.00  0.00     0.163 C 
ENDROOT
BRANCH   1   2
HETATM    2  N   UNL     1     -43.865 -51.708  13.610  1.00  0.00    -0.339 N 
HETATM    3  C   UNL     1     -44.529 -52.515  12.729  1.00  0.00     0.184 A 
HETATM    4  N   UNL     1     -45.759 -52.751  13.117  1.00  0.00    -0.350 N 
HETATM    5  C   UNL     1     -45.898 -52.065  14.299  1.00  0.00     0.060 A 
ATOM      6  HN  UNL     1     -46.461 -53.320  12.644  1.00  0.00     0.166 HD
HETATM    7  C   UNL     1     -47.006 -51.985  15.152  1.00  0.00     0.039 A 
HETATM    8  C   UNL     1     -44.733 -51.380  14.624  1.00  0.00     0.062 A 
HETATM    9  C   UNL     1     -46.928 -51.213  16.326  1.00  0.00    -0.054 A 
HETATM   10  C   UNL     1     -48.127 -51.160  17.234  1.00  0.00     0.049 C 
HETATM   11  C   UNL     1     -45.739 -50.514  16.633  1.00  0.00    -0.054 A 
HETATM   12  C   UNL     1     -44.621 -50.589  15.775  1.00  0.00     0.039 A 
HETATM   13  C   UNL     1     -45.636 -49.681  17.884  1.00  0.00     0.049 C 
ENDBRANCH   1   2
BRANCH   1  14
HETATM   14  C   UNL     1     -41.882 -51.699  12.114  1.00  0.00     0.164 C 
BRANCH  14  15
HETATM   15  O   UNL     1     -41.546 -50.556  11.316  1.00  0.00    -0.392 OA
HETATM   16  H   UNL     1     -41.958 -49.764  11.701  1.00  0.00     0.210 HD
ENDBRANCH  14  15
BRANCH  14  17
HETATM   17  C   UNL     1     -40.604 -52.546  12.296  1.00  0.00     0.303 C 
BRANCH  17  18
HETATM   18  N   UNL     1     -40.916 -53.960  12.485  1.00  0.00     0.090 N 
HETATM   19  H   UNL     1     -40.484 -54.507  11.738  1.00  0.00     0.316 HD
BRANCH  18  20
HETATM   20  C   UNL     1     -40.395 -54.466  13.756  1.00  0.00     0.315 C 
BRANCH  20  21
HETATM   21  C   UNL     1     -41.463 -54.345  14.801  1.00  0.00     0.010 A 
HETATM   22  C   UNL     1     -42.728 -54.903  14.802  1.00  0.00     0.017 A 
HETATM   23  C   UNL     1     -43.458 -54.591  15.984  1.00  0.00     0.008 A 
HETATM   24  C   UNL     1     -42.727 -53.807  16.849  1.00  0.00     0.050 A 
HETATM   25  S   UNL     1     -41.173 -53.449  16.234  1.00  0.00    -0.105 SA
ENDBRANCH  20  21
ENDBRANCH  18  20
ENDBRANCH  17  18
ENDBRANCH  14  17
ENDBRANCH   1  14
TORSDOF 7
ENDMDL
MODEL 9
REMARK VINA RESULT:      -5.8      3.484      7.346
REMARK  7 active torsions:
REMARK  status: ('A' for Active; 'I' for Inactive)
REMARK    1  A    between atoms: N_8  and  C_9 
REMARK    2  A    between atoms: C_9  and  C_10 
REMARK    3  A    between atoms: C_10  and  O_11 
REMARK    4  A    between atoms: C_10  and  C_12 
REMARK    5  A    between atoms: C_12  and  N_13 
REMARK    6  A    between atoms: N_13  and  C_14 
REMARK    7  A    between atoms: C_14  and  C_15 
ROOT
HETATM    1  C   UNL     1     -39.332 -52.633  14.028  1.00  0.00     0.163 C 
ENDROOT
BRANCH   1   2
HETATM    2  N   UNL     1     -39.978 -51.816  13.017  1.00  0.00    -0.339 N 
HETATM    3  C   UNL     1     -40.820 -52.292  12.051  1.00  0.00     0.184 A 
HETATM    4  N   UNL     1     -41.271 -51.330  11.282  1.00  0.00    -0.350 N 
HETATM    5  C   UNL     1     -40.694 -50.183  11.770  1.00  0.00     0.060 A 
ATOM      6  HN  UNL     1     -41.911 -51.415  10.492  1.00  0.00     0.166 HD
HETATM    7  C   UNL     1     -40.844 -48.861  11.333  1.00  0.00     0.039 A 
HETATM    8  C   UNL     1     -39.857 -50.458  12.846  1.00  0.00     0.062 A 
HETATM    9  C   UNL     1     -40.148 -47.828  11.987  1.00  0.00    -0.054 A 
HETATM   10  C   UNL     1     -40.344 -46.413  11.509  1.00  0.00     0.049 C 
HETATM   11  C   UNL     1     -39.293 -48.128  13.071  1.00  0.00    -0.054 A 
HETATM   12  C   UNL     1     -39.135 -49.459  13.512  1.00  0.00     0.039 A 
HETATM   13  C   UNL     1     -38.538 -47.036  13.783  1.00  0.00     0.049 C 
ENDBRANCH   1   2
BRANCH   1  14
HETATM   14  C   UNL     1     -39.780 -54.102  13.969  1.00  0.00     0.164 C 
BRANCH  14  15
HETATM   15  O   UNL     1     -38.740 -54.945  13.455  1.00  0.00    -0.392 OA
HETATM   16  H   UNL     1     -37.895 -54.466  13.484  1.00  0.00     0.210 HD
ENDBRANCH  14  15
BRANCH  14  17
HETATM   17  C   UNL     1     -40.181 -54.634  15.362  1.00  0.00     0.303 C 
BRANCH  17  18
HETATM   18  N   UNL     1     -41.578 -55.059  15.396  1.00  0.00     0.090 N 
HETATM   19  H   UNL     1     -41.684 -55.830  16.057  1.00  0.00     0.316 HD
BRANCH  18  20
HETATM   20  C   UNL     1     -42.464 -53.980  15.838  1.00  0.00     0.315 C 
BRANCH  20  21
HETATM   21  C   UNL     1     -43.837 -54.223  15.289  1.00  0.00     0.010 A 
HETATM   22  C   UNL     1     -44.193 -54.929  14.155  1.00  0.00     0.017 A 
HETATM   23  C   UNL     1     -45.603 -54.972  13.963  1.00  0.00     0.008 A 
HETATM   24  C   UNL     1     -46.279 -54.301  14.958  1.00  0.00     0.050 A 
HETATM   25  S   UNL     1     -45.217 -53.621  16.110  1.00  0.00    -0.105 SA
ENDBRANCH  20  21
ENDBRANCH  18  20
ENDBRANCH  17  18
ENDBRANCH  14  17
ENDBRANCH   1  14
TORSDOF 7
ENDMDL
