MODEL 1
REMARK VINA RESULT:      -7.2      0.000      0.000
REMARK  3 active torsions:
REMARK  status: ('A' for Active; 'I' for Inactive)
REMARK    1  A    between atoms: C_4  and  N_9 
REMARK       I    between atoms: N_9  and  C_10 
REMARK       I    between atoms: C_10  and  N_12 
REMARK    2  A    between atoms: N_12  and  C_13 
REMARK    3  A    between atoms: C_15  and  C_19 
ROOT
HETATM    1  N   UNL     1     -42.154 -49.021  11.073  1.00  0.00    -0.337 N 
HETATM    2  C   UNL     1     -40.999 -49.584  11.521  1.00  0.00     0.322 C 
HETATM    3  O   UNL     1     -39.899 -49.048  11.427  1.00  0.00    -0.247 OA
HETATM    4  N   UNL     1     -41.120 -50.769  12.191  1.00  0.00    -0.293 N 
HETATM    5  H   UNL     1     -42.944 -49.654  10.981  1.00  0.00     0.164 HD
HETATM    6  H   UNL     1     -40.279 -51.080  12.648  1.00  0.00     0.172 HD
ENDROOT
BRANCH   1   7
HETATM    7  C   UNL     1     -42.207 -47.743  10.401  1.00  0.00     0.104 C 
HETATM    8  C   UNL     1     -42.513 -46.612  11.389  1.00  0.00     0.150 C 
HETATM    9  N   UNL     1     -42.568 -45.328  10.708  1.00  0.00    -0.355 N 
HETATM   10  C   UNL     1     -42.203 -44.133  11.439  1.00  0.00     0.152 C 
HETATM   11  C   UNL     1     -43.376 -45.194   9.584  1.00  0.00     0.219 C 
HETATM   12  C   UNL     1     -43.349 -46.381   8.637  1.00  0.00     0.105 C 
HETATM   13  O   UNL     1     -43.933 -44.144   9.276  1.00  0.00    -0.273 OA
HETATM   14  C   UNL     1     -43.278 -47.741   9.310  1.00  0.00     0.036 C 
ENDBRANCH   1   7
BRANCH   4  15
HETATM   15  C   UNL     1     -42.276 -51.498  12.373  1.00  0.00     0.132 A 
HETATM   16  C   UNL     1     -43.344 -51.116  13.216  1.00  0.00     0.086 A 
HETATM   17  C   UNL     1     -44.290 -52.095  13.038  1.00  0.00     0.087 A 
HETATM   18  O   UNL     1     -43.803 -53.030  12.183  1.00  0.00    -0.240 OA
HETATM   19  N   UNL     1     -42.548 -52.657  11.765  1.00  0.00    -0.245 N 
ATOM     20  HN  UNL     1     -41.943 -53.165  11.119  1.00  0.00     0.196 HD
BRANCH  17  21
HETATM   21  C   UNL     1     -45.687 -52.299  13.558  1.00  0.00     0.000 C 
HETATM   22  C   UNL     1     -45.868 -53.775  13.957  1.00  0.00     0.021 C 
HETATM   23  C   UNL     1     -45.966 -51.420  14.793  1.00  0.00     0.021 C 
HETATM   24  C   UNL     1     -46.696 -51.932  12.458  1.00  0.00     0.021 C 
ENDBRANCH  17  21
ENDBRANCH   4  15
TORSDOF 3
ENDMDL
MODEL 2
REMARK VINA RESULT:      -6.4      4.336      5.135
REMARK  3 active torsions:
REMARK  status: ('A' for Active; 'I' for Inactive)
REMARK    1  A    between atoms: C_4  and  N_9 
REMARK       I    between atoms: N_9  and  C_10 
REMARK       I    between atoms: C_10  and  N_12 
REMARK    2  A    between atoms: N_12  and  C_13 
REMARK    3  A    between atoms: C_15  and  C_19 
ROOT
HETATM    1  N   UNL     1     -40.468 -52.301  13.233  1.00  0.00    -0.337 N 
HETATM    2  C   UNL     1     -40.348 -53.648  13.391  1.00  0.00     0.322 C 
HETATM    3  O   UNL     1     -39.277 -54.220  13.561  1.00  0.00    -0.247 OA
HETATM    4  N   UNL     1     -41.513 -54.359  13.451  1.00  0.00    -0.293 N 
HETATM    5  H   UNL     1     -41.356 -51.981  12.856  1.00  0.00     0.164 HD
HETATM    6  H   UNL     1     -41.405 -55.320  13.728  1.00  0.00     0.172 HD
ENDROOT
BRANCH   1   7
HETATM    7  C   UNL     1     -39.339 -51.400  13.211  1.00  0.00     0.104 C 
HETATM    8  C   UNL     1     -38.936 -50.986  14.630  1.00  0.00     0.150 C 
HETATM    9  N   UNL     1     -37.801 -50.076  14.604  1.00  0.00    -0.355 N 
HETATM   10  C   UNL     1     -36.884 -50.070  15.723  1.00  0.00     0.152 C 
HETATM   11  C   UNL     1     -37.857 -48.950  13.789  1.00  0.00     0.219 C 
HETATM   12  C   UNL     1     -38.478 -49.184  12.423  1.00  0.00     0.105 C 
HETATM   13  O   UNL     1     -37.299 -47.892  14.064  1.00  0.00    -0.273 OA
HETATM   14  C   UNL     1     -39.659 -50.140  12.406  1.00  0.00     0.036 C 
ENDBRANCH   1   7
BRANCH   4  15
HETATM   15  C   UNL     1     -42.789 -53.867  13.271  1.00  0.00     0.132 A 
HETATM   16  C   UNL     1     -43.600 -53.337  14.300  1.00  0.00     0.086 A 
HETATM   17  C   UNL     1     -44.740 -52.919  13.658  1.00  0.00     0.087 A 
HETATM   18  O   UNL     1     -44.642 -53.223  12.340  1.00  0.00    -0.240 OA
HETATM   19  N   UNL     1     -43.423 -53.811  12.095  1.00  0.00    -0.245 N 
ATOM     20  HN  UNL     1     -43.073 -54.140  11.196  1.00  0.00     0.196 HD
BRANCH  17  21
HETATM   21  C   UNL     1     -45.987 -52.209  14.110  1.00  0.00     0.000 C 
HETATM   22  C   UNL     1     -45.613 -51.145  15.158  1.00  0.00     0.021 C 
HETATM   23  C   UNL     1     -46.699 -51.510  12.935  1.00  0.00     0.021 C 
HETATM   24  C   UNL     1     -46.954 -53.230  14.731  1.00  0.00     0.021 C 
ENDBRANCH  17  21
ENDBRANCH   4  15
TORSDOF 3
ENDMDL
MODEL 3
REMARK VINA RESULT:      -6.4      2.216      7.271
REMARK  3 active torsions:
REMARK  status: ('A' for Active; 'I' for Inactive)
REMARK    1  A    between atoms: C_4  and  N_9 
REMARK       I    between atoms: N_9  and  C_10 
REMARK       I    between atoms: C_10  and  N_12 
REMARK    2  A    between atoms: N_12  and  C_13 
REMARK    3  A    between atoms: C_15  and  C_19 
ROOT
HETATM    1  N   UNL     1     -42.291 -50.700  12.671  1.00  0.00    -0.337 N 
HETATM    2  C   UNL     1     -41.251 -51.253  11.988  1.00  0.00     0.322 C 
HETATM    3  O   UNL     1     -40.943 -52.438  12.062  1.00  0.00    -0.247 OA
HETATM    4  N   UNL     1     -40.595 -50.436  11.112  1.00  0.00    -0.293 N 
HETATM    5  H   UNL     1     -42.291 -49.685  12.723  1.00  0.00     0.164 HD
HETATM    6  H   UNL     1     -39.942 -50.905  10.507  1.00  0.00     0.172 HD
ENDROOT
BRANCH   1   7
HETATM    7  C   UNL     1     -43.125 -51.442  13.588  1.00  0.00     0.104 C 
HETATM    8  C   UNL     1     -43.956 -52.496  12.849  1.00  0.00     0.150 C 
HETATM    9  N   UNL     1     -44.796 -53.238  13.775  1.00  0.00    -0.355 N 
HETATM   10  C   UNL     1     -45.140 -54.609  13.463  1.00  0.00     0.152 C 
HETATM   11  C   UNL     1     -45.611 -52.538  14.657  1.00  0.00     0.219 C 
HETATM   12  C   UNL     1     -44.971 -51.307  15.275  1.00  0.00     0.105 C 
HETATM   13  O   UNL     1     -46.695 -52.959  15.053  1.00  0.00    -0.273 OA
HETATM   14  C   UNL     1     -44.074 -50.511  14.342  1.00  0.00     0.036 C 
ENDBRANCH   1   7
BRANCH   4  15
HETATM   15  C   UNL     1     -40.815 -49.088  10.921  1.00  0.00     0.132 A 
HETATM   16  C   UNL     1     -40.196 -48.057  11.664  1.00  0.00     0.086 A 
HETATM   17  C   UNL     1     -40.659 -46.896  11.094  1.00  0.00     0.087 A 
HETATM   18  O   UNL     1     -41.536 -47.208  10.107  1.00  0.00    -0.240 OA
HETATM   19  N   UNL     1     -41.633 -48.575   9.995  1.00  0.00    -0.245 N 
ATOM     20  HN  UNL     1     -42.213 -49.095   9.336  1.00  0.00     0.196 HD
BRANCH  17  21
HETATM   21  C   UNL     1     -40.373 -45.438  11.327  1.00  0.00     0.000 C 
HETATM   22  C   UNL     1     -41.704 -44.674  11.449  1.00  0.00     0.021 C 
HETATM   23  C   UNL     1     -39.561 -45.218  12.619  1.00  0.00     0.021 C 
HETATM   24  C   UNL     1     -39.567 -44.884  10.141  1.00  0.00     0.021 C 
ENDBRANCH  17  21
ENDBRANCH   4  15
TORSDOF 3
ENDMDL
MODEL 4
REMARK VINA RESULT:      -6.4      2.414      7.508
REMARK  3 active torsions:
REMARK  status: ('A' for Active; 'I' for Inactive)
REMARK    1  A    between atoms: C_4  and  N_9 
REMARK       I    between atoms: N_9  and  C_10 
REMARK       I    between atoms: C_10  and  N_12 
REMARK    2  A    between atoms: N_12  and  C_13 
REMARK    3  A    between atoms: C_15  and  C_19 
ROOT
HETATM    1  N   UNL     1     -42.261 -51.080  12.377  1.00  0.00    -0.337 N 
HETATM    2  C   UNL     1     -41.064 -51.483  11.869  1.00  0.00     0.322 C 
HETATM    3  O   UNL     1     -40.645 -52.633  11.946  1.00  0.00    -0.247 OA
HETATM    4  N   UNL     1     -40.359 -50.551  11.162  1.00  0.00    -0.293 N 
HETATM    5  H   UNL     1     -42.382 -50.075  12.473  1.00  0.00     0.164 HD
HETATM    6  H   UNL     1     -39.563 -50.914  10.665  1.00  0.00     0.172 HD
ENDROOT
BRANCH   1   7
HETATM    7  C   UNL     1     -43.156 -51.958  13.096  1.00  0.00     0.104 C 
HETATM    8  C   UNL     1     -42.491 -52.505  14.365  1.00  0.00     0.150 C 
HETATM    9  N   UNL     1     -43.394 -53.390  15.083  1.00  0.00    -0.355 N 
HETATM   10  C   UNL     1     -43.273 -53.493  16.522  1.00  0.00     0.152 C 
HETATM   11  C   UNL     1     -44.009 -54.430  14.396  1.00  0.00     0.219 C 
HETATM   12  C   UNL     1     -44.496 -54.071  13.003  1.00  0.00     0.105 C 
HETATM   13  O   UNL     1     -44.302 -55.502  14.918  1.00  0.00    -0.273 OA
HETATM   14  C   UNL     1     -43.587 -53.136  12.223  1.00  0.00     0.036 C 
ENDBRANCH   1   7
BRANCH   4  15
HETATM   15  C   UNL     1     -40.689 -49.222  10.993  1.00  0.00     0.132 A 
HETATM   16  C   UNL     1     -40.110 -48.152  11.711  1.00  0.00     0.086 A 
HETATM   17  C   UNL     1     -40.688 -47.026  11.176  1.00  0.00     0.087 A 
HETATM   18  O   UNL     1     -41.591 -47.399  10.234  1.00  0.00    -0.240 OA
HETATM   19  N   UNL     1     -41.591 -48.768  10.116  1.00  0.00    -0.245 N 
ATOM     20  HN  UNL     1     -42.164 -49.328   9.485  1.00  0.00     0.196 HD
BRANCH  17  21
HETATM   21  C   UNL     1     -40.500 -45.552  11.404  1.00  0.00     0.000 C 
HETATM   22  C   UNL     1     -39.652 -44.965  10.261  1.00  0.00     0.021 C 
HETATM   23  C   UNL     1     -41.850 -44.808  11.445  1.00  0.00     0.021 C 
HETATM   24  C   UNL     1     -39.780 -45.335  12.746  1.00  0.00     0.021 C 
ENDBRANCH  17  21
ENDBRANCH   4  15
TORSDOF 3
ENDMDL
MODEL 5
REMARK VINA RESULT:      -6.2      3.968      5.619
REMARK  3 active torsions:
REMARK  status: ('A' for Active; 'I' for Inactive)
REMARK    1  A    between atoms: C_4  and  N_9 
REMARK       I    between atoms: N_9  and  C_10 
REMARK       I    between atoms: C_10  and  N_12 
REMARK    2  A    between atoms: N_12  and  C_13 
REMARK    3  A    between atoms: C_15  and  C_19 
ROOT
HETATM    1  N   UNL     1     -39.408 -50.618  13.085  1.00  0.00    -0.337 N 
HETATM    2  C   UNL     1     -39.888 -50.476  11.819  1.00  0.00     0.322 C 
HETATM    3  O   UNL     1     -39.499 -49.615  11.036  1.00  0.00    -0.247 OA
HETATM    4  N   UNL     1     -40.783 -51.418  11.399  1.00  0.00    -0.293 N 
HETATM    5  H   UNL     1     -39.973 -51.191  13.706  1.00  0.00     0.164 HD
HETATM    6  H   UNL     1     -40.998 -51.385  10.416  1.00  0.00     0.172 HD
ENDROOT
BRANCH   1   7
HETATM    7  C   UNL     1     -38.411 -49.745  13.660  1.00  0.00     0.104 C 
HETATM    8  C   UNL     1     -37.777 -50.375  14.904  1.00  0.00     0.150 C 
HETATM    9  N   UNL     1     -36.777 -49.492  15.482  1.00  0.00    -0.355 N 
HETATM   10  C   UNL     1     -35.658 -50.072  16.194  1.00  0.00     0.152 C 
HETATM   11  C   UNL     1     -37.118 -48.171  15.753  1.00  0.00     0.219 C 
HETATM   12  C   UNL     1     -37.972 -47.504  14.689  1.00  0.00     0.105 C 
HETATM   13  O   UNL     1     -36.633 -47.526  16.679  1.00  0.00    -0.273 OA
HETATM   14  C   UNL     1     -39.022 -48.399  14.051  1.00  0.00     0.036 C 
ENDBRANCH   1   7
BRANCH   4  15
HETATM   15  C   UNL     1     -41.323 -52.437  12.155  1.00  0.00     0.132 A 
HETATM   16  C   UNL     1     -42.450 -52.306  12.997  1.00  0.00     0.086 A 
HETATM   17  C   UNL     1     -42.659 -53.570  13.491  1.00  0.00     0.087 A 
HETATM   18  O   UNL     1     -41.692 -54.396  13.018  1.00  0.00    -0.240 OA
HETATM   19  N   UNL     1     -40.859 -53.692  12.181  1.00  0.00    -0.245 N 
ATOM     20  HN  UNL     1     -40.048 -54.054  11.679  1.00  0.00     0.196 HD
BRANCH  17  21
HETATM   21  C   UNL     1     -43.708 -54.178  14.382  1.00  0.00     0.000 C 
HETATM   22  C   UNL     1     -44.241 -53.102  15.345  1.00  0.00     0.021 C 
HETATM   23  C   UNL     1     -44.892 -54.735  13.565  1.00  0.00     0.021 C 
HETATM   24  C   UNL     1     -43.084 -55.329  15.186  1.00  0.00     0.021 C 
ENDBRANCH  17  21
ENDBRANCH   4  15
TORSDOF 3
ENDMDL
MODEL 6
REMARK VINA RESULT:      -6.1      2.749      7.504
REMARK  3 active torsions:
REMARK  status: ('A' for Active; 'I' for Inactive)
REMARK    1  A    between atoms: C_4  and  N_9 
REMARK       I    between atoms: N_9  and  C_10 
REMARK       I    between atoms: C_10  and  N_12 
REMARK    2  A    between atoms: N_12  and  C_13 
REMARK    3  A    between atoms: C_15  and  C_19 
ROOT
HETATM    1  N   UNL     1     -41.335 -52.084  13.258  1.00  0.00    -0.337 N 
HETATM    2  C   UNL     1     -40.008 -52.210  12.979  1.00  0.00     0.322 C 
HETATM    3  O   UNL     1     -39.327 -53.166  13.334  1.00  0.00    -0.247 OA
HETATM    4  N   UNL     1     -39.460 -51.247  12.181  1.00  0.00    -0.293 N 
HETATM    5  H   UNL     1     -41.722 -51.152  13.133  1.00  0.00     0.164 HD
HETATM    6  H   UNL     1     -38.528 -51.448  11.860  1.00  0.00     0.172 HD
ENDROOT
BRANCH   1   7
HETATM    7  C   UNL     1     -42.080 -53.047  14.036  1.00  0.00     0.104 C 
HETATM    8  C   UNL     1     -43.506 -53.205  13.499  1.00  0.00     0.150 C 
HETATM    9  N   UNL     1     -44.253 -54.173  14.286  1.00  0.00    -0.355 N 
HETATM   10  C   UNL     1     -45.302 -54.937  13.644  1.00  0.00     0.152 C 
HETATM   11  C   UNL     1     -44.290 -54.034  15.669  1.00  0.00     0.219 C 
HETATM   12  C   UNL     1     -42.971 -53.628  16.303  1.00  0.00     0.105 C 
HETATM   13  O   UNL     1     -45.248 -54.378  16.356  1.00  0.00    -0.273 OA
HETATM   14  C   UNL     1     -42.153 -52.627  15.504  1.00  0.00     0.036 C 
ENDBRANCH   1   7
BRANCH   4  15
HETATM   15  C   UNL     1     -40.087 -50.112  11.710  1.00  0.00     0.132 A 
HETATM   16  C   UNL     1     -40.212 -48.903  12.431  1.00  0.00     0.086 A 
HETATM   17  C   UNL     1     -40.840 -48.047  11.561  1.00  0.00     0.087 A 
HETATM   18  O   UNL     1     -41.119 -48.711  10.411  1.00  0.00    -0.240 OA
HETATM   19  N   UNL     1     -40.647 -49.999  10.501  1.00  0.00    -0.245 N 
ATOM     20  HN  UNL     1     -40.710 -50.726   9.787  1.00  0.00     0.196 HD
BRANCH  17  21
HETATM   21  C   UNL     1     -41.229 -46.595  11.628  1.00  0.00     0.000 C 
HETATM   22  C   UNL     1     -40.329 -45.785  10.678  1.00  0.00     0.021 C 
HETATM   23  C   UNL     1     -42.698 -46.382  11.213  1.00  0.00     0.021 C 
HETATM   24  C   UNL     1     -41.048 -46.089  13.069  1.00  0.00     0.021 C 
ENDBRANCH  17  21
ENDBRANCH   4  15
TORSDOF 3
ENDMDL
MODEL 7
REMARK VINA RESULT:      -6.1      2.344      2.941
REMARK  3 active torsions:
REMARK  status: ('A' for Active; 'I' for Inactive)
REMARK    1  A    between atoms: C_4  and  N_9 
REMARK       I    between atoms: N_9  and  C_10 
REMARK       I    between atoms: C_10  and  N_12 
REMARK    2  A    between atoms: N_12  and  C_13 
REMARK    3  A    between atoms: C_15  and  C_19 
ROOT
HETATM    1  N   UNL     1     -41.241 -50.664  12.318  1.00  0.00    -0.337 N 
HETATM    2  C   UNL     1     -40.564 -51.827  12.527  1.00  0.00     0.322 C 
HETATM    3  O   UNL     1     -39.340 -51.913  12.515  1.00  0.00    -0.247 OA
HETATM    4  N   UNL     1     -41.316 -52.919  12.854  1.00  0.00    -0.293 N 
HETATM    5  H   UNL     1     -42.230 -50.765  12.106  1.00  0.00     0.164 HD
HETATM    6  H   UNL     1     -40.786 -53.718  13.159  1.00  0.00     0.172 HD
ENDROOT
BRANCH   1   7
HETATM    7  C   UNL     1     -40.592 -49.408  12.024  1.00  0.00     0.104 C 
HETATM    8  C   UNL     1     -40.270 -48.638  13.309  1.00  0.00     0.150 C 
HETATM    9  N   UNL     1     -39.620 -47.373  13.008  1.00  0.00    -0.355 N 
HETATM   10  C   UNL     1     -38.690 -46.818  13.969  1.00  0.00     0.152 C 
HETATM   11  C   UNL     1     -40.209 -46.513  12.087  1.00  0.00     0.219 C 
HETATM   12  C   UNL     1     -40.797 -47.197  10.865  1.00  0.00     0.105 C 
HETATM   13  O   UNL     1     -40.115 -45.290  12.151  1.00  0.00    -0.273 OA
HETATM   14  C   UNL     1     -41.474 -48.530  11.136  1.00  0.00     0.036 C 
ENDBRANCH   1   7
BRANCH   4  15
HETATM   15  C   UNL     1     -42.693 -52.987  12.901  1.00  0.00     0.132 A 
HETATM   16  C   UNL     1     -43.500 -52.323  13.852  1.00  0.00     0.086 A 
HETATM   17  C   UNL     1     -44.788 -52.623  13.480  1.00  0.00     0.087 A 
HETATM   18  O   UNL     1     -44.756 -53.453  12.407  1.00  0.00    -0.240 OA
HETATM   19  N   UNL     1     -43.449 -53.679  12.042  1.00  0.00    -0.245 N 
ATOM     20  HN  UNL     1     -43.122 -54.258  11.269  1.00  0.00     0.196 HD
BRANCH  17  21
HETATM   21  C   UNL     1     -46.141 -52.210  13.991  1.00  0.00     0.000 C 
HETATM   22  C   UNL     1     -46.951 -51.592  12.837  1.00  0.00     0.021 C 
HETATM   23  C   UNL     1     -46.927 -53.412  14.552  1.00  0.00     0.021 C 
HETATM   24  C   UNL     1     -45.964 -51.174  15.112  1.00  0.00     0.021 C 
ENDBRANCH  17  21
ENDBRANCH   4  15
TORSDOF 3
ENDMDL
MODEL 8
REMARK VINA RESULT:      -5.8      2.046      2.472
REMARK  3 active torsions:
REMARK  status: ('A' for Active; 'I' for Inactive)
REMARK    1  A    between atoms: C_4  and  N_9 
REMARK       I    between atoms: N_9  and  C_10 
REMARK       I    between atoms: C_10  and  N_12 
REMARK    2  A    between atoms: N_12  and  C_13 
REMARK    3  A    between atoms: C_15  and  C_19 
ROOT
HETATM    1  N   UNL     1     -41.040 -49.613  12.162  1.00  0.00    -0.337 N 
HETATM    2  C   UNL     1     -39.991 -50.402  11.800  1.00  0.00     0.322 C 
HETATM    3  O   UNL     1     -38.899 -49.966  11.451  1.00  0.00    -0.247 OA
HETATM    4  N   UNL     1     -40.171 -51.750  11.933  1.00  0.00    -0.293 N 
HETATM    5  H   UNL     1     -41.947 -50.072  12.186  1.00  0.00     0.164 HD
HETATM    6  H   UNL     1     -39.336 -52.299  11.814  1.00  0.00     0.172 HD
ENDROOT
BRANCH   1   7
HETATM    7  C   UNL     1     -40.993 -48.169  12.139  1.00  0.00     0.104 C 
HETATM    8  C   UNL     1     -41.928 -47.570  13.195  1.00  0.00     0.150 C 
HETATM    9  N   UNL     1     -41.880 -46.117  13.167  1.00  0.00    -0.355 N 
HETATM   10  C   UNL     1     -42.127 -45.385  14.391  1.00  0.00     0.152 C 
HETATM   11  C   UNL     1     -42.064 -45.458  11.956  1.00  0.00     0.219 C 
HETATM   12  C   UNL     1     -41.377 -46.110  10.768  1.00  0.00     0.105 C 
HETATM   13  O   UNL     1     -42.583 -44.349  11.864  1.00  0.00    -0.273 OA
HETATM   14  C   UNL     1     -41.394 -47.629  10.767  1.00  0.00     0.036 C 
ENDBRANCH   1   7
BRANCH   4  15
HETATM   15  C   UNL     1     -41.333 -52.394  12.302  1.00  0.00     0.132 A 
HETATM   16  C   UNL     1     -41.547 -53.015  13.553  1.00  0.00     0.086 A 
HETATM   17  C   UNL     1     -42.844 -53.462  13.498  1.00  0.00     0.087 A 
HETATM   18  O   UNL     1     -43.360 -53.173  12.277  1.00  0.00    -0.240 OA
HETATM   19  N   UNL     1     -42.420 -52.504  11.530  1.00  0.00    -0.245 N 
ATOM     20  HN  UNL     1     -42.529 -52.158  10.576  1.00  0.00     0.196 HD
BRANCH  17  21
HETATM   21  C   UNL     1     -43.752 -54.145  14.485  1.00  0.00     0.000 C 
HETATM   22  C   UNL     1     -44.936 -54.776  13.731  1.00  0.00     0.021 C 
HETATM   23  C   UNL     1     -43.015 -55.256  15.258  1.00  0.00     0.021 C 
HETATM   24  C   UNL     1     -44.273 -53.109  15.494  1.00  0.00     0.021 C 
ENDBRANCH  17  21
ENDBRANCH   4  15
TORSDOF 3
ENDMDL
MODEL 9
REMARK VINA RESULT:      -5.8      3.211      4.402
REMARK  3 active torsions:
REMARK  status: ('A' for Active; 'I' for Inactive)
REMARK    1  A    between atoms: C_4  and  N_9 
REMARK       I    between atoms: N_9  and  C_10 
REMARK       I    between atoms: C_10  and  N_12 
REMARK    2  A    between atoms: N_12  and  C_13 
REMARK    3  A    between atoms: C_15  and  C_19 
ROOT
HETATM    1  N   UNL     1     -41.330 -48.508  12.646  1.00  0.00    -0.337 N 
HETATM    2  C   UNL     1     -42.494 -48.930  12.079  1.00  0.00     0.322 C 
HETATM    3  O   UNL     1     -43.357 -48.170  11.652  1.00  0.00    -0.247 OA
HETATM    4  N   UNL     1     -42.633 -50.278  11.908  1.00  0.00    -0.293 N 
HETATM    5  H   UNL     1     -40.821 -49.209  13.177  1.00  0.00     0.164 HD
HETATM    6  H   UNL     1     -43.422 -50.551  11.346  1.00  0.00     0.172 HD
ENDROOT
BRANCH   1   7
HETATM    7  C   UNL     1     -41.000 -47.115  12.841  1.00  0.00     0.104 C 
HETATM    8  C   UNL     1     -40.288 -46.539  11.613  1.00  0.00     0.150 C 
HETATM    9  N   UNL     1     -39.955 -45.138  11.815  1.00  0.00    -0.355 N 
HETATM   10  C   UNL     1     -39.894 -44.261  10.664  1.00  0.00     0.152 C 
HETATM   11  C   UNL     1     -39.269 -44.766  12.966  1.00  0.00     0.219 C 
HETATM   12  C   UNL     1     -39.726 -45.468  14.233  1.00  0.00     0.105 C 
HETATM   13  O   UNL     1     -38.481 -43.825  13.006  1.00  0.00    -0.273 OA
HETATM   14  C   UNL     1     -40.097 -46.931  14.061  1.00  0.00     0.036 C 
ENDBRANCH   1   7
BRANCH   4  15
HETATM   15  C   UNL     1     -41.762 -51.257  12.338  1.00  0.00     0.132 A 
HETATM   16  C   UNL     1     -41.699 -51.756  13.658  1.00  0.00     0.086 A 
HETATM   17  C   UNL     1     -40.747 -52.745  13.608  1.00  0.00     0.087 A 
HETATM   18  O   UNL     1     -40.235 -52.802  12.352  1.00  0.00    -0.240 OA
HETATM   19  N   UNL     1     -40.870 -51.877  11.557  1.00  0.00    -0.245 N 
ATOM     20  HN  UNL     1     -40.695 -51.698  10.568  1.00  0.00     0.196 HD
BRANCH  17  21
HETATM   21  C   UNL     1     -40.217 -53.730  14.612  1.00  0.00     0.000 C 
HETATM   22  C   UNL     1     -39.491 -52.969  15.736  1.00  0.00     0.021 C 
HETATM   23  C   UNL     1     -41.351 -54.566  15.240  1.00  0.00     0.021 C 
HETATM   24  C   UNL     1     -39.234 -54.685  13.915  1.00  0.00     0.021 C 
ENDBRANCH  17  21
ENDBRANCH   4  15
TORSDOF 3
ENDMDL
