MODEL 1
REMARK VINA RESULT:      -6.9      0.000      0.000
REMARK  5 active torsions:
REMARK  status: ('A' for Active; 'I' for Inactive)
REMARK    1  A    between atoms: C_6  and  N_7 
REMARK       I    between atoms: N_7  and  C_8 
REMARK       I    between atoms: C_8  and  N_10 
REMARK    2  A    between atoms: N_10  and  C_11 
REMARK    3  A    between atoms: C_11  and  C_12 
REMARK    4  A    between atoms: C_12  and  O_13 
REMARK    5  A    between atoms: C_12  and  C_14 
ROOT
HETATM    1  N   UNL     1     -40.518 -49.438  11.203  1.00  0.00    -0.295 N 
HETATM    2  C   UNL     1     -40.768 -50.680  11.678  1.00  0.00     0.321 C 
HETATM    3  O   UNL     1     -39.822 -51.425  11.927  1.00  0.00    -0.247 OA
HETATM    4  N   UNL     1     -42.072 -51.019  11.930  1.00  0.00    -0.340 N 
HETATM    5  H   UNL     1     -39.536 -49.214  11.179  1.00  0.00     0.172 HD
HETATM    6  H   UNL     1     -42.766 -50.486  11.402  1.00  0.00     0.164 HD
ENDROOT
BRANCH   1   7
HETATM    7  C   UNL     1     -41.432 -48.471  10.808  1.00  0.00     0.109 A 
HETATM    8  C   UNL     1     -41.743 -47.464  11.708  1.00  0.00     0.049 A 
HETATM    9  C   UNL     1     -42.695 -46.522  11.337  1.00  0.00     0.006 A 
HETATM   10  C   UNL     1     -43.278 -46.593  10.073  1.00  0.00     0.025 A 
HETATM   11  C   UNL     1     -42.890 -47.610   9.214  1.00  0.00     0.007 A 
HETATM   12  C   UNL     1     -43.477 -47.764   7.846  1.00  0.00     0.068 C 
HETATM   13  N   UNL     1     -41.984 -48.547   9.576  1.00  0.00    -0.346 N 
ATOM     14  HN  UNL     1     -41.721 -49.294   8.933  1.00  0.00     0.167 HD
ENDBRANCH   1   7
BRANCH   4  15
HETATM   15  C   UNL     1     -42.342 -52.370  12.338  1.00  0.00     0.156 C 
BRANCH  15  16
HETATM   16  C   UNL     1     -43.818 -52.786  12.517  1.00  0.00     0.140 C 
BRANCH  16  17
HETATM   17  O   UNL     1     -44.026 -54.158  12.186  1.00  0.00    -0.394 OA
HETATM   18  H   UNL     1     -43.291 -54.672  12.562  1.00  0.00     0.210 HD
ENDBRANCH  16  17
BRANCH  16  19
HETATM   19  C   UNL     1     -44.238 -52.484  13.988  1.00  0.00     0.016 C 
HETATM   20  C   UNL     1     -44.839 -53.699  14.730  1.00  0.00     0.007 C 
HETATM   21  C   UNL     1     -46.345 -53.845  14.587  1.00  0.00     0.000 C 
HETATM   22  C   UNL     1     -47.027 -52.585  15.082  1.00  0.00     0.000 C 
HETATM   23  C   UNL     1     -46.602 -51.393  14.232  1.00  0.00     0.000 C 
HETATM   24  C   UNL     1     -45.087 -51.209  14.176  1.00  0.00     0.007 C 
ENDBRANCH  16  19
ENDBRANCH  15  16
ENDBRANCH   4  15
TORSDOF 5
ENDMDL
MODEL 2
REMARK VINA RESULT:      -6.6      2.183      2.993
REMARK  5 active torsions:
REMARK  status: ('A' for Active; 'I' for Inactive)
REMARK    1  A    between atoms: C_6  and  N_7 
REMARK       I    between atoms: N_7  and  C_8 
REMARK       I    between atoms: C_8  and  N_10 
REMARK    2  A    between atoms: N_10  and  C_11 
REMARK    3  A    between atoms: C_11  and  C_12 
REMARK    4  A    between atoms: C_12  and  O_13 
REMARK    5  A    between atoms: C_12  and  C_14 
ROOT
HETATM    1  N   UNL     1     -40.350 -48.750  11.078  1.00  0.00    -0.295 N 
HETATM    2  C   UNL     1     -40.214 -50.036  11.475  1.00  0.00     0.321 C 
HETATM    3  O   UNL     1     -39.093 -50.457  11.757  1.00  0.00    -0.247 OA
HETATM    4  N   UNL     1     -41.351 -50.787  11.619  1.00  0.00    -0.340 N 
HETATM    5  H   UNL     1     -39.492 -48.225  11.133  1.00  0.00     0.172 HD
HETATM    6  H   UNL     1     -42.150 -50.468  11.068  1.00  0.00     0.164 HD
ENDROOT
BRANCH   1   7
HETATM    7  C   UNL     1     -41.504 -48.099  10.663  1.00  0.00     0.109 A 
HETATM    8  C   UNL     1     -42.156 -47.287  11.578  1.00  0.00     0.049 A 
HETATM    9  C   UNL     1     -43.339 -46.673  11.185  1.00  0.00     0.006 A 
HETATM   10  C   UNL     1     -43.813 -46.858   9.887  1.00  0.00     0.025 A 
HETATM   11  C   UNL     1     -43.087 -47.658   9.018  1.00  0.00     0.007 A 
HETATM   12  C   UNL     1     -43.534 -47.918   7.614  1.00  0.00     0.068 C 
HETATM   13  N   UNL     1     -41.948 -48.281   9.400  1.00  0.00    -0.346 N 
ATOM     14  HN  UNL     1     -41.436 -48.875   8.747  1.00  0.00     0.167 HD
ENDBRANCH   1   7
BRANCH   4  15
HETATM   15  C   UNL     1     -41.194 -52.178  11.944  1.00  0.00     0.156 C 
BRANCH  15  16
HETATM   16  C   UNL     1     -42.343 -52.871  12.709  1.00  0.00     0.140 C 
BRANCH  16  17
HETATM   17  O   UNL     1     -43.484 -53.077  11.877  1.00  0.00    -0.394 OA
HETATM   18  H   UNL     1     -43.289 -52.702  11.002  1.00  0.00     0.210 HD
ENDBRANCH  16  17
BRANCH  16  19
HETATM   19  C   UNL     1     -41.807 -54.217  13.286  1.00  0.00     0.016 C 
HETATM   20  C   UNL     1     -42.584 -54.722  14.522  1.00  0.00     0.007 C 
HETATM   21  C   UNL     1     -42.050 -54.219  15.853  1.00  0.00     0.000 C 
HETATM   22  C   UNL     1     -40.594 -54.614  15.997  1.00  0.00     0.000 C 
HETATM   23  C   UNL     1     -39.764 -53.961  14.898  1.00  0.00     0.000 C 
HETATM   24  C   UNL     1     -40.279 -54.275  13.495  1.00  0.00     0.007 C 
ENDBRANCH  16  19
ENDBRANCH  15  16
ENDBRANCH   4  15
TORSDOF 5
ENDMDL
MODEL 3
REMARK VINA RESULT:      -6.6      1.826      6.149
REMARK  5 active torsions:
REMARK  status: ('A' for Active; 'I' for Inactive)
REMARK    1  A    between atoms: C_6  and  N_7 
REMARK       I    between atoms: N_7  and  C_8 
REMARK       I    between atoms: C_8  and  N_10 
REMARK    2  A    between atoms: N_10  and  C_11 
REMARK    3  A    between atoms: C_11  and  C_12 
REMARK    4  A    between atoms: C_12  and  O_13 
REMARK    5  A    between atoms: C_12  and  C_14 
ROOT
HETATM    1  N   UNL     1     -42.914 -53.322  12.608  1.00  0.00    -0.295 N 
HETATM    2  C   UNL     1     -41.706 -52.734  12.451  1.00  0.00     0.321 C 
HETATM    3  O   UNL     1     -40.737 -53.432  12.157  1.00  0.00    -0.247 OA
HETATM    4  N   UNL     1     -41.639 -51.370  12.555  1.00  0.00    -0.340 N 
HETATM    5  H   UNL     1     -42.910 -54.303  12.377  1.00  0.00     0.172 HD
HETATM    6  H   UNL     1     -42.387 -50.942  13.104  1.00  0.00     0.164 HD
ENDROOT
BRANCH   1   7
HETATM    7  C   UNL     1     -44.111 -52.732  12.991  1.00  0.00     0.109 A 
HETATM    8  C   UNL     1     -44.285 -52.429  14.332  1.00  0.00     0.049 A 
HETATM    9  C   UNL     1     -45.501 -51.885  14.731  1.00  0.00     0.006 A 
HETATM   10  C   UNL     1     -46.485 -51.628  13.777  1.00  0.00     0.025 A 
HETATM   11  C   UNL     1     -46.223 -51.927  12.449  1.00  0.00     0.007 A 
HETATM   12  C   UNL     1     -47.232 -51.694  11.367  1.00  0.00     0.068 C 
HETATM   13  N   UNL     1     -45.054 -52.481  12.056  1.00  0.00    -0.346 N 
ATOM     14  HN  UNL     1     -44.887 -52.704  11.074  1.00  0.00     0.167 HD
ENDBRANCH   1   7
BRANCH   4  15
HETATM   15  C   UNL     1     -40.340 -50.759  12.487  1.00  0.00     0.156 C 
BRANCH  15  16
HETATM   16  C   UNL     1     -40.139 -49.606  11.480  1.00  0.00     0.140 C 
BRANCH  16  17
HETATM   17  O   UNL     1     -40.550 -49.974  10.165  1.00  0.00    -0.394 OA
HETATM   18  H   UNL     1     -41.072 -50.791  10.231  1.00  0.00     0.210 HD
ENDBRANCH  16  17
BRANCH  16  19
HETATM   19  C   UNL     1     -40.925 -48.362  11.996  1.00  0.00     0.016 C 
HETATM   20  C   UNL     1     -42.319 -48.190  11.353  1.00  0.00     0.007 C 
HETATM   21  C   UNL     1     -42.329 -47.365  10.077  1.00  0.00     0.000 C 
HETATM   22  C   UNL     1     -41.749 -45.993  10.356  1.00  0.00     0.000 C 
HETATM   23  C   UNL     1     -40.298 -46.120  10.804  1.00  0.00     0.000 C 
HETATM   24  C   UNL     1     -40.124 -47.043  12.009  1.00  0.00     0.007 C 
ENDBRANCH  16  19
ENDBRANCH  15  16
ENDBRANCH   4  15
TORSDOF 5
ENDMDL
MODEL 4
REMARK VINA RESULT:      -6.6      1.311      1.826
REMARK  5 active torsions:
REMARK  status: ('A' for Active; 'I' for Inactive)
REMARK    1  A    between atoms: C_6  and  N_7 
REMARK       I    between atoms: N_7  and  C_8 
REMARK       I    between atoms: C_8  and  N_10 
REMARK    2  A    between atoms: N_10  and  C_11 
REMARK    3  A    between atoms: C_11  and  C_12 
REMARK    4  A    between atoms: C_12  and  O_13 
REMARK    5  A    between atoms: C_12  and  C_14 
ROOT
HETATM    1  N   UNL     1     -40.110 -50.900  11.390  1.00  0.00    -0.295 N 
HETATM    2  C   UNL     1     -40.788 -51.799  12.139  1.00  0.00     0.321 C 
HETATM    3  O   UNL     1     -40.467 -52.985  12.084  1.00  0.00    -0.247 OA
HETATM    4  N   UNL     1     -41.757 -51.327  12.986  1.00  0.00    -0.340 N 
HETATM    5  H   UNL     1     -39.324 -51.303  10.905  1.00  0.00     0.172 HD
HETATM    6  H   UNL     1     -42.155 -50.423  12.724  1.00  0.00     0.164 HD
ENDROOT
BRANCH   1   7
HETATM    7  C   UNL     1     -40.346 -49.538  11.263  1.00  0.00     0.109 A 
HETATM    8  C   UNL     1     -39.501 -48.667  11.932  1.00  0.00     0.049 A 
HETATM    9  C   UNL     1     -39.762 -47.304  11.849  1.00  0.00     0.006 A 
HETATM   10  C   UNL     1     -40.832 -46.855  11.076  1.00  0.00     0.025 A 
HETATM   11  C   UNL     1     -41.612 -47.786  10.408  1.00  0.00     0.007 A 
HETATM   12  C   UNL     1     -42.785 -47.385   9.570  1.00  0.00     0.068 C 
HETATM   13  N   UNL     1     -41.381 -49.115  10.504  1.00  0.00    -0.346 N 
ATOM     14  HN  UNL     1     -41.975 -49.784  10.013  1.00  0.00     0.167 HD
ENDBRANCH   1   7
BRANCH   4  15
HETATM   15  C   UNL     1     -42.542 -52.292  13.705  1.00  0.00     0.156 C 
BRANCH  15  16
HETATM   16  C   UNL     1     -43.843 -52.797  13.043  1.00  0.00     0.140 C 
BRANCH  16  17
HETATM   17  O   UNL     1     -43.601 -53.903  12.175  1.00  0.00    -0.394 OA
HETATM   18  H   UNL     1     -43.846 -54.716  12.648  1.00  0.00     0.210 HD
ENDBRANCH  16  17
BRANCH  16  19
HETATM   19  C   UNL     1     -44.854 -53.168  14.171  1.00  0.00     0.016 C 
HETATM   20  C   UNL     1     -46.330 -52.888  13.807  1.00  0.00     0.007 C 
HETATM   21  C   UNL     1     -46.815 -51.493  14.165  1.00  0.00     0.000 C 
HETATM   22  C   UNL     1     -46.626 -51.256  15.650  1.00  0.00     0.000 C 
HETATM   23  C   UNL     1     -45.146 -51.329  16.007  1.00  0.00     0.000 C 
HETATM   24  C   UNL     1     -44.491 -52.639  15.574  1.00  0.00     0.007 C 
ENDBRANCH  16  19
ENDBRANCH  15  16
ENDBRANCH   4  15
TORSDOF 5
ENDMDL
MODEL 5
REMARK VINA RESULT:      -5.8      1.529      2.636
REMARK  5 active torsions:
REMARK  status: ('A' for Active; 'I' for Inactive)
REMARK    1  A    between atoms: C_6  and  N_7 
REMARK       I    between atoms: N_7  and  C_8 
REMARK       I    between atoms: C_8  and  N_10 
REMARK    2  A    between atoms: N_10  and  C_11 
REMARK    3  A    between atoms: C_11  and  C_12 
REMARK    4  A    between atoms: C_12  and  O_13 
REMARK    5  A    between atoms: C_12  and  C_14 
ROOT
HETATM    1  N   UNL     1     -41.147 -51.578  12.492  1.00  0.00    -0.295 N 
HETATM    2  C   UNL     1     -42.199 -52.423  12.589  1.00  0.00     0.321 C 
HETATM    3  O   UNL     1     -41.986 -53.629  12.699  1.00  0.00    -0.247 OA
HETATM    4  N   UNL     1     -43.456 -51.879  12.637  1.00  0.00    -0.340 N 
HETATM    5  H   UNL     1     -40.258 -52.038  12.606  1.00  0.00     0.172 HD
HETATM    6  H   UNL     1     -43.539 -50.949  12.222  1.00  0.00     0.164 HD
ENDROOT
BRANCH   1   7
HETATM    7  C   UNL     1     -41.167 -50.203  12.305  1.00  0.00     0.109 A 
HETATM    8  C   UNL     1     -40.603 -49.405  13.288  1.00  0.00     0.049 A 
HETATM    9  C   UNL     1     -40.664 -48.025  13.130  1.00  0.00     0.006 A 
HETATM   10  C   UNL     1     -41.252 -47.489  11.986  1.00  0.00     0.025 A 
HETATM   11  C   UNL     1     -41.765 -48.353  11.030  1.00  0.00     0.007 A 
HETATM   12  C   UNL     1     -42.423 -47.857   9.781  1.00  0.00     0.068 C 
HETATM   13  N   UNL     1     -41.733 -49.696  11.186  1.00  0.00    -0.346 N 
ATOM     14  HN  UNL     1     -42.127 -50.313  10.476  1.00  0.00     0.167 HD
ENDBRANCH   1   7
BRANCH   4  15
HETATM   15  C   UNL     1     -44.573 -52.783  12.640  1.00  0.00     0.156 C 
BRANCH  15  16
HETATM   16  C   UNL     1     -45.992 -52.172  12.639  1.00  0.00     0.140 C 
BRANCH  16  17
HETATM   17  O   UNL     1     -46.741 -52.574  11.493  1.00  0.00    -0.394 OA
HETATM   18  H   UNL     1     -47.681 -52.412  11.678  1.00  0.00     0.210 HD
ENDBRANCH  16  17
BRANCH  16  19
HETATM   19  C   UNL     1     -46.706 -52.588  13.962  1.00  0.00     0.016 C 
HETATM   20  C   UNL     1     -46.929 -51.419  14.948  1.00  0.00     0.007 C 
HETATM   21  C   UNL     1     -45.786 -51.188  15.922  1.00  0.00     0.000 C 
HETATM   22  C   UNL     1     -45.532 -52.454  16.716  1.00  0.00     0.000 C 
HETATM   23  C   UNL     1     -45.111 -53.581  15.781  1.00  0.00     0.000 C 
HETATM   24  C   UNL     1     -46.116 -53.832  14.659  1.00  0.00     0.007 C 
ENDBRANCH  16  19
ENDBRANCH  15  16
ENDBRANCH   4  15
TORSDOF 5
ENDMDL
MODEL 6
REMARK VINA RESULT:      -5.8      3.741      4.452
REMARK  5 active torsions:
REMARK  status: ('A' for Active; 'I' for Inactive)
REMARK    1  A    between atoms: C_6  and  N_7 
REMARK       I    between atoms: N_7  and  C_8 
REMARK       I    between atoms: C_8  and  N_10 
REMARK    2  A    between atoms: N_10  and  C_11 
REMARK    3  A    between atoms: C_11  and  C_12 
REMARK    4  A    between atoms: C_12  and  O_13 
REMARK    5  A    between atoms: C_12  and  C_14 
ROOT
HETATM    1  N   UNL     1     -39.242 -52.933  14.476  1.00  0.00    -0.295 N 
HETATM    2  C   UNL     1     -40.548 -53.279  14.402  1.00  0.00     0.321 C 
HETATM    3  O   UNL     1     -40.867 -54.450  14.602  1.00  0.00    -0.247 OA
HETATM    4  N   UNL     1     -41.463 -52.284  14.181  1.00  0.00    -0.340 N 
HETATM    5  H   UNL     1     -38.649 -53.689  14.781  1.00  0.00     0.172 HD
HETATM    6  H   UNL     1     -41.092 -51.451  13.719  1.00  0.00     0.164 HD
ENDROOT
BRANCH   1   7
HETATM    7  C   UNL     1     -38.669 -51.693  14.231  1.00  0.00     0.109 A 
HETATM    8  C   UNL     1     -38.450 -50.854  15.312  1.00  0.00     0.049 A 
HETATM    9  C   UNL     1     -37.923 -49.591  15.067  1.00  0.00     0.006 A 
HETATM   10  C   UNL     1     -37.599 -49.222  13.763  1.00  0.00     0.025 A 
HETATM   11  C   UNL     1     -37.815 -50.130  12.737  1.00  0.00     0.007 A 
HETATM   12  C   UNL     1     -37.506 -49.805  11.309  1.00  0.00     0.068 C 
HETATM   13  N   UNL     1     -38.351 -51.350  12.962  1.00  0.00    -0.346 N 
ATOM     14  HN  UNL     1     -38.513 -51.999  12.191  1.00  0.00     0.167 HD
ENDBRANCH   1   7
BRANCH   4  15
HETATM   15  C   UNL     1     -42.837 -52.669  14.004  1.00  0.00     0.156 C 
BRANCH  15  16
HETATM   16  C   UNL     1     -43.495 -52.376  12.638  1.00  0.00     0.140 C 
BRANCH  16  17
HETATM   17  O   UNL     1     -42.687 -52.829  11.553  1.00  0.00    -0.394 OA
HETATM   18  H   UNL     1     -43.264 -52.952  10.780  1.00  0.00     0.210 HD
ENDBRANCH  16  17
BRANCH  16  19
HETATM   19  C   UNL     1     -44.903 -53.045  12.618  1.00  0.00     0.016 C 
HETATM   20  C   UNL     1     -46.075 -52.040  12.690  1.00  0.00     0.007 C 
HETATM   21  C   UNL     1     -46.526 -51.694  14.099  1.00  0.00     0.000 C 
HETATM   22  C   UNL     1     -46.925 -52.962  14.829  1.00  0.00     0.000 C 
HETATM   23  C   UNL     1     -45.726 -53.894  14.951  1.00  0.00     0.000 C 
HETATM   24  C   UNL     1     -45.082 -54.218  13.605  1.00  0.00     0.007 C 
ENDBRANCH  16  19
ENDBRANCH  15  16
ENDBRANCH   4  15
TORSDOF 5
ENDMDL
MODEL 7
REMARK VINA RESULT:      -5.8      3.018      6.685
REMARK  5 active torsions:
REMARK  status: ('A' for Active; 'I' for Inactive)
REMARK    1  A    between atoms: C_6  and  N_7 
REMARK       I    between atoms: N_7  and  C_8 
REMARK       I    between atoms: C_8  and  N_10 
REMARK    2  A    between atoms: N_10  and  C_11 
REMARK    3  A    between atoms: C_11  and  C_12 
REMARK    4  A    between atoms: C_12  and  O_13 
REMARK    5  A    between atoms: C_12  and  C_14 
ROOT
HETATM    1  N   UNL     1     -43.511 -53.876  13.438  1.00  0.00    -0.295 N 
HETATM    2  C   UNL     1     -42.293 -53.566  12.939  1.00  0.00     0.321 C 
HETATM    3  O   UNL     1     -41.431 -54.441  12.883  1.00  0.00    -0.247 OA
HETATM    4  N   UNL     1     -42.105 -52.301  12.445  1.00  0.00    -0.340 N 
HETATM    5  H   UNL     1     -43.615 -54.856  13.648  1.00  0.00     0.172 HD
HETATM    6  H   UNL     1     -42.736 -51.593  12.825  1.00  0.00     0.164 HD
ENDROOT
BRANCH   1   7
HETATM    7  C   UNL     1     -44.594 -53.031  13.641  1.00  0.00     0.109 A 
HETATM    8  C   UNL     1     -45.476 -52.843  12.588  1.00  0.00     0.049 A 
HETATM    9  C   UNL     1     -46.534 -51.960  12.768  1.00  0.00     0.006 A 
HETATM   10  C   UNL     1     -46.699 -51.324  13.998  1.00  0.00     0.025 A 
HETATM   11  C   UNL     1     -45.795 -51.591  15.015  1.00  0.00     0.007 A 
HETATM   12  C   UNL     1     -45.894 -50.939  16.358  1.00  0.00     0.068 C 
HETATM   13  N   UNL     1     -44.747 -52.428  14.841  1.00  0.00    -0.346 N 
ATOM     14  HN  UNL     1     -44.086 -52.600  15.599  1.00  0.00     0.167 HD
ENDBRANCH   1   7
BRANCH   4  15
HETATM   15  C   UNL     1     -40.783 -51.946  12.007  1.00  0.00     0.156 C 
BRANCH  15  16
HETATM   16  C   UNL     1     -39.744 -51.573  13.087  1.00  0.00     0.140 C 
BRANCH  16  17
HETATM   17  O   UNL     1     -38.955 -52.697  13.474  1.00  0.00    -0.394 OA
HETATM   18  H   UNL     1     -39.529 -53.481  13.473  1.00  0.00     0.210 HD
ENDBRANCH  16  17
BRANCH  16  19
HETATM   19  C   UNL     1     -38.856 -50.416  12.535  1.00  0.00     0.016 C 
HETATM   20  C   UNL     1     -37.487 -50.284  13.240  1.00  0.00     0.007 C 
HETATM   21  C   UNL     1     -37.489 -49.376  14.458  1.00  0.00     0.000 C 
HETATM   22  C   UNL     1     -37.966 -47.994  14.059  1.00  0.00     0.000 C 
HETATM   23  C   UNL     1     -39.398 -48.065  13.543  1.00  0.00     0.000 C 
HETATM   24  C   UNL     1     -39.570 -49.055  12.393  1.00  0.00     0.007 C 
ENDBRANCH  16  19
ENDBRANCH  15  16
ENDBRANCH   4  15
TORSDOF 5
ENDMDL
MODEL 8
REMARK VINA RESULT:      -5.7      3.974      6.091
REMARK  5 active torsions:
REMARK  status: ('A' for Active; 'I' for Inactive)
REMARK    1  A    between atoms: C_6  and  N_7 
REMARK       I    between atoms: N_7  and  C_8 
REMARK       I    between atoms: C_8  and  N_10 
REMARK    2  A    between atoms: N_10  and  C_11 
REMARK    3  A    between atoms: C_11  and  C_12 
REMARK    4  A    between atoms: C_12  and  O_13 
REMARK    5  A    between atoms: C_12  and  C_14 
ROOT
HETATM    1  N   UNL     1     -42.999 -45.674  10.666  1.00  0.00    -0.295 N 
HETATM    2  C   UNL     1     -42.981 -47.022  10.772  1.00  0.00     0.321 C 
HETATM    3  O   UNL     1     -43.733 -47.686  10.059  1.00  0.00    -0.247 OA
HETATM    4  N   UNL     1     -42.065 -47.586  11.620  1.00  0.00    -0.340 N 
HETATM    5  H   UNL     1     -43.595 -45.343   9.924  1.00  0.00     0.172 HD
HETATM    6  H   UNL     1     -41.740 -46.975  12.371  1.00  0.00     0.164 HD
ENDROOT
BRANCH   1   7
HETATM    7  C   UNL     1     -42.281 -44.746  11.408  1.00  0.00     0.109 A 
HETATM    8  C   UNL     1     -41.020 -44.390  10.959  1.00  0.00     0.049 A 
HETATM    9  C   UNL     1     -40.276 -43.500  11.725  1.00  0.00     0.006 A 
HETATM   10  C   UNL     1     -40.826 -42.969  12.890  1.00  0.00     0.025 A 
HETATM   11  C   UNL     1     -42.109 -43.346  13.257  1.00  0.00     0.007 A 
HETATM   12  C   UNL     1     -42.766 -42.831  14.499  1.00  0.00     0.068 C 
HETATM   13  N   UNL     1     -42.830 -44.231  12.532  1.00  0.00    -0.346 N 
ATOM     14  HN  UNL     1     -43.768 -44.505  12.826  1.00  0.00     0.167 HD
ENDBRANCH   1   7
BRANCH   4  15
HETATM   15  C   UNL     1     -42.116 -49.011  11.804  1.00  0.00     0.156 C 
BRANCH  15  16
HETATM   16  C   UNL     1     -40.830 -49.819  11.525  1.00  0.00     0.140 C 
BRANCH  16  17
HETATM   17  O   UNL     1     -40.558 -49.916  10.128  1.00  0.00    -0.394 OA
HETATM   18  H   UNL     1     -39.832 -50.550  10.007  1.00  0.00     0.210 HD
ENDBRANCH  16  17
BRANCH  16  19
HETATM   19  C   UNL     1     -39.651 -49.143  12.290  1.00  0.00     0.016 C 
HETATM   20  C   UNL     1     -38.264 -49.406  11.662  1.00  0.00     0.007 C 
HETATM   21  C   UNL     1     -37.563 -50.653  12.175  1.00  0.00     0.000 C 
HETATM   22  C   UNL     1     -37.407 -50.563  13.680  1.00  0.00     0.000 C 
HETATM   23  C   UNL     1     -38.778 -50.505  14.345  1.00  0.00     0.000 C 
HETATM   24  C   UNL     1     -39.649 -49.367  13.817  1.00  0.00     0.007 C 
ENDBRANCH  16  19
ENDBRANCH  15  16
ENDBRANCH   4  15
TORSDOF 5
ENDMDL
MODEL 9
REMARK VINA RESULT:      -5.6      3.674      6.496
REMARK  5 active torsions:
REMARK  status: ('A' for Active; 'I' for Inactive)
REMARK    1  A    between atoms: C_6  and  N_7 
REMARK       I    between atoms: N_7  and  C_8 
REMARK       I    between atoms: C_8  and  N_10 
REMARK    2  A    between atoms: N_10  and  C_11 
REMARK    3  A    between atoms: C_11  and  C_12 
REMARK    4  A    between atoms: C_12  and  O_13 
REMARK    5  A    between atoms: C_12  and  C_14 
ROOT
HETATM    1  N   UNL     1     -43.488 -51.589  12.520  1.00  0.00    -0.295 N 
HETATM    2  C   UNL     1     -42.152 -51.785  12.589  1.00  0.00     0.321 C 
HETATM    3  O   UNL     1     -41.415 -51.141  11.844  1.00  0.00    -0.247 OA
HETATM    4  N   UNL     1     -41.678 -52.643  13.547  1.00  0.00    -0.340 N 
HETATM    5  H   UNL     1     -43.747 -50.844  11.894  1.00  0.00     0.172 HD
HETATM    6  H   UNL     1     -42.349 -53.342  13.869  1.00  0.00     0.164 HD
ENDROOT
BRANCH   1   7
HETATM    7  C   UNL     1     -44.488 -52.247  13.224  1.00  0.00     0.109 A 
HETATM    8  C   UNL     1     -44.662 -53.602  12.990  1.00  0.00     0.049 A 
HETATM    9  C   UNL     1     -45.694 -54.256  13.654  1.00  0.00     0.006 A 
HETATM   10  C   UNL     1     -46.492 -53.548  14.551  1.00  0.00     0.025 A 
HETATM   11  C   UNL     1     -46.234 -52.201  14.758  1.00  0.00     0.007 A 
HETATM   12  C   UNL     1     -47.053 -51.369  15.694  1.00  0.00     0.068 C 
HETATM   13  N   UNL     1     -45.249 -51.551  14.097  1.00  0.00    -0.346 N 
ATOM     14  HN  UNL     1     -45.084 -50.557  14.255  1.00  0.00     0.167 HD
ENDBRANCH   1   7
BRANCH   4  15
HETATM   15  C   UNL     1     -40.268 -52.924  13.551  1.00  0.00     0.156 C 
BRANCH  15  16
HETATM   16  C   UNL     1     -39.813 -54.310  14.057  1.00  0.00     0.140 C 
BRANCH  16  17
HETATM   17  O   UNL     1     -38.517 -54.653  13.569  1.00  0.00    -0.394 OA
HETATM   18  H   UNL     1     -38.152 -53.874  13.116  1.00  0.00     0.210 HD
ENDBRANCH  16  17
BRANCH  16  19
HETATM   19  C   UNL     1     -39.852 -54.300  15.616  1.00  0.00     0.016 C 
HETATM   20  C   UNL     1     -38.469 -54.496  16.278  1.00  0.00     0.007 C 
HETATM   21  C   UNL     1     -38.093 -55.946  16.538  1.00  0.00     0.000 C 
HETATM   22  C   UNL     1     -39.148 -56.594  17.412  1.00  0.00     0.000 C 
HETATM   23  C   UNL     1     -40.493 -56.595  16.694  1.00  0.00     0.000 C 
HETATM   24  C   UNL     1     -40.932 -55.202  16.249  1.00  0.00     0.007 C 
ENDBRANCH  16  19
ENDBRANCH  15  16
ENDBRANCH   4  15
TORSDOF 5
ENDMDL
