MODEL 1
REMARK VINA RESULT:      -5.8      0.000      0.000
REMARK  7 active torsions:
REMARK  status: ('A' for Active; 'I' for Inactive)
REMARK    1  A    between atoms: C_2  and  O_4 
REMARK    2  A    between atoms: O_4  and  C_5 
REMARK    3  A    between atoms: C_5  and  C_6 
REMARK    4  A    between atoms: C_6  and  C_7 
REMARK    5  A    between atoms: C_7  and  N_8 
REMARK       I    between atoms: N_8  and  C_9 
REMARK    6  A    between atoms: C_9  and  C_11 
REMARK    7  A    between atoms: C_17  and  N_18 
ROOT
HETATM    1  C   UNL     1     -43.486 -47.418  10.758  1.00  0.00     0.075 A 
HETATM    2  C   UNL     1     -44.635 -47.886  10.087  1.00  0.00     0.022 A 
HETATM    3  C   UNL     1     -45.259 -47.093   9.135  1.00  0.00     0.018 A 
HETATM    4  C   UNL     1     -44.729 -45.845   8.901  1.00  0.00     0.089 A 
HETATM    5  N   UNL     1     -43.639 -45.363   9.536  1.00  0.00    -0.352 N 
ATOM      6  HN  UNL     1     -43.297 -44.426   9.325  1.00  0.00     0.166 HD
HETATM    7  C   UNL     1     -42.997 -46.133  10.459  1.00  0.00     0.119 A 
ENDROOT
BRANCH   1   8
HETATM    8  C   UNL     1     -42.931 -48.262  11.857  1.00  0.00     0.255 C 
HETATM    9  N   UNL     1     -42.308 -49.442  11.465  1.00  0.00    -0.357 N 
HETATM   10  H   UNL     1     -42.236 -49.690  10.488  1.00  0.00     0.162 HD
HETATM   11  O   UNL     1     -43.040 -47.948  13.036  1.00  0.00    -0.268 OA
BRANCH   9  12
HETATM   12  C   UNL     1     -41.743 -50.355  12.440  1.00  0.00     0.125 C 
BRANCH  12  13
HETATM   13  C   UNL     1     -42.597 -51.607  12.605  1.00  0.00     0.046 C 
BRANCH  13  14
HETATM   14  C   UNL     1     -43.638 -51.430  13.704  1.00  0.00     0.169 C 
BRANCH  14  15
HETATM   15  O   UNL     1     -44.837 -50.926  13.123  1.00  0.00    -0.387 OA
BRANCH  15  16
HETATM   16  C   UNL     1     -45.955 -51.812  13.204  1.00  0.00     0.113 C 
HETATM   17  C   UNL     1     -46.748 -51.406  14.442  1.00  0.00     0.039 C 
HETATM   18  C   UNL     1     -46.833 -51.718  11.961  1.00  0.00     0.039 C 
ENDBRANCH  15  16
ENDBRANCH  14  15
ENDBRANCH  13  14
ENDBRANCH  12  13
ENDBRANCH   9  12
ENDBRANCH   1   8
BRANCH   7  19
HETATM   19  N   UNL     1     -41.885 -45.554  11.016  1.00  0.00    -0.362 N 
HETATM   20  C   UNL     1     -42.020 -44.381  11.883  1.00  0.00     0.150 C 
HETATM   21  C   UNL     1     -41.176 -43.218  11.348  1.00  0.00     0.187 C 
HETATM   22  O   UNL     1     -39.804 -43.606  11.155  1.00  0.00    -0.388 OA
HETATM   23  C   UNL     1     -39.727 -44.686  10.210  1.00  0.00     0.187 C 
HETATM   24  C   UNL     1     -40.511 -45.928  10.678  1.00  0.00     0.150 C 
ENDBRANCH   7  19
TORSDOF 7
ENDMDL
MODEL 2
REMARK VINA RESULT:      -5.7      2.761      6.600
REMARK  7 active torsions:
REMARK  status: ('A' for Active; 'I' for Inactive)
REMARK    1  A    between atoms: C_2  and  O_4 
REMARK    2  A    between atoms: O_4  and  C_5 
REMARK    3  A    between atoms: C_5  and  C_6 
REMARK    4  A    between atoms: C_6  and  C_7 
REMARK    5  A    between atoms: C_7  and  N_8 
REMARK       I    between atoms: N_8  and  C_9 
REMARK    6  A    between atoms: C_9  and  C_11 
REMARK    7  A    between atoms: C_17  and  N_18 
ROOT
HETATM    1  C   UNL     1     -44.112 -51.396  13.486  1.00  0.00     0.075 A 
HETATM    2  C   UNL     1     -45.506 -51.328  13.693  1.00  0.00     0.022 A 
HETATM    3  C   UNL     1     -46.284 -52.472  13.588  1.00  0.00     0.018 A 
HETATM    4  C   UNL     1     -45.647 -53.645  13.254  1.00  0.00     0.089 A 
HETATM    5  N   UNL     1     -44.318 -53.740  13.038  1.00  0.00    -0.352 N 
ATOM      6  HN  UNL     1     -43.904 -54.638  12.786  1.00  0.00     0.166 HD
HETATM    7  C   UNL     1     -43.531 -52.634  13.156  1.00  0.00     0.119 A 
ENDROOT
BRANCH   1   8
HETATM    8  C   UNL     1     -43.345 -50.115  13.491  1.00  0.00     0.255 C 
HETATM    9  N   UNL     1     -43.430 -49.348  12.335  1.00  0.00    -0.357 N 
HETATM   10  H   UNL     1     -43.994 -49.650  11.552  1.00  0.00     0.162 HD
HETATM   11  O   UNL     1     -42.659 -49.773  14.447  1.00  0.00    -0.268 OA
BRANCH   9  12
HETATM   12  C   UNL     1     -42.718 -48.090  12.212  1.00  0.00     0.125 C 
BRANCH  12  13
HETATM   13  C   UNL     1     -41.904 -48.025  10.924  1.00  0.00     0.046 C 
BRANCH  13  14
HETATM   14  C   UNL     1     -42.614 -47.198   9.859  1.00  0.00     0.169 C 
BRANCH  14  15
HETATM   15  O   UNL     1     -43.997 -47.536   9.861  1.00  0.00    -0.387 OA
BRANCH  15  16
HETATM   16  C   UNL     1     -44.638 -47.429   8.589  1.00  0.00     0.113 C 
HETATM   17  C   UNL     1     -43.683 -48.034   7.564  1.00  0.00     0.039 C 
HETATM   18  C   UNL     1     -45.970 -48.170   8.569  1.00  0.00     0.039 C 
ENDBRANCH  15  16
ENDBRANCH  14  15
ENDBRANCH  13  14
ENDBRANCH  12  13
ENDBRANCH   9  12
ENDBRANCH   1   8
BRANCH   7  19
HETATM   19  N   UNL     1     -42.194 -52.856  12.945  1.00  0.00    -0.362 N 
HETATM   20  C   UNL     1     -41.387 -53.526  13.968  1.00  0.00     0.150 C 
HETATM   21  C   UNL     1     -40.195 -52.649  14.371  1.00  0.00     0.187 C 
HETATM   22  O   UNL     1     -39.418 -52.256  13.226  1.00  0.00    -0.388 OA
HETATM   23  C   UNL     1     -40.234 -51.507  12.310  1.00  0.00     0.187 C 
HETATM   24  C   UNL     1     -41.443 -52.320  11.808  1.00  0.00     0.150 C 
ENDBRANCH   7  19
TORSDOF 7
ENDMDL
MODEL 3
REMARK VINA RESULT:      -5.5      1.657      2.103
REMARK  7 active torsions:
REMARK  status: ('A' for Active; 'I' for Inactive)
REMARK    1  A    between atoms: C_2  and  O_4 
REMARK    2  A    between atoms: O_4  and  C_5 
REMARK    3  A    between atoms: C_5  and  C_6 
REMARK    4  A    between atoms: C_6  and  C_7 
REMARK    5  A    between atoms: C_7  and  N_8 
REMARK       I    between atoms: N_8  and  C_9 
REMARK    6  A    between atoms: C_9  and  C_11 
REMARK    7  A    between atoms: C_17  and  N_18 
ROOT
HETATM    1  C   UNL     1     -42.546 -47.437  10.393  1.00  0.00     0.075 A 
HETATM    2  C   UNL     1     -43.118 -47.725   9.136  1.00  0.00     0.022 A 
HETATM    3  C   UNL     1     -43.786 -46.735   8.430  1.00  0.00     0.018 A 
HETATM    4  C   UNL     1     -43.883 -45.493   9.014  1.00  0.00     0.089 A 
HETATM    5  N   UNL     1     -43.357 -45.190  10.220  1.00  0.00    -0.352 N 
ATOM      6  HN  UNL     1     -43.468 -44.251  10.604  1.00  0.00     0.166 HD
HETATM    7  C   UNL     1     -42.679 -46.140  10.922  1.00  0.00     0.119 A 
ENDROOT
BRANCH   1   8
HETATM    8  C   UNL     1     -41.948 -48.569  11.161  1.00  0.00     0.255 C 
HETATM    9  N   UNL     1     -42.840 -49.357  11.881  1.00  0.00    -0.357 N 
HETATM   10  H   UNL     1     -43.832 -49.165  11.863  1.00  0.00     0.162 HD
HETATM   11  O   UNL     1     -40.741 -48.777  11.178  1.00  0.00    -0.268 OA
BRANCH   9  12
HETATM   12  C   UNL     1     -42.379 -50.477  12.679  1.00  0.00     0.125 C 
BRANCH  12  13
HETATM   13  C   UNL     1     -42.765 -50.323  14.146  1.00  0.00     0.046 C 
BRANCH  13  14
HETATM   14  C   UNL     1     -44.214 -50.726  14.386  1.00  0.00     0.169 C 
BRANCH  14  15
HETATM   15  O   UNL     1     -44.800 -51.095  13.142  1.00  0.00    -0.387 OA
BRANCH  15  16
HETATM   16  C   UNL     1     -45.983 -51.889  13.254  1.00  0.00     0.113 C 
HETATM   17  C   UNL     1     -46.726 -51.398  14.492  1.00  0.00     0.039 C 
HETATM   18  C   UNL     1     -46.868 -51.751  12.019  1.00  0.00     0.039 C 
ENDBRANCH  15  16
ENDBRANCH  14  15
ENDBRANCH  13  14
ENDBRANCH  12  13
ENDBRANCH   9  12
ENDBRANCH   1   8
BRANCH   7  19
HETATM   19  N   UNL     1     -42.162 -45.710  12.118  1.00  0.00    -0.362 N 
HETATM   20  C   UNL     1     -40.813 -45.142  12.176  1.00  0.00     0.150 C 
HETATM   21  C   UNL     1     -39.948 -45.915  13.179  1.00  0.00     0.187 C 
HETATM   22  O   UNL     1     -40.574 -45.984  14.473  1.00  0.00    -0.388 OA
HETATM   23  C   UNL     1     -41.843 -46.650  14.371  1.00  0.00     0.187 C 
HETATM   24  C   UNL     1     -42.808 -45.923  13.414  1.00  0.00     0.150 C 
ENDBRANCH   7  19
TORSDOF 7
ENDMDL
MODEL 4
REMARK VINA RESULT:      -5.4      2.582      3.955
REMARK  7 active torsions:
REMARK  status: ('A' for Active; 'I' for Inactive)
REMARK    1  A    between atoms: C_2  and  O_4 
REMARK    2  A    between atoms: O_4  and  C_5 
REMARK    3  A    between atoms: C_5  and  C_6 
REMARK    4  A    between atoms: C_6  and  C_7 
REMARK    5  A    between atoms: C_7  and  N_8 
REMARK       I    between atoms: N_8  and  C_9 
REMARK    6  A    between atoms: C_9  and  C_11 
REMARK    7  A    between atoms: C_17  and  N_18 
ROOT
HETATM    1  C   UNL     1     -41.417 -48.835  11.681  1.00  0.00     0.075 A 
HETATM    2  C   UNL     1     -42.539 -48.263  11.045  1.00  0.00     0.022 A 
HETATM    3  C   UNL     1     -42.428 -47.039  10.402  1.00  0.00     0.018 A 
HETATM    4  C   UNL     1     -41.204 -46.411  10.437  1.00  0.00     0.089 A 
HETATM    5  N   UNL     1     -40.116 -46.926  11.047  1.00  0.00    -0.352 N 
ATOM      6  HN  UNL     1     -39.236 -46.410  11.046  1.00  0.00     0.166 HD
HETATM    7  C   UNL     1     -40.195 -48.137  11.667  1.00  0.00     0.119 A 
ENDROOT
BRANCH   1   8
HETATM    8  C   UNL     1     -41.625 -50.092  12.459  1.00  0.00     0.255 C 
HETATM    9  N   UNL     1     -41.634 -51.272  11.722  1.00  0.00    -0.357 N 
HETATM   10  H   UNL     1     -41.494 -51.259  10.722  1.00  0.00     0.162 HD
HETATM   11  O   UNL     1     -41.804 -50.084  13.671  1.00  0.00    -0.268 OA
BRANCH   9  12
HETATM   12  C   UNL     1     -41.842 -52.557  12.362  1.00  0.00     0.125 C 
BRANCH  12  13
HETATM   13  C   UNL     1     -43.292 -53.014  12.255  1.00  0.00     0.046 C 
BRANCH  13  14
HETATM   14  C   UNL     1     -43.967 -53.052  13.620  1.00  0.00     0.169 C 
BRANCH  14  15
HETATM   15  O   UNL     1     -44.782 -51.893  13.762  1.00  0.00    -0.387 OA
BRANCH  15  16
HETATM   16  C   UNL     1     -46.186 -52.138  13.661  1.00  0.00     0.113 C 
HETATM   17  C   UNL     1     -46.847 -51.389  14.814  1.00  0.00     0.039 C 
HETATM   18  C   UNL     1     -46.745 -51.652  12.328  1.00  0.00     0.039 C 
ENDBRANCH  15  16
ENDBRANCH  14  15
ENDBRANCH  13  14
ENDBRANCH  12  13
ENDBRANCH   9  12
ENDBRANCH   1   8
BRANCH   7  19
HETATM   19  N   UNL     1     -39.021 -48.575  12.225  1.00  0.00    -0.362 N 
HETATM   20  C   UNL     1     -38.183 -49.543  11.513  1.00  0.00     0.150 C 
HETATM   21  C   UNL     1     -37.938 -50.782  12.382  1.00  0.00     0.187 C 
HETATM   22  O   UNL     1     -37.401 -50.427  13.669  1.00  0.00    -0.388 OA
HETATM   23  C   UNL     1     -38.317 -49.567  14.365  1.00  0.00     0.187 C 
HETATM   24  C   UNL     1     -38.597 -48.264  13.591  1.00  0.00     0.150 C 
ENDBRANCH   7  19
TORSDOF 7
ENDMDL
MODEL 5
REMARK VINA RESULT:      -5.3      3.097      4.940
REMARK  7 active torsions:
REMARK  status: ('A' for Active; 'I' for Inactive)
REMARK    1  A    between atoms: C_2  and  O_4 
REMARK    2  A    between atoms: O_4  and  C_5 
REMARK    3  A    between atoms: C_5  and  C_6 
REMARK    4  A    between atoms: C_6  and  C_7 
REMARK    5  A    between atoms: C_7  and  N_8 
REMARK       I    between atoms: N_8  and  C_9 
REMARK    6  A    between atoms: C_9  and  C_11 
REMARK    7  A    between atoms: C_17  and  N_18 
ROOT
HETATM    1  C   UNL     1     -42.186 -49.193  12.635  1.00  0.00     0.075 A 
HETATM    2  C   UNL     1     -43.025 -48.114  12.283  1.00  0.00     0.022 A 
HETATM    3  C   UNL     1     -42.956 -47.562  11.012  1.00  0.00     0.018 A 
HETATM    4  C   UNL     1     -42.032 -48.090  10.139  1.00  0.00     0.089 A 
HETATM    5  N   UNL     1     -41.207 -49.112  10.450  1.00  0.00    -0.352 N 
ATOM      6  HN  UNL     1     -40.537 -49.455   9.762  1.00  0.00     0.166 HD
HETATM    7  C   UNL     1     -41.272 -49.684  11.685  1.00  0.00     0.119 A 
ENDROOT
BRANCH   1   8
HETATM    8  C   UNL     1     -42.217 -49.665  14.051  1.00  0.00     0.255 C 
HETATM    9  N   UNL     1     -43.195 -50.605  14.359  1.00  0.00    -0.357 N 
HETATM   10  H   UNL     1     -43.829 -50.945  13.650  1.00  0.00     0.162 HD
HETATM   11  O   UNL     1     -41.446 -49.231  14.898  1.00  0.00    -0.268 OA
BRANCH   9  12
HETATM   12  C   UNL     1     -43.337 -51.129  15.704  1.00  0.00     0.125 C 
BRANCH  12  13
HETATM   13  C   UNL     1     -43.225 -52.649  15.733  1.00  0.00     0.046 C 
BRANCH  13  14
HETATM   14  C   UNL     1     -44.589 -53.311  15.586  1.00  0.00     0.169 C 
BRANCH  14  15
HETATM   15  O   UNL     1     -45.247 -52.758  14.451  1.00  0.00    -0.387 OA
BRANCH  15  16
HETATM   16  C   UNL     1     -45.439 -53.673  13.370  1.00  0.00     0.113 C 
HETATM   17  C   UNL     1     -44.329 -53.400  12.360  1.00  0.00     0.039 C 
HETATM   18  C   UNL     1     -45.374 -55.121  13.845  1.00  0.00     0.039 C 
ENDBRANCH  15  16
ENDBRANCH  14  15
ENDBRANCH  13  14
ENDBRANCH  12  13
ENDBRANCH   9  12
ENDBRANCH   1   8
BRANCH   7  19
HETATM   19  N   UNL     1     -40.410 -50.734  11.877  1.00  0.00    -0.362 N 
HETATM   20  C   UNL     1     -40.901 -52.113  11.809  1.00  0.00     0.150 C 
HETATM   21  C   UNL     1     -40.578 -52.862  13.107  1.00  0.00     0.187 C 
HETATM   22  O   UNL     1     -39.176 -52.791  13.423  1.00  0.00    -0.388 OA
HETATM   23  C   UNL     1     -38.777 -51.420  13.586  1.00  0.00     0.187 C 
HETATM   24  C   UNL     1     -39.021 -50.585  12.314  1.00  0.00     0.150 C 
ENDBRANCH   7  19
TORSDOF 7
ENDMDL
MODEL 6
REMARK VINA RESULT:      -5.2      2.662      4.579
REMARK  7 active torsions:
REMARK  status: ('A' for Active; 'I' for Inactive)
REMARK    1  A    between atoms: C_2  and  O_4 
REMARK    2  A    between atoms: O_4  and  C_5 
REMARK    3  A    between atoms: C_5  and  C_6 
REMARK    4  A    between atoms: C_6  and  C_7 
REMARK    5  A    between atoms: C_7  and  N_8 
REMARK       I    between atoms: N_8  and  C_9 
REMARK    6  A    between atoms: C_9  and  C_11 
REMARK    7  A    between atoms: C_17  and  N_18 
ROOT
HETATM    1  C   UNL     1     -39.841 -50.321  12.698  1.00  0.00     0.075 A 
HETATM    2  C   UNL     1     -38.739 -51.191  12.839  1.00  0.00     0.022 A 
HETATM    3  C   UNL     1     -37.532 -50.894  12.222  1.00  0.00     0.018 A 
HETATM    4  C   UNL     1     -37.472 -49.749  11.462  1.00  0.00     0.089 A 
HETATM    5  N   UNL     1     -38.511 -48.904  11.297  1.00  0.00    -0.352 N 
ATOM      6  HN  UNL     1     -38.407 -48.073  10.715  1.00  0.00     0.166 HD
HETATM    7  C   UNL     1     -39.700 -49.164  11.911  1.00  0.00     0.119 A 
ENDROOT
BRANCH   1   8
HETATM    8  C   UNL     1     -41.146 -50.752  13.281  1.00  0.00     0.255 C 
HETATM    9  N   UNL     1     -41.926 -51.584  12.485  1.00  0.00    -0.357 N 
HETATM   10  H   UNL     1     -41.605 -51.878  11.573  1.00  0.00     0.162 HD
HETATM   11  O   UNL     1     -41.521 -50.374  14.385  1.00  0.00    -0.268 OA
BRANCH   9  12
HETATM   12  C   UNL     1     -43.222 -52.057  12.934  1.00  0.00     0.125 C 
BRANCH  12  13
HETATM   13  C   UNL     1     -43.336 -53.574  12.831  1.00  0.00     0.046 C 
BRANCH  13  14
HETATM   14  C   UNL     1     -44.729 -54.054  13.218  1.00  0.00     0.169 C 
BRANCH  14  15
HETATM   15  O   UNL     1     -45.662 -53.009  12.965  1.00  0.00    -0.387 OA
BRANCH  15  16
HETATM   16  C   UNL     1     -46.655 -52.839  13.978  1.00  0.00     0.113 C 
HETATM   17  C   UNL     1     -46.329 -53.837  15.084  1.00  0.00     0.039 C 
HETATM   18  C   UNL     1     -46.651 -51.419  14.532  1.00  0.00     0.039 C 
ENDBRANCH  15  16
ENDBRANCH  14  15
ENDBRANCH  13  14
ENDBRANCH  12  13
ENDBRANCH   9  12
ENDBRANCH   1   8
BRANCH   7  19
HETATM   19  N   UNL     1     -40.673 -48.221  11.698  1.00  0.00    -0.362 N 
HETATM   20  C   UNL     1     -40.833 -47.103  12.632  1.00  0.00     0.150 C 
HETATM   21  C   UNL     1     -42.265 -47.063  13.181  1.00  0.00     0.187 C 
HETATM   22  O   UNL     1     -43.237 -47.040  12.121  1.00  0.00    -0.388 OA
HETATM   23  C   UNL     1     -43.103 -48.215  11.304  1.00  0.00     0.187 C 
HETATM   24  C   UNL     1     -41.705 -48.326  10.666  1.00  0.00     0.150 C 
ENDBRANCH   7  19
TORSDOF 7
ENDMDL
MODEL 7
REMARK VINA RESULT:      -5.2      3.137      6.814
REMARK  7 active torsions:
REMARK  status: ('A' for Active; 'I' for Inactive)
REMARK    1  A    between atoms: C_2  and  O_4 
REMARK    2  A    between atoms: O_4  and  C_5 
REMARK    3  A    between atoms: C_5  and  C_6 
REMARK    4  A    between atoms: C_6  and  C_7 
REMARK    5  A    between atoms: C_7  and  N_8 
REMARK       I    between atoms: N_8  and  C_9 
REMARK    6  A    between atoms: C_9  and  C_11 
REMARK    7  A    between atoms: C_17  and  N_18 
ROOT
HETATM    1  C   UNL     1     -44.115 -51.540  14.175  1.00  0.00     0.075 A 
HETATM    2  C   UNL     1     -45.455 -51.179  14.429  1.00  0.00     0.022 A 
HETATM    3  C   UNL     1     -46.467 -51.622  13.590  1.00  0.00     0.018 A 
HETATM    4  C   UNL     1     -46.106 -52.392  12.509  1.00  0.00     0.089 A 
HETATM    5  N   UNL     1     -44.832 -52.744  12.233  1.00  0.00    -0.352 N 
ATOM      6  HN  UNL     1     -44.625 -53.312  11.411  1.00  0.00     0.166 HD
HETATM    7  C   UNL     1     -43.824 -52.339  13.054  1.00  0.00     0.119 A 
ENDROOT
BRANCH   1   8
HETATM    8  C   UNL     1     -43.057 -50.936  15.038  1.00  0.00     0.255 C 
HETATM    9  N   UNL     1     -42.684 -49.633  14.725  1.00  0.00    -0.357 N 
HETATM   10  H   UNL     1     -43.124 -49.138  13.962  1.00  0.00     0.162 HD
HETATM   11  O   UNL     1     -42.529 -51.559  15.951  1.00  0.00    -0.268 OA
BRANCH   9  12
HETATM   12  C   UNL     1     -41.656 -48.943  15.480  1.00  0.00     0.125 C 
BRANCH  12  13
HETATM   13  C   UNL     1     -40.294 -49.039  14.800  1.00  0.00     0.046 C 
BRANCH  13  14
HETATM   14  C   UNL     1     -40.153 -48.005  13.689  1.00  0.00     0.169 C 
BRANCH  14  15
HETATM   15  O   UNL     1     -41.123 -48.278  12.682  1.00  0.00    -0.387 OA
BRANCH  15  16
HETATM   16  C   UNL     1     -40.678 -48.033  11.347  1.00  0.00     0.113 C 
HETATM   17  C   UNL     1     -41.901 -48.165  10.445  1.00  0.00     0.039 C 
HETATM   18  C   UNL     1     -40.069 -46.642  11.206  1.00  0.00     0.039 C 
ENDBRANCH  15  16
ENDBRANCH  14  15
ENDBRANCH  13  14
ENDBRANCH  12  13
ENDBRANCH   9  12
ENDBRANCH   1   8
BRANCH   7  19
HETATM   19  N   UNL     1     -42.577 -52.782  12.694  1.00  0.00    -0.362 N 
HETATM   20  C   UNL     1     -42.064 -54.049  13.222  1.00  0.00     0.150 C 
HETATM   21  C   UNL     1     -40.725 -53.829  13.937  1.00  0.00     0.187 C 
HETATM   22  O   UNL     1     -39.776 -53.161  13.087  1.00  0.00    -0.388 OA
HETATM   23  C   UNL     1     -40.287 -51.877  12.692  1.00  0.00     0.187 C 
HETATM   24  C   UNL     1     -41.617 -51.992  11.921  1.00  0.00     0.150 C 
ENDBRANCH   7  19
TORSDOF 7
ENDMDL
MODEL 8
REMARK VINA RESULT:      -5.1      4.545      7.200
REMARK  7 active torsions:
REMARK  status: ('A' for Active; 'I' for Inactive)
REMARK    1  A    between atoms: C_2  and  O_4 
REMARK    2  A    between atoms: O_4  and  C_5 
REMARK    3  A    between atoms: C_5  and  C_6 
REMARK    4  A    between atoms: C_6  and  C_7 
REMARK    5  A    between atoms: C_7  and  N_8 
REMARK       I    between atoms: N_8  and  C_9 
REMARK    6  A    between atoms: C_9  and  C_11 
REMARK    7  A    between atoms: C_17  and  N_18 
ROOT
HETATM    1  C   UNL     1     -44.205 -51.570  14.157  1.00  0.00     0.075 A 
HETATM    2  C   UNL     1     -45.536 -51.169  14.395  1.00  0.00     0.022 A 
HETATM    3  C   UNL     1     -46.554 -51.592  13.553  1.00  0.00     0.018 A 
HETATM    4  C   UNL     1     -46.206 -52.383  12.483  1.00  0.00     0.089 A 
HETATM    5  N   UNL     1     -44.940 -52.773  12.221  1.00  0.00    -0.352 N 
ATOM      6  HN  UNL     1     -44.743 -53.355  11.406  1.00  0.00     0.166 HD
HETATM    7  C   UNL     1     -43.927 -52.388  13.046  1.00  0.00     0.119 A 
ENDROOT
BRANCH   1   8
HETATM    8  C   UNL     1     -43.138 -50.986  15.022  1.00  0.00     0.255 C 
HETATM    9  N   UNL     1     -42.842 -49.644  14.805  1.00  0.00    -0.357 N 
HETATM   10  H   UNL     1     -43.340 -49.110  14.107  1.00  0.00     0.162 HD
HETATM   11  O   UNL     1     -42.538 -51.655  15.855  1.00  0.00    -0.268 OA
BRANCH   9  12
HETATM   12  C   UNL     1     -41.813 -48.967  15.571  1.00  0.00     0.125 C 
BRANCH  12  13
HETATM   13  C   UNL     1     -40.870 -48.174  14.674  1.00  0.00     0.046 C 
BRANCH  13  14
HETATM   14  C   UNL     1     -39.526 -48.875  14.522  1.00  0.00     0.169 C 
BRANCH  14  15
HETATM   15  O   UNL     1     -39.107 -48.776  13.164  1.00  0.00    -0.387 OA
BRANCH  15  16
HETATM   16  C   UNL     1     -37.766 -49.205  12.923  1.00  0.00     0.113 C 
HETATM   17  C   UNL     1     -37.443 -50.254  13.983  1.00  0.00     0.039 C 
HETATM   18  C   UNL     1     -37.612 -49.802  11.528  1.00  0.00     0.039 C 
ENDBRANCH  15  16
ENDBRANCH  14  15
ENDBRANCH  13  14
ENDBRANCH  12  13
ENDBRANCH   9  12
ENDBRANCH   1   8
BRANCH   7  19
HETATM   19  N   UNL     1     -42.690 -52.869  12.700  1.00  0.00    -0.362 N 
HETATM   20  C   UNL     1     -42.221 -54.148  13.237  1.00  0.00     0.150 C 
HETATM   21  C   UNL     1     -40.884 -53.966  13.966  1.00  0.00     0.187 C 
HETATM   22  O   UNL     1     -39.906 -53.329  13.124  1.00  0.00    -0.388 OA
HETATM   23  C   UNL     1     -40.375 -52.032  12.719  1.00  0.00     0.187 C 
HETATM   24  C   UNL     1     -41.700 -52.110  11.935  1.00  0.00     0.150 C 
ENDBRANCH   7  19
TORSDOF 7
ENDMDL
MODEL 9
REMARK VINA RESULT:      -5.1      3.281      7.418
REMARK  7 active torsions:
REMARK  status: ('A' for Active; 'I' for Inactive)
REMARK    1  A    between atoms: C_2  and  O_4 
REMARK    2  A    between atoms: O_4  and  C_5 
REMARK    3  A    between atoms: C_5  and  C_6 
REMARK    4  A    between atoms: C_6  and  C_7 
REMARK    5  A    between atoms: C_7  and  N_8 
REMARK       I    between atoms: N_8  and  C_9 
REMARK    6  A    between atoms: C_9  and  C_11 
REMARK    7  A    between atoms: C_17  and  N_18 
ROOT
HETATM    1  C   UNL     1     -44.307 -51.250  13.629  1.00  0.00     0.075 A 
HETATM    2  C   UNL     1     -45.709 -51.219  13.478  1.00  0.00     0.022 A 
HETATM    3  C   UNL     1     -46.446 -52.391  13.558  1.00  0.00     0.018 A 
HETATM    4  C   UNL     1     -45.755 -53.564  13.761  1.00  0.00     0.089 A 
HETATM    5  N   UNL     1     -44.413 -53.628  13.897  1.00  0.00    -0.352 N 
ATOM      6  HN  UNL     1     -43.956 -54.529  14.038  1.00  0.00     0.166 HD
HETATM    7  C   UNL     1     -43.671 -52.487  13.843  1.00  0.00     0.119 A 
ENDROOT
BRANCH   1   8
HETATM    8  C   UNL     1     -43.556 -49.978  13.413  1.00  0.00     0.255 C 
HETATM    9  N   UNL     1     -43.323 -49.624  12.088  1.00  0.00    -0.357 N 
HETATM   10  H   UNL     1     -43.662 -50.201  11.331  1.00  0.00     0.162 HD
HETATM   11  O   UNL     1     -43.144 -49.300  14.346  1.00  0.00    -0.268 OA
BRANCH   9  12
HETATM   12  C   UNL     1     -42.591 -48.419  11.748  1.00  0.00     0.125 C 
BRANCH  12  13
HETATM   13  C   UNL     1     -41.254 -48.737  11.088  1.00  0.00     0.046 C 
BRANCH  13  14
HETATM   14  C   UNL     1     -40.102 -48.622  12.079  1.00  0.00     0.169 C 
BRANCH  14  15
HETATM   15  O   UNL     1     -39.533 -49.912  12.274  1.00  0.00    -0.387 OA
BRANCH  15  16
HETATM   16  C   UNL     1     -38.115 -49.917  12.450  1.00  0.00     0.113 C 
HETATM   17  C   UNL     1     -37.773 -51.183  13.229  1.00  0.00     0.039 C 
HETATM   18  C   UNL     1     -37.386 -49.910  11.111  1.00  0.00     0.039 C 
ENDBRANCH  15  16
ENDBRANCH  14  15
ENDBRANCH  13  14
ENDBRANCH  12  13
ENDBRANCH   9  12
ENDBRANCH   1   8
BRANCH   7  19
HETATM   19  N   UNL     1     -42.324 -52.669  14.025  1.00  0.00    -0.362 N 
HETATM   20  C   UNL     1     -41.445 -52.874  12.871  1.00  0.00     0.150 C 
HETATM   21  C   UNL     1     -40.667 -54.187  13.015  1.00  0.00     0.187 C 
HETATM   22  O   UNL     1     -39.958 -54.247  14.266  1.00  0.00    -0.388 OA
HETATM   23  C   UNL     1     -40.883 -54.153  15.361  1.00  0.00     0.187 C 
HETATM   24  C   UNL     1     -41.689 -52.839  15.333  1.00  0.00     0.150 C 
ENDBRANCH   7  19
TORSDOF 7
ENDMDL
