MODEL 1
REMARK VINA RESULT:      -5.6      0.000      0.000
REMARK  4 active torsions:
REMARK  status: ('A' for Active; 'I' for Inactive)
REMARK    1  A    between atoms: C_2  and  C_3 
REMARK       I    between atoms: C_2  and  N_10 
REMARK    2  A    between atoms: C_3  and  N_4 
REMARK    3  A    between atoms: N_10  and  C_11 
REMARK    4  A    between atoms: C_11  and  C_12 
ROOT
HETATM    1  O   UNL     1     -42.914 -48.034  10.144  1.00  0.00    -0.272 OA
HETATM    2  C   UNL     1     -42.722 -46.949   9.599  1.00  0.00     0.237 C 
HETATM    3  N   UNL     1     -41.629 -46.147   9.868  1.00  0.00    -0.359 N 
HETATM    4  H   UNL     1     -41.674 -45.178   9.563  1.00  0.00     0.162 HD
ENDROOT
BRANCH   3   5
HETATM    5  C   UNL     1     -40.655 -46.493  10.884  1.00  0.00     0.128 C 
BRANCH   5   6
HETATM    6  C   UNL     1     -40.409 -45.352  11.876  1.00  0.00     0.018 C 
HETATM    7  C   UNL     1     -41.620 -45.056  12.781  1.00  0.00     0.022 C 
HETATM    8  C   UNL     1     -41.591 -43.604  13.257  1.00  0.00     0.141 C 
HETATM    9  S   UNL     1     -40.290 -42.789  12.367  1.00  0.00     0.144 S 
HETATM   10  O   UNL     1     -40.810 -41.597  11.733  1.00  0.00    -0.228 OA
HETATM   11  O   UNL     1     -39.103 -42.768  13.200  1.00  0.00    -0.228 OA
HETATM   12  C   UNL     1     -40.085 -44.054  11.140  1.00  0.00     0.146 C 
ENDBRANCH   5   6
ENDBRANCH   3   5
BRANCH   2  13
HETATM   13  C   UNL     1     -43.663 -46.405   8.551  1.00  0.00     0.250 C 
BRANCH  13  14
HETATM   14  N   UNL     1     -44.926 -47.108   8.590  1.00  0.00    -0.295 N 
HETATM   15  C   UNL     1     -46.051 -46.739   9.267  1.00  0.00     0.112 A 
HETATM   16  C   UNL     1     -46.977 -47.727   9.032  1.00  0.00     0.037 A 
HETATM   17  C   UNL     1     -46.312 -48.651   8.207  1.00  0.00     0.108 A 
HETATM   18  N   UNL     1     -45.056 -48.282   7.935  1.00  0.00    -0.310 N 
ATOM     19  HN  UNL     1     -44.363 -48.770   7.370  1.00  0.00     0.186 HD
ENDBRANCH  13  14
ENDBRANCH   2  13
TORSDOF 4
ENDMDL
MODEL 2
REMARK VINA RESULT:      -5.5      4.127      5.172
REMARK  4 active torsions:
REMARK  status: ('A' for Active; 'I' for Inactive)
REMARK    1  A    between atoms: C_2  and  C_3 
REMARK       I    between atoms: C_2  and  N_10 
REMARK    2  A    between atoms: C_3  and  N_4 
REMARK    3  A    between atoms: N_10  and  C_11 
REMARK    4  A    between atoms: C_11  and  C_12 
ROOT
HETATM    1  O   UNL     1     -43.141 -47.687  11.988  1.00  0.00    -0.272 OA
HETATM    2  C   UNL     1     -42.583 -48.139  10.990  1.00  0.00     0.237 C 
HETATM    3  N   UNL     1     -41.805 -49.281  11.009  1.00  0.00    -0.359 N 
HETATM    4  H   UNL     1     -41.195 -49.444  10.212  1.00  0.00     0.162 HD
ENDROOT
BRANCH   3   5
HETATM    5  C   UNL     1     -41.519 -49.997  12.237  1.00  0.00     0.128 C 
BRANCH   5   6
HETATM    6  C   UNL     1     -40.062 -49.845  12.681  1.00  0.00     0.018 C 
HETATM    7  C   UNL     1     -39.200 -49.042  11.688  1.00  0.00     0.022 C 
HETATM    8  C   UNL     1     -37.730 -49.443  11.809  1.00  0.00     0.141 C 
HETATM    9  S   UNL     1     -37.660 -50.850  12.887  1.00  0.00     0.144 S 
HETATM   10  O   UNL     1     -36.937 -51.922  12.239  1.00  0.00    -0.228 OA
HETATM   11  O   UNL     1     -37.332 -50.392  14.224  1.00  0.00    -0.228 OA
HETATM   12  C   UNL     1     -39.397 -51.210  12.835  1.00  0.00     0.146 C 
ENDBRANCH   5   6
ENDBRANCH   3   5
BRANCH   2  13
HETATM   13  C   UNL     1     -42.727 -47.494   9.634  1.00  0.00     0.250 C 
BRANCH  13  14
HETATM   14  N   UNL     1     -44.115 -47.192   9.360  1.00  0.00    -0.295 N 
HETATM   15  C   UNL     1     -44.623 -46.016   8.893  1.00  0.00     0.112 A 
HETATM   16  C   UNL     1     -45.985 -46.192   8.823  1.00  0.00     0.037 A 
HETATM   17  C   UNL     1     -46.198 -47.506   9.275  1.00  0.00     0.108 A 
HETATM   18  N   UNL     1     -45.061 -48.123   9.610  1.00  0.00    -0.310 N 
ATOM     19  HN  UNL     1     -44.937 -49.069   9.968  1.00  0.00     0.186 HD
ENDBRANCH  13  14
ENDBRANCH   2  13
TORSDOF 4
ENDMDL
MODEL 3
REMARK VINA RESULT:      -5.5      5.671      7.613
REMARK  4 active torsions:
REMARK  status: ('A' for Active; 'I' for Inactive)
REMARK    1  A    between atoms: C_2  and  C_3 
REMARK       I    between atoms: C_2  and  N_10 
REMARK    2  A    between atoms: C_3  and  N_4 
REMARK    3  A    between atoms: N_10  and  C_11 
REMARK    4  A    between atoms: C_11  and  C_12 
ROOT
HETATM    1  O   UNL     1     -42.219 -47.919  13.135  1.00  0.00    -0.272 OA
HETATM    2  C   UNL     1     -42.344 -48.692  12.187  1.00  0.00     0.237 C 
HETATM    3  N   UNL     1     -43.133 -49.826  12.232  1.00  0.00    -0.359 N 
HETATM    4  H   UNL     1     -42.989 -50.524  11.507  1.00  0.00     0.162 HD
ENDROOT
BRANCH   3   5
HETATM    5  C   UNL     1     -43.819 -50.237  13.441  1.00  0.00     0.128 C 
BRANCH   5   6
HETATM    6  C   UNL     1     -44.605 -51.539  13.258  1.00  0.00     0.018 C 
HETATM    7  C   UNL     1     -46.072 -51.438  13.718  1.00  0.00     0.022 C 
HETATM    8  C   UNL     1     -46.603 -52.815  14.117  1.00  0.00     0.141 C 
HETATM    9  S   UNL     1     -45.223 -53.929  14.111  1.00  0.00     0.144 S 
HETATM   10  O   UNL     1     -45.149 -54.616  15.382  1.00  0.00    -0.228 OA
HETATM   11  O   UNL     1     -45.206 -54.638  12.846  1.00  0.00    -0.228 OA
HETATM   12  C   UNL     1     -43.971 -52.673  14.059  1.00  0.00     0.146 C 
ENDBRANCH   5   6
ENDBRANCH   3   5
BRANCH   2  13
HETATM   13  C   UNL     1     -41.660 -48.450  10.864  1.00  0.00     0.250 C 
BRANCH  13  14
HETATM   14  N   UNL     1     -42.556 -47.784   9.944  1.00  0.00    -0.295 N 
HETATM   15  C   UNL     1     -43.327 -46.688  10.197  1.00  0.00     0.112 A 
HETATM   16  C   UNL     1     -44.028 -46.441   9.041  1.00  0.00     0.037 A 
HETATM   17  C   UNL     1     -43.614 -47.448   8.151  1.00  0.00     0.108 A 
HETATM   18  N   UNL     1     -42.717 -48.276   8.697  1.00  0.00    -0.310 N 
ATOM     19  HN  UNL     1     -42.264 -49.085   8.273  1.00  0.00     0.186 HD
ENDBRANCH  13  14
ENDBRANCH   2  13
TORSDOF 4
ENDMDL
MODEL 4
REMARK VINA RESULT:      -5.2      5.690      8.083
REMARK  4 active torsions:
REMARK  status: ('A' for Active; 'I' for Inactive)
REMARK    1  A    between atoms: C_2  and  C_3 
REMARK       I    between atoms: C_2  and  N_10 
REMARK    2  A    between atoms: C_3  and  N_4 
REMARK    3  A    between atoms: N_10  and  C_11 
REMARK    4  A    between atoms: C_11  and  C_12 
ROOT
HETATM    1  O   UNL     1     -41.394 -48.805  12.649  1.00  0.00    -0.272 OA
HETATM    2  C   UNL     1     -42.416 -48.841  11.967  1.00  0.00     0.237 C 
HETATM    3  N   UNL     1     -43.536 -49.571  12.316  1.00  0.00    -0.359 N 
HETATM    4  H   UNL     1     -44.230 -49.738  11.591  1.00  0.00     0.162 HD
ENDROOT
BRANCH   3   5
HETATM    5  C   UNL     1     -43.564 -50.423  13.489  1.00  0.00     0.128 C 
BRANCH   5   6
HETATM    6  C   UNL     1     -44.458 -51.652  13.302  1.00  0.00     0.018 C 
HETATM    7  C   UNL     1     -45.935 -51.393  13.658  1.00  0.00     0.022 C 
HETATM    8  C   UNL     1     -46.621 -52.695  14.072  1.00  0.00     0.141 C 
HETATM    9  S   UNL     1     -45.358 -53.933  14.202  1.00  0.00     0.144 S 
HETATM   10  O   UNL     1     -45.432 -54.567  15.500  1.00  0.00    -0.228 OA
HETATM   11  O   UNL     1     -45.329 -54.695  12.969  1.00  0.00    -0.228 OA
HETATM   12  C   UNL     1     -43.989 -52.803  14.187  1.00  0.00     0.146 C 
ENDBRANCH   5   6
ENDBRANCH   3   5
BRANCH   2  13
HETATM   13  C   UNL     1     -42.547 -48.056  10.684  1.00  0.00     0.250 C 
BRANCH  13  14
HETATM   14  N   UNL     1     -41.736 -46.859  10.738  1.00  0.00    -0.295 N 
HETATM   15  C   UNL     1     -42.170 -45.581  10.927  1.00  0.00     0.112 A 
HETATM   16  C   UNL     1     -41.050 -44.786  10.870  1.00  0.00     0.037 A 
HETATM   17  C   UNL     1     -39.990 -45.680  10.637  1.00  0.00     0.108 A 
HETATM   18  N   UNL     1     -40.402 -46.949  10.551  1.00  0.00    -0.310 N 
ATOM     19  HN  UNL     1     -39.842 -47.785  10.383  1.00  0.00     0.186 HD
ENDBRANCH  13  14
ENDBRANCH   2  13
TORSDOF 4
ENDMDL
MODEL 5
REMARK VINA RESULT:      -5.2      6.391      8.432
REMARK  4 active torsions:
REMARK  status: ('A' for Active; 'I' for Inactive)
REMARK    1  A    between atoms: C_2  and  C_3 
REMARK       I    between atoms: C_2  and  N_10 
REMARK    2  A    between atoms: C_3  and  N_4 
REMARK    3  A    between atoms: N_10  and  C_11 
REMARK    4  A    between atoms: C_11  and  C_12 
ROOT
HETATM    1  O   UNL     1     -40.524 -51.196  11.750  1.00  0.00    -0.272 OA
HETATM    2  C   UNL     1     -41.573 -50.734  12.195  1.00  0.00     0.237 C 
HETATM    3  N   UNL     1     -42.695 -51.502  12.442  1.00  0.00    -0.359 N 
HETATM    4  H   UNL     1     -43.577 -51.012  12.573  1.00  0.00     0.162 HD
ENDROOT
BRANCH   3   5
HETATM    5  C   UNL     1     -42.747 -52.914  12.117  1.00  0.00     0.128 C 
BRANCH   5   6
HETATM    6  C   UNL     1     -44.033 -53.584  12.610  1.00  0.00     0.018 C 
HETATM    7  C   UNL     1     -45.200 -52.597  12.806  1.00  0.00     0.022 C 
HETATM    8  C   UNL     1     -46.184 -53.132  13.846  1.00  0.00     0.141 C 
HETATM    9  S   UNL     1     -45.441 -54.568  14.577  1.00  0.00     0.144 S 
HETATM   10  O   UNL     1     -45.431 -54.429  16.017  1.00  0.00    -0.228 OA
HETATM   11  O   UNL     1     -45.968 -55.747  13.917  1.00  0.00    -0.228 OA
HETATM   12  C   UNL     1     -43.807 -54.268  13.956  1.00  0.00     0.146 C 
ENDBRANCH   5   6
ENDBRANCH   3   5
BRANCH   2  13
HETATM   13  C   UNL     1     -41.718 -49.272  12.542  1.00  0.00     0.250 C 
BRANCH  13  14
HETATM   14  N   UNL     1     -42.285 -48.541  11.430  1.00  0.00    -0.295 N 
HETATM   15  C   UNL     1     -43.445 -47.826  11.423  1.00  0.00     0.112 A 
HETATM   16  C   UNL     1     -43.586 -47.340  10.145  1.00  0.00     0.037 A 
HETATM   17  C   UNL     1     -42.460 -47.823   9.455  1.00  0.00     0.108 A 
HETATM   18  N   UNL     1     -41.662 -48.562  10.232  1.00  0.00    -0.310 N 
ATOM     19  HN  UNL     1     -40.791 -49.029   9.980  1.00  0.00     0.186 HD
ENDBRANCH  13  14
ENDBRANCH   2  13
TORSDOF 4
ENDMDL
MODEL 6
REMARK VINA RESULT:      -5.1      7.359      8.274
REMARK  4 active torsions:
REMARK  status: ('A' for Active; 'I' for Inactive)
REMARK    1  A    between atoms: C_2  and  C_3 
REMARK       I    between atoms: C_2  and  N_10 
REMARK    2  A    between atoms: C_3  and  N_4 
REMARK    3  A    between atoms: N_10  and  C_11 
REMARK    4  A    between atoms: C_11  and  C_12 
ROOT
HETATM    1  O   UNL     1     -43.810 -55.350  15.480  1.00  0.00    -0.272 OA
HETATM    2  C   UNL     1     -44.048 -54.836  14.389  1.00  0.00     0.237 C 
HETATM    3  N   UNL     1     -43.072 -54.285  13.581  1.00  0.00    -0.359 N 
HETATM    4  H   UNL     1     -43.378 -53.676  12.826  1.00  0.00     0.162 HD
ENDROOT
BRANCH   3   5
HETATM    5  C   UNL     1     -41.686 -54.200  13.998  1.00  0.00     0.128 C 
BRANCH   5   6
HETATM    6  C   UNL     1     -41.106 -52.793  13.827  1.00  0.00     0.018 C 
HETATM    7  C   UNL     1     -41.444 -52.153  12.467  1.00  0.00     0.022 C 
HETATM    8  C   UNL     1     -40.386 -51.118  12.086  1.00  0.00     0.141 C 
HETATM    9  S   UNL     1     -39.069 -51.256  13.267  1.00  0.00     0.144 S 
HETATM   10  O   UNL     1     -37.812 -51.431  12.573  1.00  0.00    -0.228 OA
HETATM   11  O   UNL     1     -39.256 -50.244  14.288  1.00  0.00    -0.228 OA
HETATM   12  C   UNL     1     -39.583 -52.818  13.934  1.00  0.00     0.146 C 
ENDBRANCH   5   6
ENDBRANCH   3   5
BRANCH   2  13
HETATM   13  C   UNL     1     -45.444 -54.788  13.816  1.00  0.00     0.250 C 
BRANCH  13  14
HETATM   14  N   UNL     1     -45.923 -53.424  13.763  1.00  0.00    -0.295 N 
HETATM   15  C   UNL     1     -46.219 -52.616  14.820  1.00  0.00     0.112 A 
HETATM   16  C   UNL     1     -46.665 -51.432  14.281  1.00  0.00     0.037 A 
HETATM   17  C   UNL     1     -46.606 -51.630  12.890  1.00  0.00     0.108 A 
HETATM   18  N   UNL     1     -46.158 -52.847  12.565  1.00  0.00    -0.310 N 
ATOM     19  HN  UNL     1     -46.025 -53.244  11.635  1.00  0.00     0.186 HD
ENDBRANCH  13  14
ENDBRANCH   2  13
TORSDOF 4
ENDMDL
MODEL 7
REMARK VINA RESULT:      -5.1      7.152      9.376
REMARK  4 active torsions:
REMARK  status: ('A' for Active; 'I' for Inactive)
REMARK    1  A    between atoms: C_2  and  C_3 
REMARK       I    between atoms: C_2  and  N_10 
REMARK    2  A    between atoms: C_3  and  N_4 
REMARK    3  A    between atoms: N_10  and  C_11 
REMARK    4  A    between atoms: C_11  and  C_12 
ROOT
HETATM    1  O   UNL     1     -40.470 -52.815  12.113  1.00  0.00    -0.272 OA
HETATM    2  C   UNL     1     -41.399 -52.021  12.252  1.00  0.00     0.237 C 
HETATM    3  N   UNL     1     -42.659 -52.396  12.677  1.00  0.00    -0.359 N 
HETATM    4  H   UNL     1     -43.418 -51.734  12.531  1.00  0.00     0.162 HD
ENDROOT
BRANCH   3   5
HETATM    5  C   UNL     1     -43.009 -53.782  12.920  1.00  0.00     0.128 C 
BRANCH   5   6
HETATM    6  C   UNL     1     -43.989 -53.946  14.085  1.00  0.00     0.018 C 
HETATM    7  C   UNL     1     -45.125 -54.945  13.792  1.00  0.00     0.022 C 
HETATM    8  C   UNL     1     -46.357 -54.616  14.636  1.00  0.00     0.141 C 
HETATM    9  S   UNL     1     -46.045 -53.062  15.433  1.00  0.00     0.144 S 
HETATM   10  O   UNL     1     -47.134 -52.151  15.162  1.00  0.00    -0.228 OA
HETATM   11  O   UNL     1     -45.567 -53.321  16.777  1.00  0.00    -0.228 OA
HETATM   12  C   UNL     1     -44.653 -52.615  14.427  1.00  0.00     0.146 C 
ENDBRANCH   5   6
ENDBRANCH   3   5
BRANCH   2  13
HETATM   13  C   UNL     1     -41.232 -50.544  11.993  1.00  0.00     0.250 C 
BRANCH  13  14
HETATM   14  N   UNL     1     -39.839 -50.166  12.096  1.00  0.00    -0.295 N 
HETATM   15  C   UNL     1     -39.193 -49.707  13.206  1.00  0.00     0.112 A 
HETATM   16  C   UNL     1     -37.900 -49.451  12.815  1.00  0.00     0.037 A 
HETATM   17  C   UNL     1     -37.869 -49.783  11.448  1.00  0.00     0.108 A 
HETATM   18  N   UNL     1     -39.052 -50.216  11.001  1.00  0.00    -0.310 N 
ATOM     19  HN  UNL     1     -39.300 -50.513  10.057  1.00  0.00     0.186 HD
ENDBRANCH  13  14
ENDBRANCH   2  13
TORSDOF 4
ENDMDL
MODEL 8
REMARK VINA RESULT:      -5.0      6.101      8.678
REMARK  4 active torsions:
REMARK  status: ('A' for Active; 'I' for Inactive)
REMARK    1  A    between atoms: C_2  and  C_3 
REMARK       I    between atoms: C_2  and  N_10 
REMARK    2  A    between atoms: C_3  and  N_4 
REMARK    3  A    between atoms: N_10  and  C_11 
REMARK    4  A    between atoms: C_11  and  C_12 
ROOT
HETATM    1  O   UNL     1     -42.574 -47.855  13.236  1.00  0.00    -0.272 OA
HETATM    2  C   UNL     1     -42.409 -48.769  12.430  1.00  0.00     0.237 C 
HETATM    3  N   UNL     1     -43.055 -49.987  12.522  1.00  0.00    -0.359 N 
HETATM    4  H   UNL     1     -42.685 -50.756  11.968  1.00  0.00     0.162 HD
ENDROOT
BRANCH   3   5
HETATM    5  C   UNL     1     -43.928 -50.313  13.633  1.00  0.00     0.128 C 
BRANCH   5   6
HETATM    6  C   UNL     1     -44.700 -51.617  13.412  1.00  0.00     0.018 C 
HETATM    7  C   UNL     1     -46.156 -51.557  13.913  1.00  0.00     0.022 C 
HETATM    8  C   UNL     1     -46.659 -52.957  14.265  1.00  0.00     0.141 C 
HETATM    9  S   UNL     1     -45.264 -54.050  14.176  1.00  0.00     0.144 S 
HETATM   10  O   UNL     1     -45.148 -54.790  15.413  1.00  0.00    -0.228 OA
HETATM   11  O   UNL     1     -45.270 -54.703  12.881  1.00  0.00    -0.228 OA
HETATM   12  C   UNL     1     -44.031 -52.774  14.148  1.00  0.00     0.146 C 
ENDBRANCH   5   6
ENDBRANCH   3   5
BRANCH   2  13
HETATM   13  C   UNL     1     -41.496 -48.626  11.237  1.00  0.00     0.250 C 
BRANCH  13  14
HETATM   14  N   UNL     1     -40.137 -48.969  11.596  1.00  0.00    -0.295 N 
HETATM   15  C   UNL     1     -39.365 -48.375  12.551  1.00  0.00     0.112 A 
HETATM   16  C   UNL     1     -38.148 -49.014  12.507  1.00  0.00     0.037 A 
HETATM   17  C   UNL     1     -38.285 -49.973  11.489  1.00  0.00     0.108 A 
HETATM   18  N   UNL     1     -39.497 -49.949  10.924  1.00  0.00    -0.310 N 
ATOM     19  HN  UNL     1     -39.852 -50.532  10.166  1.00  0.00     0.186 HD
ENDBRANCH  13  14
ENDBRANCH   2  13
TORSDOF 4
ENDMDL
MODEL 9
REMARK VINA RESULT:      -4.9      5.538      6.822
REMARK  4 active torsions:
REMARK  status: ('A' for Active; 'I' for Inactive)
REMARK    1  A    between atoms: C_2  and  C_3 
REMARK       I    between atoms: C_2  and  N_10 
REMARK    2  A    between atoms: C_3  and  N_4 
REMARK    3  A    between atoms: N_10  and  C_11 
REMARK    4  A    between atoms: C_11  and  C_12 
ROOT
HETATM    1  O   UNL     1     -41.741 -48.035  12.884  1.00  0.00    -0.272 OA
HETATM    2  C   UNL     1     -41.808 -48.607  11.797  1.00  0.00     0.237 C 
HETATM    3  N   UNL     1     -42.156 -49.937  11.660  1.00  0.00    -0.359 N 
HETATM    4  H   UNL     1     -41.953 -50.384  10.770  1.00  0.00     0.162 HD
ENDROOT
BRANCH   3   5
HETATM    5  C   UNL     1     -42.394 -50.792  12.807  1.00  0.00     0.128 C 
BRANCH   5   6
HETATM    6  C   UNL     1     -41.370 -51.925  12.919  1.00  0.00     0.018 C 
HETATM    7  C   UNL     1     -42.011 -53.326  12.960  1.00  0.00     0.022 C 
HETATM    8  C   UNL     1     -41.096 -54.312  13.685  1.00  0.00     0.141 C 
HETATM    9  S   UNL     1     -39.771 -53.370  14.395  1.00  0.00     0.144 S 
HETATM   10  O   UNL     1     -39.667 -53.668  15.807  1.00  0.00    -0.228 OA
HETATM   11  O   UNL     1     -38.629 -53.434  13.504  1.00  0.00    -0.228 OA
HETATM   12  C   UNL     1     -40.543 -51.785  14.194  1.00  0.00     0.146 C 
ENDBRANCH   5   6
ENDBRANCH   3   5
BRANCH   2  13
HETATM   13  C   UNL     1     -41.542 -47.886  10.499  1.00  0.00     0.250 C 
BRANCH  13  14
HETATM   14  N   UNL     1     -42.767 -47.731   9.744  1.00  0.00    -0.295 N 
HETATM   15  C   UNL     1     -43.993 -47.390  10.231  1.00  0.00     0.112 A 
HETATM   16  C   UNL     1     -44.847 -47.399   9.153  1.00  0.00     0.037 A 
HETATM   17  C   UNL     1     -44.038 -47.764   8.063  1.00  0.00     0.108 A 
HETATM   18  N   UNL     1     -42.766 -47.974   8.416  1.00  0.00    -0.310 N 
ATOM     19  HN  UNL     1     -41.984 -48.250   7.824  1.00  0.00     0.186 HD
ENDBRANCH  13  14
ENDBRANCH   2  13
TORSDOF 4
ENDMDL
