MODEL 1
REMARK VINA RESULT:      -6.4      0.000      0.000
REMARK  6 active torsions:
REMARK  status: ('A' for Active; 'I' for Inactive)
REMARK    1  A    between atoms: N_6  and  C_7 
REMARK    2  A    between atoms: C_7  and  C_8 
REMARK    3  A    between atoms: C_8  and  O_9 
REMARK    4  A    between atoms: C_8  and  C_10 
REMARK    5  A    between atoms: C_10  and  C_11 
REMARK    6  A    between atoms: C_16  and  C_17 
ROOT
HETATM    1  C   UNL     1     -45.902 -52.678  12.955  1.00  0.00     0.141 C 
ENDROOT
BRANCH   1   2
HETATM    2  C   UNL     1     -45.448 -54.111  13.318  1.00  0.00     0.165 C 
BRANCH   2   3
HETATM    3  N   UNL     1     -43.996 -54.196  13.511  1.00  0.00    -0.308 N 
HETATM    4  C   UNL     1     -43.142 -53.710  12.557  1.00  0.00     0.186 A 
HETATM    5  N   UNL     1     -41.857 -53.687  12.651  1.00  0.00    -0.355 N 
HETATM    6  C   UNL     1     -41.295 -54.178  13.802  1.00  0.00     0.017 A 
ATOM      7  HN  UNL     1     -41.278 -53.317  11.896  1.00  0.00     0.166 HD
HETATM    8  C   UNL     1     -39.787 -54.118  13.838  1.00  0.00     0.069 C 
HETATM    9  C   UNL     1     -42.009 -54.670  14.832  1.00  0.00     0.028 A 
HETATM   10  C   UNL     1     -43.492 -54.651  14.709  1.00  0.00     0.256 A 
HETATM   11  C   UNL     1     -41.404 -55.224  16.084  1.00  0.00     0.056 C 
HETATM   12  O   UNL     1     -44.213 -55.016  15.641  1.00  0.00    -0.267 OA
ENDBRANCH   2   3
ENDBRANCH   1   2
BRANCH   1  13
HETATM   13  O   UNL     1     -46.790 -52.747  11.831  1.00  0.00    -0.394 OA
HETATM   14  H   UNL     1     -47.593 -52.234  12.039  1.00  0.00     0.210 HD
ENDBRANCH   1  13
BRANCH   1  15
HETATM   15  C   UNL     1     -46.610 -51.969  14.131  1.00  0.00     0.072 C 
BRANCH  15  16
HETATM   16  C   UNL     1     -45.660 -51.134  14.983  1.00  0.00    -0.041 A 
HETATM   17  C   UNL     1     -44.467 -50.702  14.367  1.00  0.00     0.008 A 
HETATM   18  C   UNL     1     -43.528 -49.926  15.051  1.00  0.00     0.001 A 
HETATM   19  C   UNL     1     -43.760 -49.559  16.369  1.00  0.00     0.001 A 
HETATM   20  C   UNL     1     -44.933 -49.968  16.997  1.00  0.00     0.017 A 
HETATM   21  C   UNL     1     -45.903 -50.749  16.324  1.00  0.00     0.054 A 
BRANCH  21  22
HETATM   22  C   UNL     1     -47.128 -51.111  17.138  1.00  0.00     0.418 C 
HETATM   23  F   UNL     1     -48.325 -50.766  16.583  1.00  0.00    -0.166 F 
HETATM   24  F   UNL     1     -47.206 -52.452  17.373  1.00  0.00    -0.166 F 
HETATM   25  F   UNL     1     -47.125 -50.526  18.371  1.00  0.00    -0.166 F 
ENDBRANCH  21  22
ENDBRANCH  15  16
ENDBRANCH   1  15
TORSDOF 6
ENDMDL
MODEL 2
REMARK VINA RESULT:      -6.4      2.198      2.892
REMARK  6 active torsions:
REMARK  status: ('A' for Active; 'I' for Inactive)
REMARK    1  A    between atoms: N_6  and  C_7 
REMARK    2  A    between atoms: C_7  and  C_8 
REMARK    3  A    between atoms: C_8  and  O_9 
REMARK    4  A    between atoms: C_8  and  C_10 
REMARK    5  A    between atoms: C_10  and  C_11 
REMARK    6  A    between atoms: C_16  and  C_17 
ROOT
HETATM    1  C   UNL     1     -46.457 -54.078  15.021  1.00  0.00     0.141 C 
ENDROOT
BRANCH   1   2
HETATM    2  C   UNL     1     -45.751 -54.980  13.982  1.00  0.00     0.165 C 
BRANCH   2   3
HETATM    3  N   UNL     1     -44.470 -54.413  13.543  1.00  0.00    -0.308 N 
HETATM    4  C   UNL     1     -44.430 -53.515  12.510  1.00  0.00     0.186 A 
HETATM    5  N   UNL     1     -43.369 -52.921  12.082  1.00  0.00    -0.355 N 
HETATM    6  C   UNL     1     -42.185 -53.199  12.717  1.00  0.00     0.017 A 
ATOM      7  HN  UNL     1     -43.409 -52.267  11.299  1.00  0.00     0.166 HD
HETATM    8  C   UNL     1     -40.989 -52.466  12.160  1.00  0.00     0.069 C 
HETATM    9  C   UNL     1     -42.076 -54.046  13.758  1.00  0.00     0.028 A 
HETATM   10  C   UNL     1     -43.323 -54.690  14.252  1.00  0.00     0.256 A 
HETATM   11  C   UNL     1     -40.785 -54.369  14.445  1.00  0.00     0.056 C 
HETATM   12  O   UNL     1     -43.311 -55.419  15.247  1.00  0.00    -0.267 OA
ENDBRANCH   2   3
ENDBRANCH   1   2
BRANCH   1  13
HETATM   13  O   UNL     1     -45.778 -54.203  16.277  1.00  0.00    -0.394 OA
HETATM   14  H   UNL     1     -44.844 -54.425  16.104  1.00  0.00     0.210 HD
ENDBRANCH   1  13
BRANCH   1  15
HETATM   15  C   UNL     1     -46.483 -52.594  14.591  1.00  0.00     0.072 C 
BRANCH  15  16
HETATM   16  C   UNL     1     -46.545 -51.632  15.772  1.00  0.00    -0.041 A 
HETATM   17  C   UNL     1     -47.769 -51.561  16.470  1.00  0.00     0.008 A 
HETATM   18  C   UNL     1     -47.936 -50.719  17.572  1.00  0.00     0.001 A 
HETATM   19  C   UNL     1     -46.883 -49.928  18.007  1.00  0.00     0.001 A 
HETATM   20  C   UNL     1     -45.663 -49.986  17.339  1.00  0.00     0.017 A 
HETATM   21  C   UNL     1     -45.465 -50.835  16.224  1.00  0.00     0.054 A 
BRANCH  21  22
HETATM   22  C   UNL     1     -44.082 -50.791  15.608  1.00  0.00     0.418 C 
HETATM   23  F   UNL     1     -44.047 -50.612  14.256  1.00  0.00    -0.166 F 
HETATM   24  F   UNL     1     -43.324 -49.784  16.130  1.00  0.00    -0.166 F 
HETATM   25  F   UNL     1     -43.374 -51.934  15.836  1.00  0.00    -0.166 F 
ENDBRANCH  21  22
ENDBRANCH  15  16
ENDBRANCH   1  15
TORSDOF 6
ENDMDL
MODEL 3
REMARK VINA RESULT:      -6.2      4.389      5.977
REMARK  6 active torsions:
REMARK  status: ('A' for Active; 'I' for Inactive)
REMARK    1  A    between atoms: N_6  and  C_7 
REMARK    2  A    between atoms: C_7  and  C_8 
REMARK    3  A    between atoms: C_8  and  O_9 
REMARK    4  A    between atoms: C_8  and  C_10 
REMARK    5  A    between atoms: C_10  and  C_11 
REMARK    6  A    between atoms: C_16  and  C_17 
ROOT
HETATM    1  C   UNL     1     -41.015 -52.295  12.176  1.00  0.00     0.141 C 
ENDROOT
BRANCH   1   2
HETATM    2  C   UNL     1     -39.786 -51.483  12.646  1.00  0.00     0.165 C 
BRANCH   2   3
HETATM    3  N   UNL     1     -39.883 -50.069  12.268  1.00  0.00    -0.308 N 
HETATM    4  C   UNL     1     -40.500 -49.706  11.100  1.00  0.00     0.186 A 
HETATM    5  N   UNL     1     -40.685 -48.494  10.702  1.00  0.00    -0.355 N 
HETATM    6  C   UNL     1     -40.240 -47.483  11.515  1.00  0.00     0.017 A 
ATOM      7  HN  UNL     1     -41.147 -48.295   9.814  1.00  0.00     0.166 HD
HETATM    8  C   UNL     1     -40.492 -46.094  10.982  1.00  0.00     0.069 C 
HETATM    9  C   UNL     1     -39.632 -47.688  12.699  1.00  0.00     0.028 A 
HETATM   10  C   UNL     1     -39.464 -49.097  13.149  1.00  0.00     0.256 A 
HETATM   11  C   UNL     1     -39.127 -46.591  13.584  1.00  0.00     0.056 C 
HETATM   12  O   UNL     1     -38.984 -49.359  14.254  1.00  0.00    -0.267 OA
ENDBRANCH   2   3
ENDBRANCH   1   2
BRANCH   1  13
HETATM   13  O   UNL     1     -40.561 -53.409  11.396  1.00  0.00    -0.394 OA
HETATM   14  H   UNL     1     -41.291 -53.702  10.819  1.00  0.00     0.210 HD
ENDBRANCH   1  13
BRANCH   1  15
HETATM   15  C   UNL     1     -41.870 -52.805  13.358  1.00  0.00     0.072 C 
BRANCH  15  16
HETATM   16  C   UNL     1     -43.341 -52.423  13.239  1.00  0.00    -0.041 A 
HETATM   17  C   UNL     1     -44.195 -53.368  12.633  1.00  0.00     0.008 A 
HETATM   18  C   UNL     1     -45.562 -53.126  12.478  1.00  0.00     0.001 A 
HETATM   19  C   UNL     1     -46.111 -51.935  12.929  1.00  0.00     0.001 A 
HETATM   20  C   UNL     1     -45.290 -50.990  13.537  1.00  0.00     0.017 A 
HETATM   21  C   UNL     1     -43.903 -51.213  13.712  1.00  0.00     0.054 A 
BRANCH  21  22
HETATM   22  C   UNL     1     -43.144 -50.094  14.395  1.00  0.00     0.418 C 
HETATM   23  F   UNL     1     -41.995 -50.465  15.029  1.00  0.00    -0.166 F 
HETATM   24  F   UNL     1     -42.778 -49.117  13.516  1.00  0.00    -0.166 F 
HETATM   25  F   UNL     1     -43.890 -49.464  15.347  1.00  0.00    -0.166 F 
ENDBRANCH  21  22
ENDBRANCH  15  16
ENDBRANCH   1  15
TORSDOF 6
ENDMDL
MODEL 4
REMARK VINA RESULT:      -6.2      4.308      5.829
REMARK  6 active torsions:
REMARK  status: ('A' for Active; 'I' for Inactive)
REMARK    1  A    between atoms: N_6  and  C_7 
REMARK    2  A    between atoms: C_7  and  C_8 
REMARK    3  A    between atoms: C_8  and  O_9 
REMARK    4  A    between atoms: C_8  and  C_10 
REMARK    5  A    between atoms: C_10  and  C_11 
REMARK    6  A    between atoms: C_16  and  C_17 
ROOT
HETATM    1  C   UNL     1     -40.993 -52.415  12.430  1.00  0.00     0.141 C 
ENDROOT
BRANCH   1   2
HETATM    2  C   UNL     1     -39.736 -51.603  12.818  1.00  0.00     0.165 C 
BRANCH   2   3
HETATM    3  N   UNL     1     -39.831 -50.203  12.389  1.00  0.00    -0.308 N 
HETATM    4  C   UNL     1     -40.441 -49.882  11.206  1.00  0.00     0.186 A 
HETATM    5  N   UNL     1     -40.624 -48.685  10.764  1.00  0.00    -0.355 N 
HETATM    6  C   UNL     1     -40.184 -47.646  11.543  1.00  0.00     0.017 A 
ATOM      7  HN  UNL     1     -41.081 -48.518   9.867  1.00  0.00     0.166 HD
HETATM    8  C   UNL     1     -40.433 -46.276  10.959  1.00  0.00     0.069 C 
HETATM    9  C   UNL     1     -39.583 -47.809  12.737  1.00  0.00     0.028 A 
HETATM   10  C   UNL     1     -39.418 -49.200  13.238  1.00  0.00     0.256 A 
HETATM   11  C   UNL     1     -39.083 -46.681  13.586  1.00  0.00     0.056 C 
HETATM   12  O   UNL     1     -38.944 -49.423  14.355  1.00  0.00    -0.267 OA
ENDBRANCH   2   3
ENDBRANCH   1   2
BRANCH   1  13
HETATM   13  O   UNL     1     -40.620 -53.412  11.469  1.00  0.00    -0.394 OA
HETATM   14  H   UNL     1     -41.260 -54.146  11.520  1.00  0.00     0.210 HD
ENDBRANCH   1  13
BRANCH   1  15
HETATM   15  C   UNL     1     -41.654 -53.094  13.651  1.00  0.00     0.072 C 
BRANCH  15  16
HETATM   16  C   UNL     1     -42.939 -52.403  14.095  1.00  0.00    -0.041 A 
HETATM   17  C   UNL     1     -42.819 -51.078  14.562  1.00  0.00     0.008 A 
HETATM   18  C   UNL     1     -43.931 -50.347  14.987  1.00  0.00     0.001 A 
HETATM   19  C   UNL     1     -45.193 -50.923  14.953  1.00  0.00     0.001 A 
HETATM   20  C   UNL     1     -45.338 -52.227  14.490  1.00  0.00     0.017 A 
HETATM   21  C   UNL     1     -44.228 -52.987  14.048  1.00  0.00     0.054 A 
BRANCH  21  22
HETATM   22  C   UNL     1     -44.547 -54.388  13.568  1.00  0.00     0.418 C 
HETATM   23  F   UNL     1     -45.865 -54.736  13.605  1.00  0.00    -0.166 F 
HETATM   24  F   UNL     1     -44.151 -54.586  12.278  1.00  0.00    -0.166 F 
HETATM   25  F   UNL     1     -43.904 -55.346  14.296  1.00  0.00    -0.166 F 
ENDBRANCH  21  22
ENDBRANCH  15  16
ENDBRANCH   1  15
TORSDOF 6
ENDMDL
MODEL 5
REMARK VINA RESULT:      -6.1      3.855      5.007
REMARK  6 active torsions:
REMARK  status: ('A' for Active; 'I' for Inactive)
REMARK    1  A    between atoms: N_6  and  C_7 
REMARK    2  A    between atoms: C_7  and  C_8 
REMARK    3  A    between atoms: C_8  and  O_9 
REMARK    4  A    between atoms: C_8  and  C_10 
REMARK    5  A    between atoms: C_10  and  C_11 
REMARK    6  A    between atoms: C_16  and  C_17 
ROOT
HETATM    1  C   UNL     1     -42.986 -51.537  12.920  1.00  0.00     0.141 C 
ENDROOT
BRANCH   1   2
HETATM    2  C   UNL     1     -42.302 -50.158  13.064  1.00  0.00     0.165 C 
BRANCH   2   3
HETATM    3  N   UNL     1     -40.922 -50.174  12.565  1.00  0.00    -0.308 N 
HETATM    4  C   UNL     1     -40.658 -49.881  11.254  1.00  0.00     0.186 A 
HETATM    5  N   UNL     1     -39.482 -49.816  10.729  1.00  0.00    -0.355 N 
HETATM    6  C   UNL     1     -38.406 -50.045  11.548  1.00  0.00     0.017 A 
ATOM      7  HN  UNL     1     -39.357 -49.600   9.740  1.00  0.00     0.166 HD
HETATM    8  C   UNL     1     -37.065 -49.951  10.863  1.00  0.00     0.069 C 
HETATM    9  C   UNL     1     -38.513 -50.326  12.861  1.00  0.00     0.028 A 
HETATM   10  C   UNL     1     -39.881 -50.360  13.447  1.00  0.00     0.256 A 
HETATM   11  C   UNL     1     -37.345 -50.596  13.759  1.00  0.00     0.056 C 
HETATM   12  O   UNL     1     -40.051 -50.537  14.655  1.00  0.00    -0.267 OA
ENDBRANCH   2   3
ENDBRANCH   1   2
BRANCH   1  13
HETATM   13  O   UNL     1     -42.183 -52.362  12.064  1.00  0.00    -0.394 OA
HETATM   14  H   UNL     1     -42.655 -53.202  11.913  1.00  0.00     0.210 HD
ENDBRANCH   1  13
BRANCH   1  15
HETATM   15  C   UNL     1     -43.184 -52.241  14.281  1.00  0.00     0.072 C 
BRANCH  15  16
HETATM   16  C   UNL     1     -44.650 -52.363  14.683  1.00  0.00    -0.041 A 
HETATM   17  C   UNL     1     -45.236 -51.237  15.297  1.00  0.00     0.008 A 
HETATM   18  C   UNL     1     -46.574 -51.236  15.700  1.00  0.00     0.001 A 
HETATM   19  C   UNL     1     -47.361 -52.360  15.494  1.00  0.00     0.001 A 
HETATM   20  C   UNL     1     -46.807 -53.481  14.883  1.00  0.00     0.017 A 
HETATM   21  C   UNL     1     -45.455 -53.506  14.461  1.00  0.00     0.054 A 
BRANCH  21  22
HETATM   22  C   UNL     1     -45.001 -54.794  13.808  1.00  0.00     0.418 C 
HETATM   23  F   UNL     1     -45.962 -55.750  13.660  1.00  0.00    -0.166 F 
HETATM   24  F   UNL     1     -44.500 -54.582  12.557  1.00  0.00    -0.166 F 
HETATM   25  F   UNL     1     -43.996 -55.403  14.502  1.00  0.00    -0.166 F 
ENDBRANCH  21  22
ENDBRANCH  15  16
ENDBRANCH   1  15
TORSDOF 6
ENDMDL
MODEL 6
REMARK VINA RESULT:      -6.1      4.686      6.639
REMARK  6 active torsions:
REMARK  status: ('A' for Active; 'I' for Inactive)
REMARK    1  A    between atoms: N_6  and  C_7 
REMARK    2  A    between atoms: C_7  and  C_8 
REMARK    3  A    between atoms: C_8  and  O_9 
REMARK    4  A    between atoms: C_8  and  C_10 
REMARK    5  A    between atoms: C_10  and  C_11 
REMARK    6  A    between atoms: C_16  and  C_17 
ROOT
HETATM    1  C   UNL     1     -40.878 -51.966  12.228  1.00  0.00     0.141 C 
ENDROOT
BRANCH   1   2
HETATM    2  C   UNL     1     -39.615 -51.074  12.242  1.00  0.00     0.165 C 
BRANCH   2   3
HETATM    3  N   UNL     1     -39.920 -49.684  11.881  1.00  0.00    -0.308 N 
HETATM    4  C   UNL     1     -40.707 -49.409  10.794  1.00  0.00     0.186 A 
HETATM    5  N   UNL     1     -41.077 -48.232  10.422  1.00  0.00    -0.355 N 
HETATM    6  C   UNL     1     -40.660 -47.166  11.179  1.00  0.00     0.017 A 
ATOM      7  HN  UNL     1     -41.659 -48.097   9.595  1.00  0.00     0.166 HD
HETATM    8  C   UNL     1     -41.132 -45.822  10.682  1.00  0.00     0.069 C 
HETATM    9  C   UNL     1     -39.898 -47.286  12.284  1.00  0.00     0.028 A 
HETATM   10  C   UNL     1     -39.517 -48.660  12.708  1.00  0.00     0.256 A 
HETATM   11  C   UNL     1     -39.424 -46.127  13.105  1.00  0.00     0.056 C 
HETATM   12  O   UNL     1     -38.884 -48.852  13.749  1.00  0.00    -0.267 OA
ENDBRANCH   2   3
ENDBRANCH   1   2
BRANCH   1  13
HETATM   13  O   UNL     1     -40.517 -53.267  11.745  1.00  0.00    -0.394 OA
HETATM   14  H   UNL     1     -39.544 -53.329  11.718  1.00  0.00     0.210 HD
ENDBRANCH   1  13
BRANCH   1  15
HETATM   15  C   UNL     1     -41.522 -52.094  13.627  1.00  0.00     0.072 C 
BRANCH  15  16
HETATM   16  C   UNL     1     -42.724 -53.033  13.647  1.00  0.00    -0.041 A 
HETATM   17  C   UNL     1     -43.797 -52.710  12.791  1.00  0.00     0.008 A 
HETATM   18  C   UNL     1     -44.944 -53.504  12.722  1.00  0.00     0.001 A 
HETATM   19  C   UNL     1     -45.046 -54.644  13.506  1.00  0.00     0.001 A 
HETATM   20  C   UNL     1     -43.997 -54.988  14.353  1.00  0.00     0.017 A 
HETATM   21  C   UNL     1     -42.821 -54.204  14.437  1.00  0.00     0.054 A 
BRANCH  21  22
HETATM   22  C   UNL     1     -41.767 -54.710  15.400  1.00  0.00     0.418 C 
HETATM   23  F   UNL     1     -41.511 -53.903  16.468  1.00  0.00    -0.166 F 
HETATM   24  F   UNL     1     -42.101 -55.923  15.929  1.00  0.00    -0.166 F 
HETATM   25  F   UNL     1     -40.558 -54.899  14.797  1.00  0.00    -0.166 F 
ENDBRANCH  21  22
ENDBRANCH  15  16
ENDBRANCH   1  15
TORSDOF 6
ENDMDL
MODEL 7
REMARK VINA RESULT:      -6.0      4.438      6.192
REMARK  6 active torsions:
REMARK  status: ('A' for Active; 'I' for Inactive)
REMARK    1  A    between atoms: N_6  and  C_7 
REMARK    2  A    between atoms: C_7  and  C_8 
REMARK    3  A    between atoms: C_8  and  O_9 
REMARK    4  A    between atoms: C_8  and  C_10 
REMARK    5  A    between atoms: C_10  and  C_11 
REMARK    6  A    between atoms: C_16  and  C_17 
ROOT
HETATM    1  C   UNL     1     -42.735 -51.281  12.877  1.00  0.00     0.141 C 
ENDROOT
BRANCH   1   2
HETATM    2  C   UNL     1     -41.595 -50.252  13.058  1.00  0.00     0.165 C 
BRANCH   2   3
HETATM    3  N   UNL     1     -41.819 -49.037  12.267  1.00  0.00    -0.308 N 
HETATM    4  C   UNL     1     -43.091 -48.657  11.930  1.00  0.00     0.186 A 
HETATM    5  N   UNL     1     -43.401 -47.584  11.286  1.00  0.00    -0.355 N 
HETATM    6  C   UNL     1     -42.379 -46.748  10.916  1.00  0.00     0.017 A 
ATOM      7  HN  UNL     1     -44.371 -47.366  11.059  1.00  0.00     0.166 HD
HETATM    8  C   UNL     1     -42.819 -45.514  10.167  1.00  0.00     0.069 C 
HETATM    9  C   UNL     1     -41.082 -46.983  11.195  1.00  0.00     0.028 A 
HETATM   10  C   UNL     1     -40.759 -48.211  11.971  1.00  0.00     0.256 A 
HETATM   11  C   UNL     1     -39.958 -46.084  10.780  1.00  0.00     0.056 C 
HETATM   12  O   UNL     1     -39.603 -48.453  12.326  1.00  0.00    -0.267 OA
ENDBRANCH   2   3
ENDBRANCH   1   2
BRANCH   1  13
HETATM   13  O   UNL     1     -42.412 -52.135  11.770  1.00  0.00    -0.394 OA
HETATM   14  H   UNL     1     -42.903 -52.972  11.872  1.00  0.00     0.210 HD
ENDBRANCH   1  13
BRANCH   1  15
HETATM   15  C   UNL     1     -42.962 -52.138  14.143  1.00  0.00     0.072 C 
BRANCH  15  16
HETATM   16  C   UNL     1     -44.432 -52.251  14.531  1.00  0.00    -0.041 A 
HETATM   17  C   UNL     1     -45.024 -51.114  15.118  1.00  0.00     0.008 A 
HETATM   18  C   UNL     1     -46.366 -51.104  15.505  1.00  0.00     0.001 A 
HETATM   19  C   UNL     1     -47.151 -52.231  15.313  1.00  0.00     0.001 A 
HETATM   20  C   UNL     1     -46.592 -53.363  14.729  1.00  0.00     0.017 A 
HETATM   21  C   UNL     1     -45.236 -53.397  14.322  1.00  0.00     0.054 A 
BRANCH  21  22
HETATM   22  C   UNL     1     -44.776 -54.698  13.698  1.00  0.00     0.418 C 
HETATM   23  F   UNL     1     -43.760 -55.335  14.349  1.00  0.00    -0.166 F 
HETATM   24  F   UNL     1     -45.787 -55.610  13.617  1.00  0.00    -0.166 F 
HETATM   25  F   UNL     1     -44.332 -54.535  12.419  1.00  0.00    -0.166 F 
ENDBRANCH  21  22
ENDBRANCH  15  16
ENDBRANCH   1  15
TORSDOF 6
ENDMDL
MODEL 8
REMARK VINA RESULT:      -5.9      3.862      5.076
REMARK  6 active torsions:
REMARK  status: ('A' for Active; 'I' for Inactive)
REMARK    1  A    between atoms: N_6  and  C_7 
REMARK    2  A    between atoms: C_7  and  C_8 
REMARK    3  A    between atoms: C_8  and  O_9 
REMARK    4  A    between atoms: C_8  and  C_10 
REMARK    5  A    between atoms: C_10  and  C_11 
REMARK    6  A    between atoms: C_16  and  C_17 
ROOT
HETATM    1  C   UNL     1     -42.999 -49.799  13.908  1.00  0.00     0.141 C 
ENDROOT
BRANCH   1   2
HETATM    2  C   UNL     1     -42.373 -48.702  13.016  1.00  0.00     0.165 C 
BRANCH   2   3
HETATM    3  N   UNL     1     -41.009 -49.046  12.596  1.00  0.00    -0.308 N 
HETATM    4  C   UNL     1     -40.786 -49.613  11.370  1.00  0.00     0.186 A 
HETATM    5  N   UNL     1     -39.628 -49.904  10.885  1.00  0.00    -0.355 N 
HETATM    6  C   UNL     1     -38.527 -49.615  11.650  1.00  0.00     0.017 A 
ATOM      7  HN  UNL     1     -39.533 -50.335   9.964  1.00  0.00     0.166 HD
HETATM    8  C   UNL     1     -37.208 -49.984  11.016  1.00  0.00     0.069 C 
HETATM    9  C   UNL     1     -38.593 -49.041  12.867  1.00  0.00     0.028 A 
HETATM   10  C   UNL     1     -39.941 -48.684  13.385  1.00  0.00     0.256 A 
HETATM   11  C   UNL     1     -37.397 -48.738  13.717  1.00  0.00     0.056 C 
HETATM   12  O   UNL     1     -40.073 -48.089  14.458  1.00  0.00    -0.267 OA
ENDBRANCH   2   3
ENDBRANCH   1   2
BRANCH   1  13
HETATM   13  O   UNL     1     -43.486 -49.190  15.112  1.00  0.00    -0.394 OA
HETATM   14  H   UNL     1     -42.744 -49.111  15.741  1.00  0.00     0.210 HD
ENDBRANCH   1  13
BRANCH   1  15
HETATM   15  C   UNL     1     -44.153 -50.544  13.202  1.00  0.00     0.072 C 
BRANCH  15  16
HETATM   16  C   UNL     1     -44.284 -51.998  13.644  1.00  0.00    -0.041 A 
HETATM   17  C   UNL     1     -43.209 -52.856  13.334  1.00  0.00     0.008 A 
HETATM   18  C   UNL     1     -43.219 -54.204  13.697  1.00  0.00     0.001 A 
HETATM   19  C   UNL     1     -44.304 -54.729  14.384  1.00  0.00     0.001 A 
HETATM   20  C   UNL     1     -45.374 -53.900  14.708  1.00  0.00     0.017 A 
HETATM   21  C   UNL     1     -45.386 -52.529  14.357  1.00  0.00     0.054 A 
BRANCH  21  22
HETATM   22  C   UNL     1     -46.618 -51.757  14.783  1.00  0.00     0.418 C 
HETATM   23  F   UNL     1     -47.253 -51.070  13.792  1.00  0.00    -0.166 F 
HETATM   24  F   UNL     1     -47.566 -52.573  15.329  1.00  0.00    -0.166 F 
HETATM   25  F   UNL     1     -46.343 -50.828  15.743  1.00  0.00    -0.166 F 
ENDBRANCH  21  22
ENDBRANCH  15  16
ENDBRANCH   1  15
TORSDOF 6
ENDMDL
MODEL 9
REMARK VINA RESULT:      -5.9      2.437      3.316
REMARK  6 active torsions:
REMARK  status: ('A' for Active; 'I' for Inactive)
REMARK    1  A    between atoms: N_6  and  C_7 
REMARK    2  A    between atoms: C_7  and  C_8 
REMARK    3  A    between atoms: C_8  and  O_9 
REMARK    4  A    between atoms: C_8  and  C_10 
REMARK    5  A    between atoms: C_10  and  C_11 
REMARK    6  A    between atoms: C_16  and  C_17 
ROOT
HETATM    1  C   UNL     1     -42.397 -51.146  12.677  1.00  0.00     0.141 C 
ENDROOT
BRANCH   1   2
HETATM    2  C   UNL     1     -42.542 -52.670  12.461  1.00  0.00     0.165 C 
BRANCH   2   3
HETATM    3  N   UNL     1     -42.074 -53.437  13.621  1.00  0.00    -0.308 N 
HETATM    4  C   UNL     1     -42.974 -53.967  14.507  1.00  0.00     0.186 A 
HETATM    5  N   UNL     1     -42.672 -54.698  15.526  1.00  0.00    -0.355 N 
HETATM    6  C   UNL     1     -41.346 -54.980  15.735  1.00  0.00     0.017 A 
ATOM      7  HN  UNL     1     -43.394 -55.055  16.152  1.00  0.00     0.166 HD
HETATM    8  C   UNL     1     -41.072 -55.840  16.945  1.00  0.00     0.069 C 
HETATM    9  C   UNL     1     -40.353 -54.543  14.937  1.00  0.00     0.028 A 
HETATM   10  C   UNL     1     -40.735 -53.731  13.750  1.00  0.00     0.256 A 
HETATM   11  C   UNL     1     -38.902 -54.830  15.169  1.00  0.00     0.056 C 
HETATM   12  O   UNL     1     -39.888 -53.359  12.934  1.00  0.00    -0.267 OA
ENDBRANCH   2   3
ENDBRANCH   1   2
BRANCH   1  13
HETATM   13  O   UNL     1     -41.690 -50.587  11.561  1.00  0.00    -0.394 OA
HETATM   14  H   UNL     1     -40.835 -51.049  11.474  1.00  0.00     0.210 HD
ENDBRANCH   1  13
BRANCH   1  15
HETATM   15  C   UNL     1     -43.763 -50.440  12.830  1.00  0.00     0.072 C 
BRANCH  15  16
HETATM   16  C   UNL     1     -44.336 -50.547  14.239  1.00  0.00    -0.041 A 
HETATM   17  C   UNL     1     -43.649 -49.855  15.258  1.00  0.00     0.008 A 
HETATM   18  C   UNL     1     -44.088 -49.878  16.584  1.00  0.00     0.001 A 
HETATM   19  C   UNL     1     -45.229 -50.590  16.924  1.00  0.00     0.001 A 
HETATM   20  C   UNL     1     -45.928 -51.275  15.935  1.00  0.00     0.017 A 
HETATM   21  C   UNL     1     -45.508 -51.263  14.583  1.00  0.00     0.054 A 
BRANCH  21  22
HETATM   22  C   UNL     1     -46.375 -52.051  13.624  1.00  0.00     0.418 C 
HETATM   23  F   UNL     1     -45.708 -52.897  12.788  1.00  0.00    -0.166 F 
HETATM   24  F   UNL     1     -47.285 -52.827  14.280  1.00  0.00    -0.166 F 
HETATM   25  F   UNL     1     -47.110 -51.245  12.805  1.00  0.00    -0.166 F 
ENDBRANCH  21  22
ENDBRANCH  15  16
ENDBRANCH   1  15
TORSDOF 6
ENDMDL
