MODEL 1
REMARK VINA RESULT:      -5.5      0.000      0.000
REMARK  4 active torsions:
REMARK  status: ('A' for Active; 'I' for Inactive)
REMARK       I    between atoms: N_1  and  C_2 
REMARK    1  A    between atoms: C_2  and  C_4 
REMARK    2  A    between atoms: C_7  and  C_8 
REMARK    3  A    between atoms: C_8  and  N_9 
REMARK    4  A    between atoms: N_9  and  C_10 
ROOT
HETATM    1  C   UNL     1     -39.707 -51.263  12.793  1.00  0.00     0.127 C 
ENDROOT
BRANCH   1   2
HETATM    2  C   UNL     1     -39.469 -50.060  11.860  1.00  0.00     0.136 C 
HETATM    3  C   UNL     1     -39.330 -48.765  12.645  1.00  0.00     0.036 C 
HETATM    4  C   UNL     1     -40.713 -48.154  12.640  1.00  0.00     0.044 C 
HETATM    5  C   UNL     1     -41.528 -49.009  11.681  1.00  0.00     0.213 C 
HETATM    6  O   UNL     1     -40.599 -49.857  10.990  1.00  0.00    -0.370 OA
BRANCH   5   7
HETATM    7  C   UNL     1     -42.391 -48.147  10.752  1.00  0.00     0.244 C 
HETATM    8  N   UNL     1     -42.025 -48.170   9.438  1.00  0.00    -0.368 N 
HETATM    9  H   UNL     1     -42.557 -47.635   8.767  1.00  0.00     0.159 HD
HETATM   10  H   UNL     1     -41.230 -48.725   9.143  1.00  0.00     0.159 HD
HETATM   11  O   UNL     1     -43.352 -47.489  11.137  1.00  0.00    -0.271 OA
ENDBRANCH   5   7
ENDBRANCH   1   2
BRANCH   1  12
HETATM   12  N   UNL     1     -40.087 -52.442  12.027  1.00  0.00    -0.262 NA
HETATM   13  H   UNL     1     -40.128 -52.307  11.020  1.00  0.00     0.130 HD
BRANCH  12  14
HETATM   14  C   UNL     1     -41.300 -52.985  12.426  1.00  0.00     0.157 A 
HETATM   15  N   UNL     1     -42.399 -52.521  11.816  1.00  0.00    -0.341 N 
HETATM   16  C   UNL     1     -43.586 -53.035  12.219  1.00  0.00     0.116 A 
ATOM     17  HN  UNL     1     -42.345 -51.815  11.083  1.00  0.00     0.167 HD
HETATM   18  C   UNL     1     -43.713 -53.976  13.212  1.00  0.00     0.064 A 
HETATM   19 CL   UNL     1     -45.226 -54.584  13.719  1.00  0.00    -0.081 Cl
HETATM   20  C   UNL     1     -42.532 -54.385  13.776  1.00  0.00     0.116 A 
HETATM   21  N   UNL     1     -41.325 -53.909  13.403  1.00  0.00    -0.341 N 
ATOM     22  HN  UNL     1     -40.467 -54.236  13.844  1.00  0.00     0.167 HD
ENDBRANCH  12  14
ENDBRANCH   1  12
TORSDOF 4
ENDMDL
MODEL 2
REMARK VINA RESULT:      -5.4      1.791      2.452
REMARK  4 active torsions:
REMARK  status: ('A' for Active; 'I' for Inactive)
REMARK       I    between atoms: N_1  and  C_2 
REMARK    1  A    between atoms: C_2  and  C_4 
REMARK    2  A    between atoms: C_7  and  C_8 
REMARK    3  A    between atoms: C_8  and  N_9 
REMARK    4  A    between atoms: N_9  and  C_10 
ROOT
HETATM    1  C   UNL     1     -41.879 -49.501  11.954  1.00  0.00     0.127 C 
ENDROOT
BRANCH   1   2
HETATM    2  C   UNL     1     -41.227 -48.401  11.094  1.00  0.00     0.136 C 
HETATM    3  C   UNL     1     -41.340 -47.036  11.757  1.00  0.00     0.036 C 
HETATM    4  C   UNL     1     -42.573 -46.407  11.150  1.00  0.00     0.044 C 
HETATM    5  C   UNL     1     -42.988 -47.340  10.022  1.00  0.00     0.213 C 
HETATM    6  O   UNL     1     -41.910 -48.267   9.832  1.00  0.00    -0.370 OA
BRANCH   5   7
HETATM    7  C   UNL     1     -43.366 -46.561   8.757  1.00  0.00     0.244 C 
HETATM    8  N   UNL     1     -43.329 -47.284   7.601  1.00  0.00    -0.368 N 
HETATM    9  H   UNL     1     -43.578 -46.838   6.730  1.00  0.00     0.159 HD
HETATM   10  H   UNL     1     -43.059 -48.260   7.623  1.00  0.00     0.159 HD
HETATM   11  O   UNL     1     -43.696 -45.379   8.763  1.00  0.00    -0.271 OA
ENDBRANCH   5   7
ENDBRANCH   1   2
BRANCH   1  12
HETATM   12  N   UNL     1     -41.499 -50.823  11.473  1.00  0.00    -0.262 NA
HETATM   13  H   UNL     1     -41.777 -51.030  10.517  1.00  0.00     0.130 HD
BRANCH  12  14
HETATM   14  C   UNL     1     -41.966 -51.852  12.277  1.00  0.00     0.157 A 
HETATM   15  N   UNL     1     -41.343 -52.030  13.451  1.00  0.00    -0.341 N 
HETATM   16  C   UNL     1     -41.783 -53.048  14.229  1.00  0.00     0.116 A 
ATOM     17  HN  UNL     1     -40.574 -51.427  13.745  1.00  0.00     0.167 HD
HETATM   18  C   UNL     1     -42.802 -53.896  13.872  1.00  0.00     0.064 A 
HETATM   19 CL   UNL     1     -43.316 -55.190  14.862  1.00  0.00    -0.081 Cl
HETATM   20  C   UNL     1     -43.373 -53.634  12.653  1.00  0.00     0.116 A 
HETATM   21  N   UNL     1     -42.975 -52.628  11.847  1.00  0.00    -0.341 N 
ATOM     22  HN  UNL     1     -43.424 -52.462  10.947  1.00  0.00     0.167 HD
ENDBRANCH  12  14
ENDBRANCH   1  12
TORSDOF 4
ENDMDL
MODEL 3
REMARK VINA RESULT:      -5.4      3.320      5.658
REMARK  4 active torsions:
REMARK  status: ('A' for Active; 'I' for Inactive)
REMARK       I    between atoms: N_1  and  C_2 
REMARK    1  A    between atoms: C_2  and  C_4 
REMARK    2  A    between atoms: C_7  and  C_8 
REMARK    3  A    between atoms: C_8  and  N_9 
REMARK    4  A    between atoms: N_9  and  C_10 
ROOT
HETATM    1  C   UNL     1     -40.815 -53.769  12.912  1.00  0.00     0.127 C 
ENDROOT
BRANCH   1   2
HETATM    2  C   UNL     1     -41.881 -53.176  13.854  1.00  0.00     0.136 C 
HETATM    3  C   UNL     1     -42.233 -54.142  14.975  1.00  0.00     0.036 C 
HETATM    4  C   UNL     1     -43.460 -54.877  14.487  1.00  0.00     0.044 C 
HETATM    5  C   UNL     1     -43.880 -54.160  13.212  1.00  0.00     0.213 C 
HETATM    6  O   UNL     1     -43.116 -52.947  13.148  1.00  0.00    -0.370 OA
BRANCH   5   7
HETATM    7  C   UNL     1     -45.397 -53.941  13.163  1.00  0.00     0.244 C 
HETATM    8  N   UNL     1     -46.122 -54.732  14.004  1.00  0.00    -0.368 N 
HETATM    9  H   UNL     1     -47.126 -54.633  14.034  1.00  0.00     0.159 HD
HETATM   10  H   UNL     1     -45.652 -55.406  14.597  1.00  0.00     0.159 HD
HETATM   11  O   UNL     1     -45.938 -53.112  12.438  1.00  0.00    -0.271 OA
ENDBRANCH   5   7
ENDBRANCH   1   2
BRANCH   1  12
HETATM   12  N   UNL     1     -40.804 -53.063  11.638  1.00  0.00    -0.262 NA
HETATM   13  H   UNL     1     -40.150 -53.426  10.949  1.00  0.00     0.130 HD
BRANCH  12  14
HETATM   14  C   UNL     1     -40.560 -51.703  11.770  1.00  0.00     0.157 A 
HETATM   15  N   UNL     1     -41.594 -50.881  11.542  1.00  0.00    -0.341 N 
HETATM   16  C   UNL     1     -41.354 -49.552  11.649  1.00  0.00     0.116 A 
ATOM     17  HN  UNL     1     -42.518 -51.239  11.299  1.00  0.00     0.167 HD
HETATM   18  C   UNL     1     -40.126 -49.020  11.957  1.00  0.00     0.064 A 
HETATM   19 CL   UNL     1     -39.847 -47.338  12.056  1.00  0.00    -0.081 Cl
HETATM   20  C   UNL     1     -39.133 -49.942  12.169  1.00  0.00     0.116 A 
HETATM   21  N   UNL     1     -39.326 -51.275  12.083  1.00  0.00    -0.341 N 
ATOM     22  HN  UNL     1     -38.564 -51.932  12.248  1.00  0.00     0.167 HD
ENDBRANCH  12  14
ENDBRANCH   1  12
TORSDOF 4
ENDMDL
MODEL 4
REMARK VINA RESULT:      -5.3      1.878      2.151
REMARK  4 active torsions:
REMARK  status: ('A' for Active; 'I' for Inactive)
REMARK       I    between atoms: N_1  and  C_2 
REMARK    1  A    between atoms: C_2  and  C_4 
REMARK    2  A    between atoms: C_7  and  C_8 
REMARK    3  A    between atoms: C_8  and  N_9 
REMARK    4  A    between atoms: N_9  and  C_10 
ROOT
HETATM    1  C   UNL     1     -40.313 -51.505  12.301  1.00  0.00     0.127 C 
ENDROOT
BRANCH   1   2
HETATM    2  C   UNL     1     -39.663 -50.484  11.346  1.00  0.00     0.136 C 
HETATM    3  C   UNL     1     -38.409 -49.874  11.954  1.00  0.00     0.036 C 
HETATM    4  C   UNL     1     -38.870 -48.583  12.590  1.00  0.00     0.044 C 
HETATM    5  C   UNL     1     -40.312 -48.404  12.141  1.00  0.00     0.213 C 
HETATM    6  O   UNL     1     -40.547 -49.372  11.107  1.00  0.00    -0.370 OA
BRANCH   5   7
HETATM    7  C   UNL     1     -40.595 -46.959  11.713  1.00  0.00     0.244 C 
HETATM    8  N   UNL     1     -40.792 -46.781  10.376  1.00  0.00    -0.368 N 
HETATM    9  H   UNL     1     -40.995 -45.856  10.025  1.00  0.00     0.159 HD
HETATM   10  H   UNL     1     -40.739 -47.573   9.746  1.00  0.00     0.159 HD
HETATM   11  O   UNL     1     -40.658 -46.021  12.501  1.00  0.00    -0.271 OA
ENDBRANCH   5   7
ENDBRANCH   1   2
BRANCH   1  12
HETATM   12  N   UNL     1     -41.330 -52.283  11.606  1.00  0.00    -0.262 NA
HETATM   13  H   UNL     1     -41.386 -52.122  10.603  1.00  0.00     0.130 HD
BRANCH  12  14
HETATM   14  C   UNL     1     -42.603 -52.110  12.130  1.00  0.00     0.157 A 
HETATM   15  N   UNL     1     -42.860 -50.930  12.710  1.00  0.00    -0.341 N 
HETATM   16  C   UNL     1     -44.096 -50.766  13.241  1.00  0.00     0.116 A 
ATOM     17  HN  UNL     1     -42.160 -50.190  12.751  1.00  0.00     0.167 HD
HETATM   18  C   UNL     1     -45.068 -51.736  13.227  1.00  0.00     0.064 A 
HETATM   19 CL   UNL     1     -46.608 -51.511  13.931  1.00  0.00    -0.081 Cl
HETATM   20  C   UNL     1     -44.707 -52.908  12.613  1.00  0.00     0.116 A 
HETATM   21  N   UNL     1     -43.492 -53.115  12.062  1.00  0.00    -0.341 N 
ATOM     22  HN  UNL     1     -43.258 -54.000  11.613  1.00  0.00     0.167 HD
ENDBRANCH  12  14
ENDBRANCH   1  12
TORSDOF 4
ENDMDL
MODEL 5
REMARK VINA RESULT:      -5.2      3.764      6.510
REMARK  4 active torsions:
REMARK  status: ('A' for Active; 'I' for Inactive)
REMARK       I    between atoms: N_1  and  C_2 
REMARK    1  A    between atoms: C_2  and  C_4 
REMARK    2  A    between atoms: C_7  and  C_8 
REMARK    3  A    between atoms: C_8  and  N_9 
REMARK    4  A    between atoms: N_9  and  C_10 
ROOT
HETATM    1  C   UNL     1     -41.204 -51.173  12.181  1.00  0.00     0.127 C 
ENDROOT
BRANCH   1   2
HETATM    2  C   UNL     1     -40.949 -52.693  12.176  1.00  0.00     0.136 C 
HETATM    3  C   UNL     1     -42.041 -53.444  12.923  1.00  0.00     0.036 C 
HETATM    4  C   UNL     1     -41.502 -53.629  14.323  1.00  0.00     0.044 C 
HETATM    5  C   UNL     1     -40.053 -53.169  14.261  1.00  0.00     0.213 C 
HETATM    6  O   UNL     1     -39.728 -53.008  12.873  1.00  0.00    -0.370 OA
BRANCH   5   7
HETATM    7  C   UNL     1     -39.124 -54.134  15.008  1.00  0.00     0.244 C 
HETATM    8  N   UNL     1     -38.601 -55.137  14.247  1.00  0.00    -0.368 N 
HETATM    9  H   UNL     1     -37.971 -55.802  14.671  1.00  0.00     0.159 HD
HETATM   10  H   UNL     1     -38.841 -55.206  13.265  1.00  0.00     0.159 HD
HETATM   11  O   UNL     1     -38.847 -54.021  16.198  1.00  0.00    -0.271 OA
ENDBRANCH   5   7
ENDBRANCH   1   2
BRANCH   1  12
HETATM   12  N   UNL     1     -40.710 -50.564  10.954  1.00  0.00    -0.262 NA
HETATM   13  H   UNL     1     -39.749 -50.793  10.715  1.00  0.00     0.130 HD
BRANCH  12  14
HETATM   14  C   UNL     1     -40.826 -49.182  10.944  1.00  0.00     0.157 A 
HETATM   15  N   UNL     1     -41.942 -48.674  10.403  1.00  0.00    -0.341 N 
HETATM   16  C   UNL     1     -42.048 -47.323  10.373  1.00  0.00     0.116 A 
ATOM     17  HN  UNL     1     -42.677 -49.275  10.031  1.00  0.00     0.167 HD
HETATM   18  C   UNL     1     -41.080 -46.471  10.847  1.00  0.00     0.064 A 
HETATM   19 CL   UNL     1     -41.230 -44.772  10.769  1.00  0.00    -0.081 Cl
HETATM   20  C   UNL     1     -39.977 -47.087  11.379  1.00  0.00     0.116 A 
HETATM   21  N   UNL     1     -39.829 -48.427  11.438  1.00  0.00    -0.341 N 
ATOM     22  HN  UNL     1     -38.994 -48.851  11.841  1.00  0.00     0.167 HD
ENDBRANCH  12  14
ENDBRANCH   1  12
TORSDOF 4
ENDMDL
MODEL 6
REMARK VINA RESULT:      -5.2      4.044      6.247
REMARK  4 active torsions:
REMARK  status: ('A' for Active; 'I' for Inactive)
REMARK       I    between atoms: N_1  and  C_2 
REMARK    1  A    between atoms: C_2  and  C_4 
REMARK    2  A    between atoms: C_7  and  C_8 
REMARK    3  A    between atoms: C_8  and  N_9 
REMARK    4  A    between atoms: N_9  and  C_10 
ROOT
HETATM    1  C   UNL     1     -42.458 -53.221  12.553  1.00  0.00     0.127 C 
ENDROOT
BRANCH   1   2
HETATM    2  C   UNL     1     -43.984 -53.006  12.539  1.00  0.00     0.136 C 
HETATM    3  C   UNL     1     -44.377 -51.754  13.308  1.00  0.00     0.036 C 
HETATM    4  C   UNL     1     -44.728 -52.241  14.695  1.00  0.00     0.044 C 
HETATM    5  C   UNL     1     -44.726 -53.760  14.603  1.00  0.00     0.213 C 
HETATM    6  O   UNL     1     -44.659 -54.090  13.208  1.00  0.00    -0.370 OA
BRANCH   5   7
HETATM    7  C   UNL     1     -45.932 -54.369  15.327  1.00  0.00     0.244 C 
HETATM    8  N   UNL     1     -46.923 -54.830  14.511  1.00  0.00    -0.368 N 
HETATM    9  H   UNL     1     -47.742 -55.256  14.919  1.00  0.00     0.159 HD
HETATM   10  H   UNL     1     -46.830 -54.748  13.505  1.00  0.00     0.159 HD
HETATM   11  O   UNL     1     -46.013 -54.460  16.548  1.00  0.00    -0.271 OA
ENDBRANCH   5   7
ENDBRANCH   1   2
BRANCH   1  12
HETATM   12  N   UNL     1     -41.830 -52.523  11.439  1.00  0.00    -0.262 NA
HETATM   13  H   UNL     1     -41.434 -53.125  10.721  1.00  0.00     0.130 HD
BRANCH  12  14
HETATM   14  C   UNL     1     -40.840 -51.637  11.837  1.00  0.00     0.157 A 
HETATM   15  N   UNL     1     -40.170 -51.946  12.956  1.00  0.00    -0.341 N 
HETATM   16  C   UNL     1     -39.216 -51.071  13.359  1.00  0.00     0.116 A 
ATOM     17  HN  UNL     1     -40.368 -52.798  13.480  1.00  0.00     0.167 HD
HETATM   18  C   UNL     1     -38.922 -49.904  12.698  1.00  0.00     0.064 A 
HETATM   19 CL   UNL     1     -37.734 -48.807  13.246  1.00  0.00    -0.081 Cl
HETATM   20  C   UNL     1     -39.663 -49.678  11.566  1.00  0.00     0.116 A 
HETATM   21  N   UNL     1     -40.617 -50.522  11.121  1.00  0.00    -0.341 N 
ATOM     22  HN  UNL     1     -41.149 -50.322  10.274  1.00  0.00     0.167 HD
ENDBRANCH  12  14
ENDBRANCH   1  12
TORSDOF 4
ENDMDL
MODEL 7
REMARK VINA RESULT:      -5.1      4.272      6.063
REMARK  4 active torsions:
REMARK  status: ('A' for Active; 'I' for Inactive)
REMARK       I    between atoms: N_1  and  C_2 
REMARK    1  A    between atoms: C_2  and  C_4 
REMARK    2  A    between atoms: C_7  and  C_8 
REMARK    3  A    between atoms: C_8  and  N_9 
REMARK    4  A    between atoms: N_9  and  C_10 
ROOT
HETATM    1  C   UNL     1     -44.762 -54.190  13.430  1.00  0.00     0.127 C 
ENDROOT
BRANCH   1   2
HETATM    2  C   UNL     1     -46.206 -53.675  13.600  1.00  0.00     0.136 C 
HETATM    3  C   UNL     1     -46.405 -52.337  12.905  1.00  0.00     0.036 C 
HETATM    4  C   UNL     1     -46.194 -51.300  13.984  1.00  0.00     0.044 C 
HETATM    5  C   UNL     1     -46.094 -52.085  15.284  1.00  0.00     0.213 C 
HETATM    6  O   UNL     1     -46.500 -53.429  14.989  1.00  0.00    -0.370 OA
BRANCH   5   7
HETATM    7  C   UNL     1     -46.904 -51.424  16.405  1.00  0.00     0.244 C 
HETATM    8  N   UNL     1     -46.214 -50.524  17.163  1.00  0.00    -0.368 N 
HETATM    9  H   UNL     1     -46.689 -50.041  17.911  1.00  0.00     0.159 HD
HETATM   10  H   UNL     1     -45.237 -50.342  16.968  1.00  0.00     0.159 HD
HETATM   11  O   UNL     1     -48.090 -51.660  16.613  1.00  0.00    -0.271 OA
ENDBRANCH   5   7
ENDBRANCH   1   2
BRANCH   1  12
HETATM   12  N   UNL     1     -44.183 -53.696  12.188  1.00  0.00    -0.262 NA
HETATM   13  H   UNL     1     -44.100 -54.387  11.447  1.00  0.00     0.130 HD
BRANCH  12  14
HETATM   14  C   UNL     1     -42.936 -53.113  12.360  1.00  0.00     0.157 A 
HETATM   15  N   UNL     1     -42.848 -51.797  12.124  1.00  0.00    -0.341 N 
HETATM   16  C   UNL     1     -41.627 -51.229  12.271  1.00  0.00     0.116 A 
ATOM     17  HN  UNL     1     -43.662 -51.248  11.847  1.00  0.00     0.167 HD
HETATM   18  C   UNL     1     -40.499 -51.926  12.627  1.00  0.00     0.064 A 
HETATM   19 CL   UNL     1     -38.966 -51.188  12.776  1.00  0.00    -0.081 Cl
HETATM   20  C   UNL     1     -40.691 -53.266  12.844  1.00  0.00     0.116 A 
HETATM   21  N   UNL     1     -41.889 -53.875  12.718  1.00  0.00    -0.341 N 
ATOM     22  HN  UNL     1     -41.996 -54.875  12.888  1.00  0.00     0.167 HD
ENDBRANCH  12  14
ENDBRANCH   1  12
TORSDOF 4
ENDMDL
MODEL 8
REMARK VINA RESULT:      -5.1      2.342      3.043
REMARK  4 active torsions:
REMARK  status: ('A' for Active; 'I' for Inactive)
REMARK       I    between atoms: N_1  and  C_2 
REMARK    1  A    between atoms: C_2  and  C_4 
REMARK    2  A    between atoms: C_7  and  C_8 
REMARK    3  A    between atoms: C_8  and  N_9 
REMARK    4  A    between atoms: N_9  and  C_10 
ROOT
HETATM    1  C   UNL     1     -40.557 -53.398  14.476  1.00  0.00     0.127 C 
ENDROOT
BRANCH   1   2
HETATM    2  C   UNL     1     -39.254 -52.836  13.875  1.00  0.00     0.136 C 
HETATM    3  C   UNL     1     -38.701 -51.695  14.716  1.00  0.00     0.036 C 
HETATM    4  C   UNL     1     -39.228 -50.437  14.064  1.00  0.00     0.044 C 
HETATM    5  C   UNL     1     -39.878 -50.897  12.767  1.00  0.00     0.213 C 
HETATM    6  O   UNL     1     -39.495 -52.266  12.574  1.00  0.00    -0.370 OA
BRANCH   5   7
HETATM    7  C   UNL     1     -39.510 -49.979  11.596  1.00  0.00     0.244 C 
HETATM    8  N   UNL     1     -40.352 -50.042  10.526  1.00  0.00    -0.368 N 
HETATM    9  H   UNL     1     -40.178 -49.455   9.723  1.00  0.00     0.159 HD
HETATM   10  H   UNL     1     -41.148 -50.669  10.543  1.00  0.00     0.159 HD
HETATM   11  O   UNL     1     -38.542 -49.224  11.605  1.00  0.00    -0.271 OA
ENDBRANCH   5   7
ENDBRANCH   1   2
BRANCH   1  12
HETATM   12  N   UNL     1     -41.402 -53.964  13.433  1.00  0.00    -0.262 NA
HETATM   13  H   UNL     1     -41.001 -53.951  12.498  1.00  0.00     0.130 HD
BRANCH  12  14
HETATM   14  C   UNL     1     -42.653 -53.370  13.360  1.00  0.00     0.157 A 
HETATM   15  N   UNL     1     -42.911 -52.397  14.245  1.00  0.00    -0.341 N 
HETATM   16  C   UNL     1     -44.140 -51.829  14.190  1.00  0.00     0.116 A 
ATOM     17  HN  UNL     1     -42.215 -52.098  14.928  1.00  0.00     0.167 HD
HETATM   18  C   UNL     1     -45.116 -52.206  13.301  1.00  0.00     0.064 A 
HETATM   19 CL   UNL     1     -46.666 -51.492  13.274  1.00  0.00    -0.081 Cl
HETATM   20  C   UNL     1     -44.756 -53.210  12.439  1.00  0.00     0.116 A 
HETATM   21  N   UNL     1     -43.543 -53.801  12.449  1.00  0.00    -0.341 N 
ATOM     22  HN  UNL     1     -43.309 -54.545  11.792  1.00  0.00     0.167 HD
ENDBRANCH  12  14
ENDBRANCH   1  12
TORSDOF 4
ENDMDL
MODEL 9
REMARK VINA RESULT:      -5.1      3.717      6.491
REMARK  4 active torsions:
REMARK  status: ('A' for Active; 'I' for Inactive)
REMARK       I    between atoms: N_1  and  C_2 
REMARK    1  A    between atoms: C_2  and  C_4 
REMARK    2  A    between atoms: C_7  and  C_8 
REMARK    3  A    between atoms: C_8  and  N_9 
REMARK    4  A    between atoms: N_9  and  C_10 
ROOT
HETATM    1  C   UNL     1     -43.461 -52.746  12.543  1.00  0.00     0.127 C 
ENDROOT
BRANCH   1   2
HETATM    2  C   UNL     1     -43.714 -54.200  12.986  1.00  0.00     0.136 C 
HETATM    3  C   UNL     1     -45.051 -54.340  13.699  1.00  0.00     0.036 C 
HETATM    4  C   UNL     1     -44.723 -54.233  15.170  1.00  0.00     0.044 C 
HETATM    5  C   UNL     1     -43.203 -54.250  15.247  1.00  0.00     0.213 C 
HETATM    6  O   UNL     1     -42.726 -54.623  13.946  1.00  0.00    -0.370 OA
BRANCH   5   7
HETATM    7  C   UNL     1     -42.706 -55.163  16.374  1.00  0.00     0.244 C 
HETATM    8  N   UNL     1     -42.404 -54.526  17.542  1.00  0.00    -0.368 N 
HETATM    9  H   UNL     1     -42.083 -55.067  18.331  1.00  0.00     0.159 HD
HETATM   10  H   UNL     1     -42.509 -53.520  17.612  1.00  0.00     0.159 HD
HETATM   11  O   UNL     1     -42.595 -56.379  16.261  1.00  0.00    -0.271 OA
ENDBRANCH   5   7
ENDBRANCH   1   2
BRANCH   1  12
HETATM   12  N   UNL     1     -42.397 -52.689  11.549  1.00  0.00    -0.262 NA
HETATM   13  H   UNL     1     -42.083 -53.591  11.201  1.00  0.00     0.130 HD
BRANCH  12  14
HETATM   14  C   UNL     1     -41.278 -51.995  11.986  1.00  0.00     0.157 A 
HETATM   15  N   UNL     1     -40.914 -50.924  11.267  1.00  0.00    -0.341 N 
HETATM   16  C   UNL     1     -39.809 -50.257  11.679  1.00  0.00     0.116 A 
ATOM     17  HN  UNL     1     -41.445 -50.624  10.449  1.00  0.00     0.167 HD
HETATM   18  C   UNL     1     -39.053 -50.629  12.764  1.00  0.00     0.064 A 
HETATM   19 CL   UNL     1     -37.648 -49.785  13.242  1.00  0.00    -0.081 Cl
HETATM   20  C   UNL     1     -39.505 -51.738  13.431  1.00  0.00     0.116 A 
HETATM   21  N   UNL     1     -40.604 -52.430  13.064  1.00  0.00    -0.341 N 
ATOM     22  HN  UNL     1     -40.912 -53.251  13.585  1.00  0.00     0.167 HD
ENDBRANCH  12  14
ENDBRANCH   1  12
TORSDOF 4
ENDMDL
