MODEL 1
REMARK VINA RESULT:      -6.0      0.000      0.000
REMARK  4 active torsions:
REMARK  status: ('A' for Active; 'I' for Inactive)
REMARK    1  A    between atoms: C_2  and  N_3 
REMARK    2  A    between atoms: C_2  and  C_19 
REMARK       I    between atoms: N_3  and  C_4 
REMARK    3  A    between atoms: C_4  and  C_6 
REMARK    4  A    between atoms: C_12  and  N_13 
REMARK       I    between atoms: C_19  and  N_21 
ROOT
HETATM    1  C   UNL     1     -43.532 -47.348  10.646  1.00  0.00     0.075 A 
HETATM    2  C   UNL     1     -44.681 -47.865  10.006  1.00  0.00     0.022 A 
HETATM    3  C   UNL     1     -45.397 -47.085   9.109  1.00  0.00     0.018 A 
HETATM    4  C   UNL     1     -44.951 -45.805   8.888  1.00  0.00     0.089 A 
HETATM    5  N   UNL     1     -43.842 -45.297   9.461  1.00  0.00    -0.352 N 
ATOM      6  HN  UNL     1     -43.552 -44.344   9.241  1.00  0.00     0.166 HD
HETATM    7  C   UNL     1     -43.102 -46.043  10.332  1.00  0.00     0.119 A 
ENDROOT
BRANCH   1   8
HETATM    8  C   UNL     1     -42.967 -48.167  11.752  1.00  0.00     0.256 C 
HETATM    9  N   UNL     1     -42.312 -49.341  11.414  1.00  0.00    -0.344 N 
HETATM   10  H   UNL     1     -42.135 -49.575  10.445  1.00  0.00     0.163 HD
HETATM   11  O   UNL     1     -43.124 -47.838  12.923  1.00  0.00    -0.268 OA
BRANCH   9  12
HETATM   12  C   UNL     1     -41.642 -50.151  12.435  1.00  0.00     0.173 C 
HETATM   13  C   UNL     1     -40.129 -49.979  12.302  1.00  0.00     0.042 C 
BRANCH  12  14
HETATM   14  C   UNL     1     -42.040 -51.637  12.290  1.00  0.00     0.241 C 
HETATM   15  O   UNL     1     -41.350 -52.397  11.602  1.00  0.00    -0.271 OA
HETATM   16  N   UNL     1     -43.226 -52.073  12.879  1.00  0.00    -0.359 N 
HETATM   17  C   UNL     1     -44.198 -51.228  13.559  1.00  0.00     0.152 C 
HETATM   18  C   UNL     1     -43.569 -53.487  12.816  1.00  0.00     0.152 C 
ENDBRANCH  12  14
ENDBRANCH   9  12
ENDBRANCH   1   8
BRANCH   7  19
HETATM   19  N   UNL     1     -41.942 -45.422  10.734  1.00  0.00    -0.362 N 
HETATM   20  C   UNL     1     -42.039 -44.321  11.711  1.00  0.00     0.150 C 
HETATM   21  C   UNL     1     -41.018 -43.225  11.369  1.00  0.00     0.187 C 
HETATM   22  O   UNL     1     -39.685 -43.753  11.295  1.00  0.00    -0.388 OA
HETATM   23  C   UNL     1     -39.616 -44.769  10.284  1.00  0.00     0.187 C 
HETATM   24  C   UNL     1     -40.580 -45.937  10.570  1.00  0.00     0.150 C 
ENDBRANCH   7  19
TORSDOF 4
ENDMDL
MODEL 2
REMARK VINA RESULT:      -5.8      2.677      3.283
REMARK  4 active torsions:
REMARK  status: ('A' for Active; 'I' for Inactive)
REMARK    1  A    between atoms: C_2  and  N_3 
REMARK    2  A    between atoms: C_2  and  C_19 
REMARK       I    between atoms: N_3  and  C_4 
REMARK    3  A    between atoms: C_4  and  C_6 
REMARK    4  A    between atoms: C_12  and  N_13 
REMARK       I    between atoms: C_19  and  N_21 
ROOT
HETATM    1  C   UNL     1     -41.243 -47.301  11.119  1.00  0.00     0.075 A 
HETATM    2  C   UNL     1     -41.910 -48.104  10.169  1.00  0.00     0.022 A 
HETATM    3  C   UNL     1     -43.030 -47.623   9.503  1.00  0.00     0.018 A 
HETATM    4  C   UNL     1     -43.458 -46.358   9.820  1.00  0.00     0.089 A 
HETATM    5  N   UNL     1     -42.823 -45.559  10.701  1.00  0.00    -0.352 N 
ATOM      6  HN  UNL     1     -43.181 -44.620  10.878  1.00  0.00     0.166 HD
HETATM    7  C   UNL     1     -41.708 -45.991  11.357  1.00  0.00     0.119 A 
ENDROOT
BRANCH   1   8
HETATM    8  C   UNL     1     -40.201 -47.975  11.940  1.00  0.00     0.256 C 
HETATM    9  N   UNL     1     -39.461 -48.982  11.339  1.00  0.00    -0.344 N 
HETATM   10  H   UNL     1     -39.556 -49.176  10.350  1.00  0.00     0.163 HD
HETATM   11  O   UNL     1     -40.042 -47.685  13.121  1.00  0.00    -0.268 OA
BRANCH   9  12
HETATM   12  C   UNL     1     -38.351 -49.626  12.047  1.00  0.00     0.173 C 
HETATM   13  C   UNL     1     -37.273 -50.023  11.039  1.00  0.00     0.042 C 
BRANCH  12  14
HETATM   14  C   UNL     1     -38.855 -50.862  12.827  1.00  0.00     0.241 C 
HETATM   15  O   UNL     1     -39.586 -51.687  12.270  1.00  0.00    -0.271 OA
HETATM   16  N   UNL     1     -38.534 -50.977  14.179  1.00  0.00    -0.359 N 
HETATM   17  C   UNL     1     -37.830 -49.979  14.973  1.00  0.00     0.152 C 
HETATM   18  C   UNL     1     -38.935 -52.176  14.902  1.00  0.00     0.152 C 
ENDBRANCH  12  14
ENDBRANCH   9  12
ENDBRANCH   1   8
BRANCH   7  19
HETATM   19  N   UNL     1     -41.115 -45.017  12.127  1.00  0.00    -0.362 N 
HETATM   20  C   UNL     1     -39.878 -44.387  11.629  1.00  0.00     0.150 C 
HETATM   21  C   UNL     1     -38.916 -44.123  12.798  1.00  0.00     0.187 C 
HETATM   22  O   UNL     1     -39.538 -43.334  13.824  1.00  0.00    -0.388 OA
HETATM   23  C   UNL     1     -40.695 -44.017  14.332  1.00  0.00     0.187 C 
HETATM   24  C   UNL     1     -41.740 -44.284  13.231  1.00  0.00     0.150 C 
ENDBRANCH   7  19
TORSDOF 4
ENDMDL
MODEL 3
REMARK VINA RESULT:      -5.7      2.609      6.633
REMARK  4 active torsions:
REMARK  status: ('A' for Active; 'I' for Inactive)
REMARK    1  A    between atoms: C_2  and  N_3 
REMARK    2  A    between atoms: C_2  and  C_19 
REMARK       I    between atoms: N_3  and  C_4 
REMARK    3  A    between atoms: C_4  and  C_6 
REMARK    4  A    between atoms: C_12  and  N_13 
REMARK       I    between atoms: C_19  and  N_21 
ROOT
HETATM    1  C   UNL     1     -44.370 -51.386  13.602  1.00  0.00     0.075 A 
HETATM    2  C   UNL     1     -45.751 -51.416  13.892  1.00  0.00     0.022 A 
HETATM    3  C   UNL     1     -46.449 -52.616  13.866  1.00  0.00     0.018 A 
HETATM    4  C   UNL     1     -45.746 -53.749  13.537  1.00  0.00     0.089 A 
HETATM    5  N   UNL     1     -44.422 -53.753  13.286  1.00  0.00    -0.352 N 
ATOM      6  HN  UNL     1     -43.953 -54.632  13.065  1.00  0.00     0.166 HD
HETATM    7  C   UNL     1     -43.701 -52.595  13.323  1.00  0.00     0.119 A 
ENDROOT
BRANCH   1   8
HETATM    8  C   UNL     1     -43.760 -50.040  13.431  1.00  0.00     0.256 C 
HETATM    9  N   UNL     1     -43.604 -49.564  12.138  1.00  0.00    -0.344 N 
HETATM   10  H   UNL     1     -43.988 -50.069  11.350  1.00  0.00     0.163 HD
HETATM   11  O   UNL     1     -43.362 -49.399  14.399  1.00  0.00    -0.268 OA
BRANCH   9  12
HETATM   12  C   UNL     1     -43.104 -48.208  11.889  1.00  0.00     0.173 C 
HETATM   13  C   UNL     1     -43.829 -47.619  10.679  1.00  0.00     0.042 C 
BRANCH  12  14
HETATM   14  C   UNL     1     -41.577 -48.232  11.656  1.00  0.00     0.241 C 
HETATM   15  O   UNL     1     -41.097 -48.960  10.780  1.00  0.00    -0.271 OA
HETATM   16  N   UNL     1     -40.759 -47.485  12.503  1.00  0.00    -0.359 N 
HETATM   17  C   UNL     1     -41.203 -46.736  13.670  1.00  0.00     0.152 C 
HETATM   18  C   UNL     1     -39.327 -47.437  12.242  1.00  0.00     0.152 C 
ENDBRANCH  12  14
ENDBRANCH   9  12
ENDBRANCH   1   8
BRANCH   7  19
HETATM   19  N   UNL     1     -42.348 -52.788  13.161  1.00  0.00    -0.362 N 
HETATM   20  C   UNL     1     -41.684 -53.816  13.984  1.00  0.00     0.150 C 
HETATM   21  C   UNL     1     -40.288 -53.331  14.403  1.00  0.00     0.187 C 
HETATM   22  O   UNL     1     -39.493 -52.968  13.263  1.00  0.00    -0.388 OA
HETATM   23  C   UNL     1     -40.139 -51.916  12.530  1.00  0.00     0.187 C 
HETATM   24  C   UNL     1     -41.536 -52.333  12.030  1.00  0.00     0.150 C 
ENDBRANCH   7  19
TORSDOF 4
ENDMDL
MODEL 4
REMARK VINA RESULT:      -5.6      2.750      4.867
REMARK  4 active torsions:
REMARK  status: ('A' for Active; 'I' for Inactive)
REMARK    1  A    between atoms: C_2  and  N_3 
REMARK    2  A    between atoms: C_2  and  C_19 
REMARK       I    between atoms: N_3  and  C_4 
REMARK    3  A    between atoms: C_4  and  C_6 
REMARK    4  A    between atoms: C_12  and  N_13 
REMARK       I    between atoms: C_19  and  N_21 
ROOT
HETATM    1  C   UNL     1     -39.671 -50.406  12.967  1.00  0.00     0.075 A 
HETATM    2  C   UNL     1     -38.464 -51.127  13.103  1.00  0.00     0.022 A 
HETATM    3  C   UNL     1     -37.377 -50.839  12.290  1.00  0.00     0.018 A 
HETATM    4  C   UNL     1     -37.534 -49.847  11.353  1.00  0.00     0.089 A 
HETATM    5  N   UNL     1     -38.663 -49.123  11.222  1.00  0.00    -0.352 N 
ATOM      6  HN  UNL     1     -38.710 -48.385  10.519  1.00  0.00     0.166 HD
HETATM    7  C   UNL     1     -39.744 -49.365  12.019  1.00  0.00     0.119 A 
ENDROOT
BRANCH   1   8
HETATM    8  C   UNL     1     -40.843 -50.932  13.717  1.00  0.00     0.256 C 
HETATM    9  N   UNL     1     -41.433 -52.098  13.253  1.00  0.00    -0.344 N 
HETATM   10  H   UNL     1     -41.015 -52.626  12.497  1.00  0.00     0.163 HD
HETATM   11  O   UNL     1     -41.301 -50.324  14.679  1.00  0.00    -0.268 OA
BRANCH   9  12
HETATM   12  C   UNL     1     -42.528 -52.735  13.991  1.00  0.00     0.173 C 
HETATM   13  C   UNL     1     -42.185 -54.204  14.234  1.00  0.00     0.042 C 
BRANCH  12  14
HETATM   14  C   UNL     1     -43.853 -52.602  13.208  1.00  0.00     0.241 C 
HETATM   15  O   UNL     1     -43.989 -53.178  12.123  1.00  0.00    -0.271 OA
HETATM   16  N   UNL     1     -44.847 -51.763  13.710  1.00  0.00    -0.359 N 
HETATM   17  C   UNL     1     -44.724 -50.906  14.880  1.00  0.00     0.152 C 
HETATM   18  C   UNL     1     -46.129 -51.694  13.022  1.00  0.00     0.152 C 
ENDBRANCH  12  14
ENDBRANCH   9  12
ENDBRANCH   1   8
BRANCH   7  19
HETATM   19  N   UNL     1     -40.768 -48.465  11.839  1.00  0.00    -0.362 N 
HETATM   20  C   UNL     1     -40.852 -47.309  12.751  1.00  0.00     0.150 C 
HETATM   21  C   UNL     1     -42.323 -46.999  13.071  1.00  0.00     0.187 C 
HETATM   22  O   UNL     1     -43.089 -46.789  11.875  1.00  0.00    -0.388 OA
HETATM   23  C   UNL     1     -43.041 -47.963  11.051  1.00  0.00     0.187 C 
HETATM   24  C   UNL     1     -41.600 -48.324  10.641  1.00  0.00     0.150 C 
ENDBRANCH   7  19
TORSDOF 4
ENDMDL
MODEL 5
REMARK VINA RESULT:      -5.6      3.060      5.608
REMARK  4 active torsions:
REMARK  status: ('A' for Active; 'I' for Inactive)
REMARK    1  A    between atoms: C_2  and  N_3 
REMARK    2  A    between atoms: C_2  and  C_19 
REMARK       I    between atoms: N_3  and  C_4 
REMARK    3  A    between atoms: C_4  and  C_6 
REMARK    4  A    between atoms: C_12  and  N_13 
REMARK       I    between atoms: C_19  and  N_21 
ROOT
HETATM    1  C   UNL     1     -42.755 -49.383  12.450  1.00  0.00     0.075 A 
HETATM    2  C   UNL     1     -43.472 -48.322  11.855  1.00  0.00     0.022 A 
HETATM    3  C   UNL     1     -42.978 -47.685  10.725  1.00  0.00     0.018 A 
HETATM    4  C   UNL     1     -41.771 -48.119  10.232  1.00  0.00     0.089 A 
HETATM    5  N   UNL     1     -41.081 -49.149  10.761  1.00  0.00    -0.352 N 
ATOM      6  HN  UNL     1     -40.199 -49.436  10.336  1.00  0.00     0.166 HD
HETATM    7  C   UNL     1     -41.548 -49.811  11.859  1.00  0.00     0.119 A 
ENDROOT
BRANCH   1   8
HETATM    8  C   UNL     1     -43.242 -49.849  13.776  1.00  0.00     0.256 C 
HETATM    9  N   UNL     1     -44.016 -50.999  13.809  1.00  0.00    -0.344 N 
HETATM   10  H   UNL     1     -44.153 -51.556  12.976  1.00  0.00     0.163 HD
HETATM   11  O   UNL     1     -43.010 -49.206  14.795  1.00  0.00    -0.268 OA
BRANCH   9  12
HETATM   12  C   UNL     1     -44.451 -51.578  15.084  1.00  0.00     0.173 C 
HETATM   13  C   UNL     1     -44.112 -53.069  15.102  1.00  0.00     0.042 C 
BRANCH  12  14
HETATM   14  C   UNL     1     -45.967 -51.357  15.286  1.00  0.00     0.241 C 
HETATM   15  O   UNL     1     -46.710 -51.242  14.306  1.00  0.00    -0.271 OA
HETATM   16  N   UNL     1     -46.455 -51.211  16.584  1.00  0.00    -0.359 N 
HETATM   17  C   UNL     1     -45.647 -51.153  17.794  1.00  0.00     0.152 C 
HETATM   18  C   UNL     1     -47.891 -51.083  16.789  1.00  0.00     0.152 C 
ENDBRANCH  12  14
ENDBRANCH   9  12
ENDBRANCH   1   8
BRANCH   7  19
HETATM   19  N   UNL     1     -40.789 -50.906  12.201  1.00  0.00    -0.362 N 
HETATM   20  C   UNL     1     -41.263 -52.241  11.792  1.00  0.00     0.150 C 
HETATM   21  C   UNL     1     -40.963 -53.266  12.897  1.00  0.00     0.187 C 
HETATM   22  O   UNL     1     -39.568 -53.279  13.237  1.00  0.00    -0.388 OA
HETATM   23  C   UNL     1     -39.165 -51.981  13.699  1.00  0.00     0.187 C 
HETATM   24  C   UNL     1     -39.389 -50.891  12.632  1.00  0.00     0.150 C 
ENDBRANCH   7  19
TORSDOF 4
ENDMDL
MODEL 6
REMARK VINA RESULT:      -5.5      3.092      7.858
REMARK  4 active torsions:
REMARK  status: ('A' for Active; 'I' for Inactive)
REMARK    1  A    between atoms: C_2  and  N_3 
REMARK    2  A    between atoms: C_2  and  C_19 
REMARK       I    between atoms: N_3  and  C_4 
REMARK    3  A    between atoms: C_4  and  C_6 
REMARK    4  A    between atoms: C_12  and  N_13 
REMARK       I    between atoms: C_19  and  N_21 
ROOT
HETATM    1  C   UNL     1     -40.365 -53.150  13.682  1.00  0.00     0.075 A 
HETATM    2  C   UNL     1     -39.167 -53.815  14.024  1.00  0.00     0.022 A 
HETATM    3  C   UNL     1     -39.135 -54.704  15.089  1.00  0.00     0.018 A 
HETATM    4  C   UNL     1     -40.300 -54.891  15.791  1.00  0.00     0.089 A 
HETATM    5  N   UNL     1     -41.465 -54.293  15.469  1.00  0.00    -0.352 N 
ATOM      6  HN  UNL     1     -42.301 -54.489  16.019  1.00  0.00     0.166 HD
HETATM    7  C   UNL     1     -41.537 -53.429  14.415  1.00  0.00     0.119 A 
ENDROOT
BRANCH   1   8
HETATM    8  C   UNL     1     -40.251 -52.054  12.682  1.00  0.00     0.256 C 
HETATM    9  N   UNL     1     -39.229 -51.132  12.851  1.00  0.00    -0.344 N 
HETATM   10  H   UNL     1     -38.526 -51.263  13.568  1.00  0.00     0.163 HD
HETATM   11  O   UNL     1     -41.066 -51.943  11.772  1.00  0.00    -0.268 OA
BRANCH   9  12
HETATM   12  C   UNL     1     -38.988 -50.083  11.856  1.00  0.00     0.173 C 
HETATM   13  C   UNL     1     -37.517 -50.109  11.443  1.00  0.00     0.042 C 
BRANCH  12  14
HETATM   14  C   UNL     1     -39.374 -48.700  12.429  1.00  0.00     0.241 C 
HETATM   15  O   UNL     1     -38.769 -48.246  13.406  1.00  0.00    -0.271 OA
HETATM   16  N   UNL     1     -40.460 -48.025  11.873  1.00  0.00    -0.359 N 
HETATM   17  C   UNL     1     -41.346 -48.545  10.842  1.00  0.00     0.152 C 
HETATM   18  C   UNL     1     -40.781 -46.687  12.351  1.00  0.00     0.152 C 
ENDBRANCH  12  14
ENDBRANCH   9  12
ENDBRANCH   1   8
BRANCH   7  19
HETATM   19  N   UNL     1     -42.816 -52.998  14.149  1.00  0.00    -0.362 N 
HETATM   20  C   UNL     1     -43.745 -53.932  13.484  1.00  0.00     0.150 C 
HETATM   21  C   UNL     1     -44.631 -53.170  12.487  1.00  0.00     0.187 C 
HETATM   22  O   UNL     1     -45.329 -52.089  13.123  1.00  0.00    -0.388 OA
HETATM   23  C   UNL     1     -44.388 -51.166  13.692  1.00  0.00     0.187 C 
HETATM   24  C   UNL     1     -43.483 -51.837  14.743  1.00  0.00     0.150 C 
ENDBRANCH   7  19
TORSDOF 4
ENDMDL
MODEL 7
REMARK VINA RESULT:      -5.4      2.569      3.816
REMARK  4 active torsions:
REMARK  status: ('A' for Active; 'I' for Inactive)
REMARK    1  A    between atoms: C_2  and  N_3 
REMARK    2  A    between atoms: C_2  and  C_19 
REMARK       I    between atoms: N_3  and  C_4 
REMARK    3  A    between atoms: C_4  and  C_6 
REMARK    4  A    between atoms: C_12  and  N_13 
REMARK       I    between atoms: C_19  and  N_21 
ROOT
HETATM    1  C   UNL     1     -42.443 -48.734  11.830  1.00  0.00     0.075 A 
HETATM    2  C   UNL     1     -43.483 -48.044  11.168  1.00  0.00     0.022 A 
HETATM    3  C   UNL     1     -43.200 -46.945  10.368  1.00  0.00     0.018 A 
HETATM    4  C   UNL     1     -41.886 -46.559  10.267  1.00  0.00     0.089 A 
HETATM    5  N   UNL     1     -40.872 -47.216  10.863  1.00  0.00    -0.352 N 
ATOM      6  HN  UNL     1     -39.914 -46.890  10.732  1.00  0.00     0.166 HD
HETATM    7  C   UNL     1     -41.111 -48.313  11.638  1.00  0.00     0.119 A 
ENDROOT
BRANCH   1   8
HETATM    8  C   UNL     1     -42.859 -49.747  12.836  1.00  0.00     0.256 C 
HETATM    9  N   UNL     1     -42.857 -51.078  12.447  1.00  0.00    -0.344 N 
HETATM   10  H   UNL     1     -42.487 -51.355  11.547  1.00  0.00     0.163 HD
HETATM   11  O   UNL     1     -43.239 -49.409  13.953  1.00  0.00    -0.268 OA
BRANCH   9  12
HETATM   12  C   UNL     1     -43.157 -52.145  13.408  1.00  0.00     0.173 C 
HETATM   13  C   UNL     1     -42.218 -53.325  13.159  1.00  0.00     0.042 C 
BRANCH  12  14
HETATM   14  C   UNL     1     -44.634 -52.581  13.283  1.00  0.00     0.241 C 
HETATM   15  O   UNL     1     -45.059 -53.025  12.211  1.00  0.00    -0.271 OA
HETATM   16  N   UNL     1     -45.483 -52.388  14.373  1.00  0.00    -0.359 N 
HETATM   17  C   UNL     1     -45.131 -51.717  15.615  1.00  0.00     0.152 C 
HETATM   18  C   UNL     1     -46.855 -52.870  14.293  1.00  0.00     0.152 C 
ENDBRANCH  12  14
ENDBRANCH   9  12
ENDBRANCH   1   8
BRANCH   7  19
HETATM   19  N   UNL     1     -39.964 -48.934  12.075  1.00  0.00    -0.362 N 
HETATM   20  C   UNL     1     -39.510 -48.677  13.454  1.00  0.00     0.150 C 
HETATM   21  C   UNL     1     -37.976 -48.597  13.496  1.00  0.00     0.187 C 
HETATM   22  O   UNL     1     -37.372 -49.779  12.950  1.00  0.00    -0.388 OA
HETATM   23  C   UNL     1     -37.782 -49.953  11.585  1.00  0.00     0.187 C 
HETATM   24  C   UNL     1     -39.312 -50.089  11.452  1.00  0.00     0.150 C 
ENDBRANCH   7  19
TORSDOF 4
ENDMDL
MODEL 8
REMARK VINA RESULT:      -5.4      2.368      7.257
REMARK  4 active torsions:
REMARK  status: ('A' for Active; 'I' for Inactive)
REMARK    1  A    between atoms: C_2  and  N_3 
REMARK    2  A    between atoms: C_2  and  C_19 
REMARK       I    between atoms: N_3  and  C_4 
REMARK    3  A    between atoms: C_4  and  C_6 
REMARK    4  A    between atoms: C_12  and  N_13 
REMARK       I    between atoms: C_19  and  N_21 
ROOT
HETATM    1  C   UNL     1     -42.406 -51.595  12.741  1.00  0.00     0.075 A 
HETATM    2  C   UNL     1     -41.192 -52.046  12.179  1.00  0.00     0.022 A 
HETATM    3  C   UNL     1     -40.751 -53.343  12.405  1.00  0.00     0.018 A 
HETATM    4  C   UNL     1     -41.531 -54.146  13.201  1.00  0.00     0.089 A 
HETATM    5  N   UNL     1     -42.708 -53.751  13.726  1.00  0.00    -0.352 N 
ATOM      6  HN  UNL     1     -43.251 -54.402  14.294  1.00  0.00     0.166 HD
HETATM    7  C   UNL     1     -43.182 -52.490  13.505  1.00  0.00     0.119 A 
ENDROOT
BRANCH   1   8
HETATM    8  C   UNL     1     -42.682 -50.137  12.635  1.00  0.00     0.256 C 
HETATM    9  N   UNL     1     -42.190 -49.468  11.524  1.00  0.00    -0.344 N 
HETATM   10  H   UNL     1     -41.752 -49.976  10.765  1.00  0.00     0.163 HD
HETATM   11  O   UNL     1     -43.279 -49.541  13.526  1.00  0.00    -0.268 OA
BRANCH   9  12
HETATM   12  C   UNL     1     -42.503 -48.055  11.295  1.00  0.00     0.173 C 
HETATM   13  C   UNL     1     -42.713 -47.821   9.799  1.00  0.00     0.042 C 
BRANCH  12  14
HETATM   14  C   UNL     1     -41.367 -47.158  11.837  1.00  0.00     0.241 C 
HETATM   15  O   UNL     1     -40.207 -47.325  11.445  1.00  0.00    -0.271 OA
HETATM   16  N   UNL     1     -41.667 -46.223  12.828  1.00  0.00    -0.359 N 
HETATM   17  C   UNL     1     -42.958 -46.065  13.483  1.00  0.00     0.152 C 
HETATM   18  C   UNL     1     -40.622 -45.319  13.287  1.00  0.00     0.152 C 
ENDBRANCH  12  14
ENDBRANCH   9  12
ENDBRANCH   1   8
BRANCH   7  19
HETATM   19  N   UNL     1     -44.446 -52.286  14.009  1.00  0.00    -0.362 N 
HETATM   20  C   UNL     1     -45.600 -52.536  13.126  1.00  0.00     0.150 C 
HETATM   21  C   UNL     1     -46.695 -51.489  13.385  1.00  0.00     0.187 C 
HETATM   22  O   UNL     1     -47.081 -51.461  14.767  1.00  0.00    -0.388 OA
HETATM   23  C   UNL     1     -45.945 -51.143  15.586  1.00  0.00     0.187 C 
HETATM   24  C   UNL     1     -44.808 -52.172  15.424  1.00  0.00     0.150 C 
ENDBRANCH   7  19
TORSDOF 4
ENDMDL
MODEL 9
REMARK VINA RESULT:      -5.3      2.372      6.467
REMARK  4 active torsions:
REMARK  status: ('A' for Active; 'I' for Inactive)
REMARK    1  A    between atoms: C_2  and  N_3 
REMARK    2  A    between atoms: C_2  and  C_19 
REMARK       I    between atoms: N_3  and  C_4 
REMARK    3  A    between atoms: C_4  and  C_6 
REMARK    4  A    between atoms: C_12  and  N_13 
REMARK       I    between atoms: C_19  and  N_21 
ROOT
HETATM    1  C   UNL     1     -42.624 -46.334  10.651  1.00  0.00     0.075 A 
HETATM    2  C   UNL     1     -43.301 -45.589   9.661  1.00  0.00     0.022 A 
HETATM    3  C   UNL     1     -43.691 -46.190   8.472  1.00  0.00     0.018 A 
HETATM    4  C   UNL     1     -43.379 -47.516   8.302  1.00  0.00     0.089 A 
HETATM    5  N   UNL     1     -42.761 -48.259   9.242  1.00  0.00    -0.352 N 
ATOM      6  HN  UNL     1     -42.574 -49.245   9.062  1.00  0.00     0.166 HD
HETATM    7  C   UNL     1     -42.382 -47.706  10.430  1.00  0.00     0.119 A 
ENDROOT
BRANCH   1   8
HETATM    8  C   UNL     1     -42.049 -45.560  11.783  1.00  0.00     0.256 C 
HETATM    9  N   UNL     1     -42.932 -44.996  12.692  1.00  0.00    -0.344 N 
HETATM   10  H   UNL     1     -43.923 -45.195  12.643  1.00  0.00     0.163 HD
HETATM   11  O   UNL     1     -40.838 -45.384  11.876  1.00  0.00    -0.268 OA
BRANCH   9  12
HETATM   12  C   UNL     1     -42.442 -44.304  13.888  1.00  0.00     0.173 C 
HETATM   13  C   UNL     1     -43.196 -44.821  15.113  1.00  0.00     0.042 C 
BRANCH  12  14
HETATM   14  C   UNL     1     -42.622 -42.777  13.737  1.00  0.00     0.241 C 
HETATM   15  O   UNL     1     -43.757 -42.290  13.692  1.00  0.00    -0.271 OA
HETATM   16  N   UNL     1     -41.488 -41.982  13.573  1.00  0.00    -0.359 N 
HETATM   17  C   UNL     1     -40.123 -42.468  13.435  1.00  0.00     0.152 C 
HETATM   18  C   UNL     1     -41.641 -40.535  13.510  1.00  0.00     0.152 C 
ENDBRANCH  12  14
ENDBRANCH   9  12
ENDBRANCH   1   8
BRANCH   7  19
HETATM   19  N   UNL     1     -41.873 -48.622  11.322  1.00  0.00    -0.362 N 
HETATM   20  C   UNL     1     -40.411 -48.803  11.380  1.00  0.00     0.150 C 
HETATM   21  C   UNL     1     -40.074 -50.286  11.603  1.00  0.00     0.187 C 
HETATM   22  O   UNL     1     -40.721 -50.802  12.776  1.00  0.00    -0.388 OA
HETATM   23  C   UNL     1     -42.145 -50.673  12.647  1.00  0.00     0.187 C 
HETATM   24  C   UNL     1     -42.579 -49.206  12.465  1.00  0.00     0.150 C 
ENDBRANCH   7  19
TORSDOF 4
ENDMDL
