MODEL 1
REMARK VINA RESULT:      -5.2      0.000      0.000
REMARK  4 active torsions:
REMARK  status: ('A' for Active; 'I' for Inactive)
REMARK    1  A    between atoms: O_2  and  C_3 
REMARK    2  A    between atoms: C_3  and  C_4 
REMARK    3  A    between atoms: C_4  and  N_5 
REMARK       I    between atoms: N_5  and  C_6 
REMARK       I    between atoms: C_6  and  N_8 
REMARK    4  A    between atoms: N_8  and  C_9 
ROOT
HETATM    1  N   UNL     1     -42.856 -52.392  12.210  1.00  0.00    -0.340 N 
HETATM    2  C   UNL     1     -41.538 -52.724  12.256  1.00  0.00     0.323 C 
HETATM    3  O   UNL     1     -41.146 -53.833  12.617  1.00  0.00    -0.247 OA
HETATM    4  N   UNL     1     -40.636 -51.789  11.859  1.00  0.00    -0.274 N 
HETATM    5  H   UNL     1     -43.110 -51.523  11.738  1.00  0.00     0.164 HD
HETATM    6  H   UNL     1     -39.672 -52.071  11.831  1.00  0.00     0.174 HD
ENDROOT
BRANCH   1   7
HETATM    7  C   UNL     1     -43.903 -53.344  12.503  1.00  0.00     0.162 C 
BRANCH   7   8
HETATM    8  C   UNL     1     -44.692 -52.833  13.717  1.00  0.00     0.076 C 
HETATM    9  C   UNL     1     -44.918 -51.292  13.708  1.00  0.00     0.040 C 
HETATM   10  C   UNL     1     -46.294 -51.526  13.063  1.00  0.00     0.006 C 
HETATM   11  C   UNL     1     -46.243 -52.971  13.582  1.00  0.00     0.040 C 
BRANCH   8  12
HETATM   12  O   UNL     1     -44.186 -53.390  14.966  1.00  0.00    -0.383 OA
HETATM   13  C   UNL     1     -43.656 -54.708  14.934  1.00  0.00     0.202 C 
ENDBRANCH   8  12
ENDBRANCH   7   8
ENDBRANCH   1   7
BRANCH   4  14
HETATM   14  C   UNL     1     -40.936 -50.515  11.499  1.00  0.00     0.231 A 
HETATM   15  N   UNL     1     -40.606 -49.851  10.410  1.00  0.00    -0.330 N 
HETATM   16  C   UNL     1     -41.168 -48.615  10.594  1.00  0.00     0.116 A 
ATOM     17  HN  UNL     1     -40.060 -50.180   9.615  1.00  0.00     0.168 HD
HETATM   18  C   UNL     1     -41.790 -48.567  11.815  1.00  0.00     0.162 A 
HETATM   19  O   UNL     1     -41.668 -49.793  12.399  1.00  0.00    -0.290 OA
ENDBRANCH   4  14
TORSDOF 4
ENDMDL
MODEL 2
REMARK VINA RESULT:      -5.1      0.975      2.062
REMARK  4 active torsions:
REMARK  status: ('A' for Active; 'I' for Inactive)
REMARK    1  A    between atoms: O_2  and  C_3 
REMARK    2  A    between atoms: C_3  and  C_4 
REMARK    3  A    between atoms: C_4  and  N_5 
REMARK       I    between atoms: N_5  and  C_6 
REMARK       I    between atoms: C_6  and  N_8 
REMARK    4  A    between atoms: N_8  and  C_9 
ROOT
HETATM    1  N   UNL     1     -42.599 -52.304  11.872  1.00  0.00    -0.340 N 
HETATM    2  C   UNL     1     -41.239 -52.318  11.896  1.00  0.00     0.323 C 
HETATM    3  O   UNL     1     -40.592 -53.323  12.184  1.00  0.00    -0.247 OA
HETATM    4  N   UNL     1     -40.589 -51.173  11.563  1.00  0.00    -0.274 N 
HETATM    5  H   UNL     1     -43.057 -51.490  11.458  1.00  0.00     0.164 HD
HETATM    6  H   UNL     1     -39.585 -51.217  11.517  1.00  0.00     0.174 HD
ENDROOT
BRANCH   1   7
HETATM    7  C   UNL     1     -43.387 -53.493  12.100  1.00  0.00     0.162 C 
BRANCH   7   8
HETATM    8  C   UNL     1     -44.225 -53.278  13.369  1.00  0.00     0.076 C 
HETATM    9  C   UNL     1     -45.127 -54.495  13.731  1.00  0.00     0.040 C 
HETATM   10  C   UNL     1     -44.028 -54.990  14.686  1.00  0.00     0.006 C 
HETATM   11  C   UNL     1     -43.460 -53.563  14.702  1.00  0.00     0.040 C 
BRANCH   8  12
HETATM   12  O   UNL     1     -44.886 -51.978  13.369  1.00  0.00    -0.383 OA
HETATM   13  C   UNL     1     -46.255 -51.935  12.990  1.00  0.00     0.202 C 
ENDBRANCH   8  12
ENDBRANCH   7   8
ENDBRANCH   1   7
BRANCH   4  14
HETATM   14  C   UNL     1     -41.185 -49.984  11.289  1.00  0.00     0.231 A 
HETATM   15  N   UNL     1     -41.002 -49.169  10.270  1.00  0.00    -0.330 N 
HETATM   16  C   UNL     1     -41.857 -48.129  10.522  1.00  0.00     0.116 A 
ATOM     17  HN  UNL     1     -40.370 -49.285   9.478  1.00  0.00     0.168 HD
HETATM   18  C   UNL     1     -42.504 -48.339  11.713  1.00  0.00     0.162 A 
HETATM   19  O   UNL     1     -42.097 -49.544  12.206  1.00  0.00    -0.290 OA
ENDBRANCH   4  14
TORSDOF 4
ENDMDL
MODEL 3
REMARK VINA RESULT:      -5.0      1.642      2.026
REMARK  4 active torsions:
REMARK  status: ('A' for Active; 'I' for Inactive)
REMARK    1  A    between atoms: O_2  and  C_3 
REMARK    2  A    between atoms: C_3  and  C_4 
REMARK    3  A    between atoms: C_4  and  N_5 
REMARK       I    between atoms: N_5  and  C_6 
REMARK       I    between atoms: C_6  and  N_8 
REMARK    4  A    between atoms: N_8  and  C_9 
ROOT
HETATM    1  N   UNL     1     -43.109 -52.660  14.223  1.00  0.00    -0.340 N 
HETATM    2  C   UNL     1     -42.165 -53.596  13.932  1.00  0.00     0.323 C 
HETATM    3  O   UNL     1     -42.218 -54.746  14.365  1.00  0.00    -0.247 OA
HETATM    4  N   UNL     1     -41.147 -53.233  13.109  1.00  0.00    -0.274 N 
HETATM    5  H   UNL     1     -43.091 -51.789  13.691  1.00  0.00     0.164 HD
HETATM    6  H   UNL     1     -40.497 -53.954  12.847  1.00  0.00     0.174 HD
ENDROOT
BRANCH   1   7
HETATM    7  C   UNL     1     -44.290 -52.969  14.996  1.00  0.00     0.162 C 
BRANCH   7   8
HETATM    8  C   UNL     1     -45.491 -53.014  14.041  1.00  0.00     0.076 C 
HETATM    9  C   UNL     1     -46.856 -52.756  14.746  1.00  0.00     0.040 C 
HETATM   10  C   UNL     1     -46.749 -51.274  14.348  1.00  0.00     0.006 C 
HETATM   11  C   UNL     1     -45.745 -51.683  13.261  1.00  0.00     0.040 C 
BRANCH   8  12
HETATM   12  O   UNL     1     -45.443 -54.178  13.164  1.00  0.00    -0.383 OA
HETATM   13  C   UNL     1     -45.568 -55.460  13.763  1.00  0.00     0.202 C 
ENDBRANCH   8  12
ENDBRANCH   7   8
ENDBRANCH   1   7
BRANCH   4  14
HETATM   14  C   UNL     1     -40.944 -51.984  12.618  1.00  0.00     0.231 A 
HETATM   15  N   UNL     1     -40.976 -51.557  11.372  1.00  0.00    -0.330 N 
HETATM   16  C   UNL     1     -40.686 -50.222  11.473  1.00  0.00     0.116 A 
ATOM     17  HN  UNL     1     -41.171 -52.095  10.529  1.00  0.00     0.168 HD
HETATM   18  C   UNL     1     -40.452 -49.897  12.785  1.00  0.00     0.162 A 
HETATM   19  O   UNL     1     -40.638 -51.020  13.536  1.00  0.00    -0.290 OA
ENDBRANCH   4  14
TORSDOF 4
ENDMDL
MODEL 4
REMARK VINA RESULT:      -5.0      4.951      7.599
REMARK  4 active torsions:
REMARK  status: ('A' for Active; 'I' for Inactive)
REMARK    1  A    between atoms: O_2  and  C_3 
REMARK    2  A    between atoms: C_3  and  C_4 
REMARK    3  A    between atoms: C_4  and  N_5 
REMARK       I    between atoms: N_5  and  C_6 
REMARK       I    between atoms: C_6  and  N_8 
REMARK    4  A    between atoms: N_8  and  C_9 
ROOT
HETATM    1  N   UNL     1     -40.844 -46.919  10.669  1.00  0.00    -0.340 N 
HETATM    2  C   UNL     1     -41.547 -48.060  10.433  1.00  0.00     0.323 C 
HETATM    3  O   UNL     1     -42.689 -48.052   9.978  1.00  0.00    -0.247 OA
HETATM    4  N   UNL     1     -40.935 -49.244  10.694  1.00  0.00    -0.274 N 
HETATM    5  H   UNL     1     -39.850 -47.010  10.879  1.00  0.00     0.164 HD
HETATM    6  H   UNL     1     -41.439 -50.079  10.449  1.00  0.00     0.174 HD
ENDROOT
BRANCH   1   7
HETATM    7  C   UNL     1     -41.356 -45.612  10.324  1.00  0.00     0.162 C 
BRANCH   7   8
HETATM    8  C   UNL     1     -40.218 -44.593  10.481  1.00  0.00     0.076 C 
HETATM    9  C   UNL     1     -40.596 -43.371  11.368  1.00  0.00     0.040 C 
HETATM   10  C   UNL     1     -39.961 -44.084  12.573  1.00  0.00     0.006 C 
HETATM   11  C   UNL     1     -39.174 -44.958  11.585  1.00  0.00     0.040 C 
BRANCH   8  12
HETATM   12  O   UNL     1     -39.594 -44.277   9.201  1.00  0.00    -0.383 OA
HETATM   13  C   UNL     1     -38.281 -44.768   8.968  1.00  0.00     0.202 C 
ENDBRANCH   8  12
ENDBRANCH   7   8
ENDBRANCH   1   7
BRANCH   4  14
HETATM   14  C   UNL     1     -39.706 -49.384  11.253  1.00  0.00     0.231 A 
HETATM   15  N   UNL     1     -38.637 -49.997  10.787  1.00  0.00    -0.330 N 
HETATM   16  C   UNL     1     -37.703 -49.830  11.775  1.00  0.00     0.116 A 
ATOM     17  HN  UNL     1     -38.529 -50.482   9.897  1.00  0.00     0.168 HD
HETATM   18  C   UNL     1     -38.259 -49.148  12.827  1.00  0.00     0.162 A 
HETATM   19  O   UNL     1     -39.544 -48.835  12.493  1.00  0.00    -0.290 OA
ENDBRANCH   4  14
TORSDOF 4
ENDMDL
MODEL 5
REMARK VINA RESULT:      -4.9      1.954      2.814
REMARK  4 active torsions:
REMARK  status: ('A' for Active; 'I' for Inactive)
REMARK    1  A    between atoms: O_2  and  C_3 
REMARK    2  A    between atoms: C_3  and  C_4 
REMARK    3  A    between atoms: C_4  and  N_5 
REMARK       I    between atoms: N_5  and  C_6 
REMARK       I    between atoms: C_6  and  N_8 
REMARK    4  A    between atoms: N_8  and  C_9 
ROOT
HETATM    1  N   UNL     1     -43.925 -53.239  14.124  1.00  0.00    -0.340 N 
HETATM    2  C   UNL     1     -44.157 -53.649  12.847  1.00  0.00     0.323 C 
HETATM    3  O   UNL     1     -45.093 -54.389  12.549  1.00  0.00    -0.247 OA
HETATM    4  N   UNL     1     -43.326 -53.192  11.875  1.00  0.00    -0.274 N 
HETATM    5  H   UNL     1     -43.242 -52.494  14.264  1.00  0.00     0.164 HD
HETATM    6  H   UNL     1     -43.551 -53.446  10.929  1.00  0.00     0.174 HD
ENDROOT
BRANCH   1   7
HETATM    7  C   UNL     1     -44.810 -53.574  15.215  1.00  0.00     0.162 C 
BRANCH   7   8
HETATM    8  C   UNL     1     -45.358 -52.268  15.808  1.00  0.00     0.076 C 
HETATM    9  C   UNL     1     -45.355 -51.079  14.803  1.00  0.00     0.040 C 
HETATM   10  C   UNL     1     -46.820 -51.398  14.464  1.00  0.00     0.006 C 
HETATM   11  C   UNL     1     -46.917 -52.158  15.795  1.00  0.00     0.040 C 
BRANCH   8  12
HETATM   12  O   UNL     1     -44.786 -51.987  17.121  1.00  0.00    -0.383 OA
HETATM   13  C   UNL     1     -44.142 -50.735  17.305  1.00  0.00     0.202 C 
ENDBRANCH   8  12
ENDBRANCH   7   8
ENDBRANCH   1   7
BRANCH   4  14
HETATM   14  C   UNL     1     -42.225 -52.425  12.083  1.00  0.00     0.231 A 
HETATM   15  N   UNL     1     -40.974 -52.641  11.733  1.00  0.00    -0.330 N 
HETATM   16  C   UNL     1     -40.303 -51.547  12.212  1.00  0.00     0.116 A 
ATOM     17  HN  UNL     1     -40.592 -53.437  11.223  1.00  0.00     0.168 HD
HETATM   18  C   UNL     1     -41.176 -50.721  12.872  1.00  0.00     0.162 A 
HETATM   19  O   UNL     1     -42.424 -51.265  12.776  1.00  0.00    -0.290 OA
ENDBRANCH   4  14
TORSDOF 4
ENDMDL
MODEL 6
REMARK VINA RESULT:      -4.9      5.647      8.079
REMARK  4 active torsions:
REMARK  status: ('A' for Active; 'I' for Inactive)
REMARK    1  A    between atoms: O_2  and  C_3 
REMARK    2  A    between atoms: C_3  and  C_4 
REMARK    3  A    between atoms: C_4  and  N_5 
REMARK       I    between atoms: N_5  and  C_6 
REMARK       I    between atoms: C_6  and  N_8 
REMARK    4  A    between atoms: N_8  and  C_9 
ROOT
HETATM    1  N   UNL     1     -41.014 -45.691  10.302  1.00  0.00    -0.340 N 
HETATM    2  C   UNL     1     -40.797 -46.924  10.834  1.00  0.00     0.323 C 
HETATM    3  O   UNL     1     -39.866 -47.160  11.602  1.00  0.00    -0.247 OA
HETATM    4  N   UNL     1     -41.669 -47.914  10.510  1.00  0.00    -0.274 N 
HETATM    5  H   UNL     1     -41.898 -45.532   9.818  1.00  0.00     0.164 HD
HETATM    6  H   UNL     1     -41.538 -48.801  10.965  1.00  0.00     0.174 HD
ENDROOT
BRANCH   1   7
HETATM    7  C   UNL     1     -40.216 -44.543  10.666  1.00  0.00     0.162 C 
BRANCH   7   8
HETATM    8  C   UNL     1     -41.027 -43.683  11.645  1.00  0.00     0.076 C 
HETATM    9  C   UNL     1     -40.598 -43.860  13.131  1.00  0.00     0.040 C 
HETATM   10  C   UNL     1     -39.692 -42.626  12.987  1.00  0.00     0.006 C 
HETATM   11  C   UNL     1     -40.530 -42.206  11.771  1.00  0.00     0.040 C 
BRANCH   8  12
HETATM   12  O   UNL     1     -42.460 -43.772  11.386  1.00  0.00    -0.383 OA
HETATM   13  C   UNL     1     -43.167 -42.559  11.166  1.00  0.00     0.202 C 
ENDBRANCH   8  12
ENDBRANCH   7   8
ENDBRANCH   1   7
BRANCH   4  14
HETATM   14  C   UNL     1     -42.696 -47.797   9.629  1.00  0.00     0.231 A 
HETATM   15  N   UNL     1     -42.752 -48.137   8.357  1.00  0.00    -0.330 N 
HETATM   16  C   UNL     1     -44.018 -47.778   7.976  1.00  0.00     0.116 A 
ATOM     17  HN  UNL     1     -42.024 -48.568   7.789  1.00  0.00     0.168 HD
HETATM   18  C   UNL     1     -44.671 -47.195   9.030  1.00  0.00     0.162 A 
HETATM   19  O   UNL     1     -43.838 -47.222  10.110  1.00  0.00    -0.290 OA
ENDBRANCH   4  14
TORSDOF 4
ENDMDL
MODEL 7
REMARK VINA RESULT:      -4.8      2.756      3.559
REMARK  4 active torsions:
REMARK  status: ('A' for Active; 'I' for Inactive)
REMARK    1  A    between atoms: O_2  and  C_3 
REMARK    2  A    between atoms: C_3  and  C_4 
REMARK    3  A    between atoms: C_4  and  N_5 
REMARK       I    between atoms: N_5  and  C_6 
REMARK       I    between atoms: C_6  and  N_8 
REMARK    4  A    between atoms: N_8  and  C_9 
ROOT
HETATM    1  N   UNL     1     -43.574 -53.387  14.286  1.00  0.00    -0.340 N 
HETATM    2  C   UNL     1     -43.486 -53.852  13.010  1.00  0.00     0.323 C 
HETATM    3  O   UNL     1     -44.472 -54.197  12.361  1.00  0.00    -0.247 OA
HETATM    4  N   UNL     1     -42.254 -53.906  12.441  1.00  0.00    -0.274 N 
HETATM    5  H   UNL     1     -42.742 -52.960  14.693  1.00  0.00     0.164 HD
HETATM    6  H   UNL     1     -42.211 -54.184  11.476  1.00  0.00     0.174 HD
ENDROOT
BRANCH   1   7
HETATM    7  C   UNL     1     -44.843 -53.184  14.947  1.00  0.00     0.162 C 
BRANCH   7   8
HETATM    8  C   UNL     1     -45.214 -51.699  14.832  1.00  0.00     0.076 C 
HETATM    9  C   UNL     1     -46.565 -51.451  14.097  1.00  0.00     0.040 C 
HETATM   10  C   UNL     1     -47.265 -51.395  15.464  1.00  0.00     0.006 C 
HETATM   11  C   UNL     1     -45.900 -51.105  16.105  1.00  0.00     0.040 C 
BRANCH   8  12
HETATM   12  O   UNL     1     -44.088 -50.893  14.373  1.00  0.00    -0.383 OA
HETATM   13  C   UNL     1     -43.567 -49.919  15.267  1.00  0.00     0.202 C 
ENDBRANCH   8  12
ENDBRANCH   7   8
ENDBRANCH   1   7
BRANCH   4  14
HETATM   14  C   UNL     1     -41.087 -53.613  13.070  1.00  0.00     0.231 A 
HETATM   15  N   UNL     1     -40.054 -54.390  13.324  1.00  0.00    -0.330 N 
HETATM   16  C   UNL     1     -39.179 -53.570  13.987  1.00  0.00     0.116 A 
ATOM     17  HN  UNL     1     -39.933 -55.374  13.084  1.00  0.00     0.168 HD
HETATM   18  C   UNL     1     -39.737 -52.328  14.142  1.00  0.00     0.162 A 
HETATM   19  O   UNL     1     -40.958 -52.335  13.535  1.00  0.00    -0.290 OA
ENDBRANCH   4  14
TORSDOF 4
ENDMDL
MODEL 8
REMARK VINA RESULT:      -4.8      4.867      6.870
REMARK  4 active torsions:
REMARK  status: ('A' for Active; 'I' for Inactive)
REMARK    1  A    between atoms: O_2  and  C_3 
REMARK    2  A    between atoms: C_3  and  C_4 
REMARK    3  A    between atoms: C_4  and  N_5 
REMARK       I    between atoms: N_5  and  C_6 
REMARK       I    between atoms: C_6  and  N_8 
REMARK    4  A    between atoms: N_8  and  C_9 
ROOT
HETATM    1  N   UNL     1     -40.405 -47.084  10.888  1.00  0.00    -0.340 N 
HETATM    2  C   UNL     1     -41.213 -48.137  10.590  1.00  0.00     0.323 C 
HETATM    3  O   UNL     1     -42.342 -47.993  10.122  1.00  0.00    -0.247 OA
HETATM    4  N   UNL     1     -40.727 -49.387  10.802  1.00  0.00    -0.274 N 
HETATM    5  H   UNL     1     -39.428 -47.284  11.106  1.00  0.00     0.164 HD
HETATM    6  H   UNL     1     -41.308 -50.155  10.512  1.00  0.00     0.174 HD
ENDROOT
BRANCH   1   7
HETATM    7  C   UNL     1     -40.778 -45.718  10.599  1.00  0.00     0.162 C 
BRANCH   7   8
HETATM    8  C   UNL     1     -41.020 -44.994  11.931  1.00  0.00     0.076 C 
HETATM    9  C   UNL     1     -40.035 -45.421  13.060  1.00  0.00     0.040 C 
HETATM   10  C   UNL     1     -39.149 -44.216  12.704  1.00  0.00     0.006 C 
HETATM   11  C   UNL     1     -40.368 -43.576  12.022  1.00  0.00     0.040 C 
BRANCH   8  12
HETATM   12  O   UNL     1     -42.432 -44.986  12.295  1.00  0.00    -0.383 OA
HETATM   13  C   UNL     1     -42.861 -45.902  13.294  1.00  0.00     0.202 C 
ENDBRANCH   8  12
ENDBRANCH   7   8
ENDBRANCH   1   7
BRANCH   4  14
HETATM   14  C   UNL     1     -39.528 -49.675  11.369  1.00  0.00     0.231 A 
HETATM   15  N   UNL     1     -38.448 -50.199  10.826  1.00  0.00    -0.330 N 
HETATM   16  C   UNL     1     -37.559 -50.273  11.865  1.00  0.00     0.116 A 
ATOM     17  HN  UNL     1     -38.306 -50.483   9.857  1.00  0.00     0.168 HD
HETATM   18  C   UNL     1     -38.153 -49.822  13.016  1.00  0.00     0.162 A 
HETATM   19  O   UNL     1     -39.416 -49.411  12.704  1.00  0.00    -0.290 OA
ENDBRANCH   4  14
TORSDOF 4
ENDMDL
MODEL 9
REMARK VINA RESULT:      -4.6      5.126      7.234
REMARK  4 active torsions:
REMARK  status: ('A' for Active; 'I' for Inactive)
REMARK    1  A    between atoms: O_2  and  C_3 
REMARK    2  A    between atoms: C_3  and  C_4 
REMARK    3  A    between atoms: C_4  and  N_5 
REMARK       I    between atoms: N_5  and  C_6 
REMARK       I    between atoms: C_6  and  N_8 
REMARK    4  A    between atoms: N_8  and  C_9 
ROOT
HETATM    1  N   UNL     1     -40.265 -46.745  10.707  1.00  0.00    -0.340 N 
HETATM    2  C   UNL     1     -41.182 -47.749  10.666  1.00  0.00     0.323 C 
HETATM    3  O   UNL     1     -42.353 -47.564  10.339  1.00  0.00    -0.247 OA
HETATM    4  N   UNL     1     -40.761 -49.003  10.976  1.00  0.00    -0.274 N 
HETATM    5  H   UNL     1     -39.284 -47.004  10.816  1.00  0.00     0.164 HD
HETATM    6  H   UNL     1     -41.431 -49.746  10.874  1.00  0.00     0.174 HD
ENDROOT
BRANCH   1   7
HETATM    7  C   UNL     1     -40.577 -45.397  10.290  1.00  0.00     0.162 C 
BRANCH   7   8
HETATM    8  C   UNL     1     -40.498 -44.483  11.521  1.00  0.00     0.076 C 
HETATM    9  C   UNL     1     -40.958 -43.021  11.240  1.00  0.00     0.040 C 
HETATM   10  C   UNL     1     -42.358 -43.392  11.755  1.00  0.00     0.006 C 
HETATM   11  C   UNL     1     -41.726 -44.588  12.482  1.00  0.00     0.040 C 
BRANCH   8  12
HETATM   12  O   UNL     1     -39.226 -44.622  12.219  1.00  0.00    -0.383 OA
HETATM   13  C   UNL     1     -39.259 -44.730  13.635  1.00  0.00     0.202 C 
ENDBRANCH   8  12
ENDBRANCH   7   8
ENDBRANCH   1   7
BRANCH   4  14
HETATM   14  C   UNL     1     -39.516 -49.326  11.410  1.00  0.00     0.231 A 
HETATM   15  N   UNL     1     -38.600 -50.083  10.842  1.00  0.00    -0.330 N 
HETATM   16  C   UNL     1     -37.557 -50.063  11.730  1.00  0.00     0.116 A 
ATOM     17  HN  UNL     1     -38.654 -50.571   9.948  1.00  0.00     0.168 HD
HETATM   18  C   UNL     1     -37.900 -49.318  12.829  1.00  0.00     0.162 A 
HETATM   19  O   UNL     1     -39.152 -48.818  12.624  1.00  0.00    -0.290 OA
ENDBRANCH   4  14
TORSDOF 4
ENDMDL
