MODEL 1
REMARK VINA RESULT:      -7.2      0.000      0.000
REMARK  5 active torsions:
REMARK  status: ('A' for Active; 'I' for Inactive)
REMARK    1  A    between atoms: N_1  and  C_8 
REMARK    2  A    between atoms: N_2  and  C_7 
REMARK    3  A    between atoms: C_8  and  C_10 
REMARK       I    between atoms: C_10  and  N_18 
REMARK    4  A    between atoms: N_18  and  C_24 
REMARK    5  A    between atoms: C_23  and  C_24 
ROOT
HETATM    1  C   UNL     1     -38.686 -52.030  14.456  1.00  0.00     0.240 C 
ENDROOT
BRANCH   1   2
HETATM    2  N   UNL     1     -38.581 -50.837  13.618  1.00  0.00    -0.255 N 
HETATM    3  C   UNL     1     -39.624 -49.928  13.744  1.00  0.00     0.334 C 
HETATM    4  N   UNL     1     -39.902 -49.172  12.612  1.00  0.00    -0.279 N 
HETATM    5  O   UNL     1     -40.296 -49.842  14.772  1.00  0.00    -0.246 OA
HETATM    6  C   UNL     1     -39.011 -49.070  11.570  1.00  0.00     0.146 C 
HETATM    7  C   UNL     1     -37.887 -49.785  11.551  1.00  0.00     0.200 C 
HETATM    8  C   UNL     1     -37.647 -50.813  12.593  1.00  0.00     0.292 C 
HETATM    9  F   UNL     1     -37.001 -49.709  10.539  1.00  0.00    -0.199 F 
HETATM   10  O   UNL     1     -36.704 -51.595  12.509  1.00  0.00    -0.264 OA
BRANCH   4  11
HETATM   11  C   UNL     1     -41.229 -48.583  12.548  1.00  0.00     0.232 C 
HETATM   12  O   UNL     1     -41.872 -48.892  11.300  1.00  0.00    -0.366 OA
HETATM   13  C   UNL     1     -42.806 -47.837  11.021  1.00  0.00     0.170 C 
HETATM   14  C   UNL     1     -42.662 -46.799  12.120  1.00  0.00     0.031 C 
HETATM   15  C   UNL     1     -41.282 -47.074  12.669  1.00  0.00     0.056 C 
ENDBRANCH   4  11
ENDBRANCH   1   2
BRANCH   1  16
HETATM   16  C   UNL     1     -39.581 -53.175  14.011  1.00  0.00     0.236 C 
HETATM   17  N   UNL     1     -40.914 -53.097  14.317  1.00  0.00    -0.355 N 
HETATM   18  H   UNL     1     -41.317 -52.214  14.609  1.00  0.00     0.162 HD
HETATM   19  O   UNL     1     -39.082 -54.203  13.551  1.00  0.00    -0.272 OA
BRANCH  17  20
HETATM   20  C   UNL     1     -41.806 -54.189  13.958  1.00  0.00     0.161 C 
BRANCH  20  21
HETATM   21  C   UNL     1     -43.265 -53.895  14.208  1.00  0.00    -0.038 A 
HETATM   22  C   UNL     1     -43.691 -52.646  14.690  1.00  0.00     0.048 A 
HETATM   23  C   UNL     1     -45.044 -52.433  14.839  1.00  0.00     0.105 A 
HETATM   24  C   UNL     1     -45.969 -53.419  14.590  1.00  0.00     0.105 A 
HETATM   25  O   UNL     1     -45.623 -51.261  15.213  1.00  0.00    -0.323 OA
HETATM   26  O   UNL     1     -47.247 -52.984  14.765  1.00  0.00    -0.323 OA
HETATM   27  C   UNL     1     -45.591 -54.683  14.202  1.00  0.00     0.040 A 
HETATM   28  C   UNL     1     -47.016 -51.583  15.028  1.00  0.00     0.352 C 
HETATM   29  C   UNL     1     -44.225 -54.920  14.008  1.00  0.00     0.012 A 
ENDBRANCH  20  21
ENDBRANCH  17  20
ENDBRANCH   1  16
TORSDOF 5
ENDMDL
MODEL 2
REMARK VINA RESULT:      -7.1      2.630      7.083
REMARK  5 active torsions:
REMARK  status: ('A' for Active; 'I' for Inactive)
REMARK    1  A    between atoms: N_1  and  C_8 
REMARK    2  A    between atoms: N_2  and  C_7 
REMARK    3  A    between atoms: C_8  and  C_10 
REMARK       I    between atoms: C_10  and  N_18 
REMARK    4  A    between atoms: N_18  and  C_24 
REMARK    5  A    between atoms: C_23  and  C_24 
ROOT
HETATM    1  C   UNL     1     -40.808 -52.464  11.827  1.00  0.00     0.240 C 
ENDROOT
BRANCH   1   2
HETATM    2  N   UNL     1     -41.247 -53.472  12.790  1.00  0.00    -0.255 N 
HETATM    3  C   UNL     1     -42.624 -53.607  12.923  1.00  0.00     0.334 C 
HETATM    4  N   UNL     1     -43.069 -54.028  14.169  1.00  0.00    -0.279 N 
HETATM    5  O   UNL     1     -43.401 -53.314  12.013  1.00  0.00    -0.246 OA
HETATM    6  C   UNL     1     -42.220 -54.600  15.088  1.00  0.00     0.146 C 
HETATM    7  C   UNL     1     -40.909 -54.673  14.864  1.00  0.00     0.200 C 
HETATM    8  C   UNL     1     -40.324 -54.006  13.676  1.00  0.00     0.292 C 
HETATM    9  F   UNL     1     -40.056 -55.222  15.751  1.00  0.00    -0.199 F 
HETATM   10  O   UNL     1     -39.108 -53.917  13.531  1.00  0.00    -0.264 OA
BRANCH   4  11
HETATM   11  C   UNL     1     -44.456 -53.733  14.486  1.00  0.00     0.232 C 
HETATM   12  O   UNL     1     -44.624 -53.482  15.891  1.00  0.00    -0.366 OA
HETATM   13  C   UNL     1     -45.974 -53.832  16.235  1.00  0.00     0.170 C 
HETATM   14  C   UNL     1     -46.631 -54.395  14.987  1.00  0.00     0.031 C 
HETATM   15  C   UNL     1     -45.451 -54.823  14.146  1.00  0.00     0.056 C 
ENDBRANCH   4  11
ENDBRANCH   1   2
BRANCH   1  16
HETATM   16  C   UNL     1     -40.674 -51.017  12.271  1.00  0.00     0.236 C 
HETATM   17  N   UNL     1     -40.116 -50.130  11.389  1.00  0.00    -0.355 N 
HETATM   18  H   UNL     1     -40.021 -50.378  10.411  1.00  0.00     0.162 HD
HETATM   19  O   UNL     1     -40.903 -50.709  13.442  1.00  0.00    -0.272 OA
BRANCH  17  20
HETATM   20  C   UNL     1     -39.919 -48.743  11.783  1.00  0.00     0.161 C 
BRANCH  20  21
HETATM   21  C   UNL     1     -40.834 -47.771  11.079  1.00  0.00    -0.038 A 
HETATM   22  C   UNL     1     -41.925 -48.213  10.312  1.00  0.00     0.048 A 
HETATM   23  C   UNL     1     -42.750 -47.264   9.747  1.00  0.00     0.105 A 
HETATM   24  C   UNL     1     -42.497 -45.918   9.861  1.00  0.00     0.105 A 
HETATM   25  O   UNL     1     -43.888 -47.522   9.049  1.00  0.00    -0.323 OA
HETATM   26  O   UNL     1     -43.454 -45.160   9.259  1.00  0.00    -0.323 OA
HETATM   27  C   UNL     1     -41.390 -45.444  10.527  1.00  0.00     0.040 A 
HETATM   28  C   UNL     1     -44.394 -46.184   8.867  1.00  0.00     0.352 C 
HETATM   29  C   UNL     1     -40.554 -46.382  11.143  1.00  0.00     0.012 A 
ENDBRANCH  20  21
ENDBRANCH  17  20
ENDBRANCH   1  16
TORSDOF 5
ENDMDL
MODEL 3
REMARK VINA RESULT:      -6.8      2.017      2.535
REMARK  5 active torsions:
REMARK  status: ('A' for Active; 'I' for Inactive)
REMARK    1  A    between atoms: N_1  and  C_8 
REMARK    2  A    between atoms: N_2  and  C_7 
REMARK    3  A    between atoms: C_8  and  C_10 
REMARK       I    between atoms: C_10  and  N_18 
REMARK    4  A    between atoms: N_18  and  C_24 
REMARK    5  A    between atoms: C_23  and  C_24 
ROOT
HETATM    1  C   UNL     1     -40.859 -51.890  11.839  1.00  0.00     0.240 C 
ENDROOT
BRANCH   1   2
HETATM    2  N   UNL     1     -40.228 -50.903  12.713  1.00  0.00    -0.255 N 
HETATM    3  C   UNL     1     -40.804 -49.639  12.696  1.00  0.00     0.334 C 
HETATM    4  N   UNL     1     -39.943 -48.582  12.964  1.00  0.00    -0.279 N 
HETATM    5  O   UNL     1     -41.987 -49.463  12.401  1.00  0.00    -0.246 OA
HETATM    6  C   UNL     1     -38.710 -48.779  13.542  1.00  0.00     0.146 C 
HETATM    7  C   UNL     1     -38.242 -50.005  13.767  1.00  0.00     0.200 C 
HETATM    8  C   UNL     1     -38.986 -51.185  13.264  1.00  0.00     0.292 C 
HETATM    9  F   UNL     1     -37.036 -50.224  14.325  1.00  0.00    -0.199 F 
HETATM   10  O   UNL     1     -38.501 -52.311  13.312  1.00  0.00    -0.264 OA
BRANCH   4  11
HETATM   11  C   UNL     1     -40.375 -47.273  12.504  1.00  0.00     0.232 C 
HETATM   12  O   UNL     1     -40.147 -47.121  11.092  1.00  0.00    -0.366 OA
HETATM   13  C   UNL     1     -39.971 -45.719  10.832  1.00  0.00     0.170 C 
HETATM   14  C   UNL     1     -40.018 -44.997  12.167  1.00  0.00     0.031 C 
HETATM   15  C   UNL     1     -39.689 -46.091  13.156  1.00  0.00     0.056 C 
ENDBRANCH   4  11
ENDBRANCH   1   2
BRANCH   1  16
HETATM   16  C   UNL     1     -41.838 -52.890  12.430  1.00  0.00     0.236 C 
HETATM   17  N   UNL     1     -43.134 -52.848  11.990  1.00  0.00    -0.355 N 
HETATM   18  H   UNL     1     -43.367 -52.339  11.145  1.00  0.00     0.162 HD
HETATM   19  O   UNL     1     -41.503 -53.587  13.390  1.00  0.00    -0.272 OA
BRANCH  17  20
HETATM   20  C   UNL     1     -44.123 -53.751  12.559  1.00  0.00     0.161 C 
BRANCH  20  21
HETATM   21  C   UNL     1     -45.069 -53.088  13.532  1.00  0.00    -0.038 A 
HETATM   22  C   UNL     1     -45.181 -53.528  14.861  1.00  0.00     0.048 A 
HETATM   23  C   UNL     1     -46.022 -52.836  15.707  1.00  0.00     0.105 A 
HETATM   24  C   UNL     1     -46.788 -51.782  15.270  1.00  0.00     0.105 A 
HETATM   25  O   UNL     1     -46.182 -53.079  17.035  1.00  0.00    -0.323 OA
HETATM   26  O   UNL     1     -47.517 -51.223  16.274  1.00  0.00    -0.323 OA
HETATM   27  C   UNL     1     -46.775 -51.375  13.956  1.00  0.00     0.040 A 
HETATM   28  C   UNL     1     -47.022 -51.968  17.407  1.00  0.00     0.352 C 
HETATM   29  C   UNL     1     -45.904 -52.035  13.081  1.00  0.00     0.012 A 
ENDBRANCH  20  21
ENDBRANCH  17  20
ENDBRANCH   1  16
TORSDOF 5
ENDMDL
MODEL 4
REMARK VINA RESULT:      -6.8      2.274      3.455
REMARK  5 active torsions:
REMARK  status: ('A' for Active; 'I' for Inactive)
REMARK    1  A    between atoms: N_1  and  C_8 
REMARK    2  A    between atoms: N_2  and  C_7 
REMARK    3  A    between atoms: C_8  and  C_10 
REMARK       I    between atoms: C_10  and  N_18 
REMARK    4  A    between atoms: N_18  and  C_24 
REMARK    5  A    between atoms: C_23  and  C_24 
ROOT
HETATM    1  C   UNL     1     -38.411 -49.571  11.905  1.00  0.00     0.240 C 
ENDROOT
BRANCH   1   2
HETATM    2  N   UNL     1     -39.493 -48.676  12.309  1.00  0.00    -0.255 N 
HETATM    3  C   UNL     1     -40.655 -48.766  11.551  1.00  0.00     0.334 C 
HETATM    4  N   UNL     1     -41.407 -47.602  11.463  1.00  0.00    -0.279 N 
HETATM    5  O   UNL     1     -40.964 -49.794  10.948  1.00  0.00    -0.246 OA
HETATM    6  C   UNL     1     -41.218 -46.548  12.327  1.00  0.00     0.146 C 
HETATM    7  C   UNL     1     -40.227 -46.556  13.218  1.00  0.00     0.200 C 
HETATM    8  C   UNL     1     -39.220 -47.644  13.194  1.00  0.00     0.292 C 
HETATM    9  F   UNL     1     -40.018 -45.534  14.070  1.00  0.00    -0.199 F 
HETATM   10  O   UNL     1     -38.211 -47.591  13.891  1.00  0.00    -0.264 OA
BRANCH   4  11
HETATM   11  C   UNL     1     -42.328 -47.519  10.342  1.00  0.00     0.232 C 
HETATM   12  O   UNL     1     -42.252 -46.233   9.704  1.00  0.00    -0.366 OA
HETATM   13  C   UNL     1     -43.527 -45.977   9.095  1.00  0.00     0.170 C 
HETATM   14  C   UNL     1     -44.443 -47.134   9.450  1.00  0.00     0.031 C 
HETATM   15  C   UNL     1     -43.790 -47.719  10.681  1.00  0.00     0.056 C 
ENDBRANCH   4  11
ENDBRANCH   1   2
BRANCH   1  16
HETATM   16  C   UNL     1     -38.298 -50.942  12.550  1.00  0.00     0.236 C 
HETATM   17  N   UNL     1     -39.373 -51.399  13.267  1.00  0.00    -0.355 N 
HETATM   18  H   UNL     1     -40.276 -50.950  13.168  1.00  0.00     0.162 HD
HETATM   19  O   UNL     1     -37.215 -51.529  12.564  1.00  0.00    -0.272 OA
BRANCH  17  20
HETATM   20  C   UNL     1     -39.298 -52.683  13.947  1.00  0.00     0.161 C 
BRANCH  20  21
HETATM   21  C   UNL     1     -40.640 -53.343  14.157  1.00  0.00    -0.038 A 
HETATM   22  C   UNL     1     -41.750 -53.020  13.359  1.00  0.00     0.048 A 
HETATM   23  C   UNL     1     -42.926 -53.706  13.572  1.00  0.00     0.105 A 
HETATM   24  C   UNL     1     -43.054 -54.640  14.573  1.00  0.00     0.105 A 
HETATM   25  O   UNL     1     -44.063 -53.574  12.838  1.00  0.00    -0.323 OA
HETATM   26  O   UNL     1     -44.285 -55.220  14.584  1.00  0.00    -0.323 OA
HETATM   27  C   UNL     1     -42.019 -54.922  15.434  1.00  0.00     0.040 A 
HETATM   28  C   UNL     1     -44.864 -54.633  13.399  1.00  0.00     0.352 C 
HETATM   29  C   UNL     1     -40.800 -54.268  15.220  1.00  0.00     0.012 A 
ENDBRANCH  20  21
ENDBRANCH  17  20
ENDBRANCH   1  16
TORSDOF 5
ENDMDL
MODEL 5
REMARK VINA RESULT:      -6.8      2.645      6.712
REMARK  5 active torsions:
REMARK  status: ('A' for Active; 'I' for Inactive)
REMARK    1  A    between atoms: N_1  and  C_8 
REMARK    2  A    between atoms: N_2  and  C_7 
REMARK    3  A    between atoms: C_8  and  C_10 
REMARK       I    between atoms: C_10  and  N_18 
REMARK    4  A    between atoms: N_18  and  C_24 
REMARK    5  A    between atoms: C_23  and  C_24 
ROOT
HETATM    1  C   UNL     1     -39.935 -52.921  13.307  1.00  0.00     0.240 C 
ENDROOT
BRANCH   1   2
HETATM    2  N   UNL     1     -41.200 -53.581  13.618  1.00  0.00    -0.255 N 
HETATM    3  C   UNL     1     -42.324 -53.028  13.015  1.00  0.00     0.334 C 
HETATM    4  N   UNL     1     -43.515 -53.171  13.715  1.00  0.00    -0.279 N 
HETATM    5  O   UNL     1     -42.255 -52.400  11.957  1.00  0.00    -0.246 OA
HETATM    6  C   UNL     1     -43.649 -54.078  14.741  1.00  0.00     0.146 C 
HETATM    7  C   UNL     1     -42.607 -54.781  15.181  1.00  0.00     0.200 C 
HETATM    8  C   UNL     1     -41.248 -54.491  14.664  1.00  0.00     0.292 C 
HETATM    9  F   UNL     1     -42.712 -55.670  16.188  1.00  0.00    -0.199 F 
HETATM   10  O   UNL     1     -40.253 -55.007  15.166  1.00  0.00    -0.264 OA
BRANCH   4  11
HETATM   11  C   UNL     1     -44.573 -52.236  13.373  1.00  0.00     0.232 C 
HETATM   12  O   UNL     1     -45.238 -51.754  14.553  1.00  0.00    -0.366 OA
HETATM   13  C   UNL     1     -46.579 -51.399  14.179  1.00  0.00     0.170 C 
HETATM   14  C   UNL     1     -46.754 -51.759  12.714  1.00  0.00     0.031 C 
HETATM   15  C   UNL     1     -45.669 -52.785  12.484  1.00  0.00     0.056 C 
ENDBRANCH   4  11
ENDBRANCH   1   2
BRANCH   1  16
HETATM   16  C   UNL     1     -39.734 -51.468  13.706  1.00  0.00     0.236 C 
HETATM   17  N   UNL     1     -39.881 -50.515  12.733  1.00  0.00    -0.355 N 
HETATM   18  H   UNL     1     -40.333 -50.750  11.856  1.00  0.00     0.162 HD
HETATM   19  O   UNL     1     -39.288 -51.191  14.820  1.00  0.00    -0.272 OA
BRANCH  17  20
HETATM   20  C   UNL     1     -39.651 -49.114  13.049  1.00  0.00     0.161 C 
BRANCH  20  21
HETATM   21  C   UNL     1     -40.300 -48.153  12.082  1.00  0.00    -0.038 A 
HETATM   22  C   UNL     1     -41.349 -48.556  11.239  1.00  0.00     0.048 A 
HETATM   23  C   UNL     1     -41.930 -47.608  10.424  1.00  0.00     0.105 A 
HETATM   24  C   UNL     1     -41.472 -46.313  10.372  1.00  0.00     0.105 A 
HETATM   25  O   UNL     1     -43.003 -47.813   9.615  1.00  0.00    -0.323 OA
HETATM   26  O   UNL     1     -42.210 -45.539   9.531  1.00  0.00    -0.323 OA
HETATM   27  C   UNL     1     -40.390 -45.899  11.114  1.00  0.00     0.040 A 
HETATM   28  C   UNL     1     -43.253 -46.467   9.163  1.00  0.00     0.352 C 
HETATM   29  C   UNL     1     -39.802 -46.830  11.979  1.00  0.00     0.012 A 
ENDBRANCH  20  21
ENDBRANCH  17  20
ENDBRANCH   1  16
TORSDOF 5
ENDMDL
MODEL 6
REMARK VINA RESULT:      -6.3      2.079      2.402
REMARK  5 active torsions:
REMARK  status: ('A' for Active; 'I' for Inactive)
REMARK    1  A    between atoms: N_1  and  C_8 
REMARK    2  A    between atoms: N_2  and  C_7 
REMARK    3  A    between atoms: C_8  and  C_10 
REMARK       I    between atoms: C_10  and  N_18 
REMARK    4  A    between atoms: N_18  and  C_24 
REMARK    5  A    between atoms: C_23  and  C_24 
ROOT
HETATM    1  C   UNL     1     -38.417 -51.273  13.337  1.00  0.00     0.240 C 
ENDROOT
BRANCH   1   2
HETATM    2  N   UNL     1     -38.725 -49.923  13.804  1.00  0.00    -0.255 N 
HETATM    3  C   UNL     1     -39.809 -49.312  13.186  1.00  0.00     0.334 C 
HETATM    4  N   UNL     1     -39.756 -47.925  13.111  1.00  0.00    -0.279 N 
HETATM    5  O   UNL     1     -40.727 -49.961  12.683  1.00  0.00    -0.246 OA
HETATM    6  C   UNL     1     -38.888 -47.189  13.884  1.00  0.00     0.146 C 
HETATM    7  C   UNL     1     -37.981 -47.783  14.658  1.00  0.00     0.200 C 
HETATM    8  C   UNL     1     -37.798 -49.253  14.589  1.00  0.00     0.292 C 
HETATM    9  F   UNL     1     -37.116 -47.085  15.419  1.00  0.00    -0.199 F 
HETATM   10  O   UNL     1     -36.865 -49.805  15.166  1.00  0.00    -0.264 OA
BRANCH   4  11
HETATM   11  C   UNL     1     -40.592 -47.308  12.096  1.00  0.00     0.232 C 
HETATM   12  O   UNL     1     -39.794 -46.629  11.111  1.00  0.00    -0.366 OA
HETATM   13  C   UNL     1     -40.592 -45.568  10.564  1.00  0.00     0.170 C 
HETATM   14  C   UNL     1     -41.913 -45.558  11.313  1.00  0.00     0.031 C 
HETATM   15  C   UNL     1     -41.580 -46.276  12.599  1.00  0.00     0.056 C 
ENDBRANCH   4  11
ENDBRANCH   1   2
BRANCH   1  16
HETATM   16  C   UNL     1     -39.143 -52.457  13.954  1.00  0.00     0.236 C 
HETATM   17  N   UNL     1     -40.063 -53.113  13.179  1.00  0.00    -0.355 N 
HETATM   18  H   UNL     1     -40.080 -52.965  12.177  1.00  0.00     0.162 HD
HETATM   19  O   UNL     1     -39.024 -52.694  15.157  1.00  0.00    -0.272 OA
BRANCH  17  20
HETATM   20  C   UNL     1     -40.821 -54.223  13.737  1.00  0.00     0.161 C 
BRANCH  20  21
HETATM   21  C   UNL     1     -42.318 -54.033  13.675  1.00  0.00    -0.038 A 
HETATM   22  C   UNL     1     -43.177 -54.672  14.584  1.00  0.00     0.048 A 
HETATM   23  C   UNL     1     -44.527 -54.405  14.502  1.00  0.00     0.105 A 
HETATM   24  C   UNL     1     -45.050 -53.590  13.526  1.00  0.00     0.105 A 
HETATM   25  O   UNL     1     -45.478 -54.874  15.352  1.00  0.00    -0.323 OA
HETATM   26  O   UNL     1     -46.396 -53.435  13.651  1.00  0.00    -0.323 OA
HETATM   27  C   UNL     1     -44.255 -53.015  12.562  1.00  0.00     0.040 A 
HETATM   28  C   UNL     1     -46.631 -54.144  14.886  1.00  0.00     0.352 C 
HETATM   29  C   UNL     1     -42.875 -53.239  12.641  1.00  0.00     0.012 A 
ENDBRANCH  20  21
ENDBRANCH  17  20
ENDBRANCH   1  16
TORSDOF 5
ENDMDL
MODEL 7
REMARK VINA RESULT:      -6.2      2.777      7.137
REMARK  5 active torsions:
REMARK  status: ('A' for Active; 'I' for Inactive)
REMARK    1  A    between atoms: N_1  and  C_8 
REMARK    2  A    between atoms: N_2  and  C_7 
REMARK    3  A    between atoms: C_8  and  C_10 
REMARK       I    between atoms: C_10  and  N_18 
REMARK    4  A    between atoms: N_18  and  C_24 
REMARK    5  A    between atoms: C_23  and  C_24 
ROOT
HETATM    1  C   UNL     1     -41.263 -52.406  11.748  1.00  0.00     0.240 C 
ENDROOT
BRANCH   1   2
HETATM    2  N   UNL     1     -41.597 -53.078  13.002  1.00  0.00    -0.255 N 
HETATM    3  C   UNL     1     -42.949 -53.100  13.323  1.00  0.00     0.334 C 
HETATM    4  N   UNL     1     -43.244 -53.130  14.681  1.00  0.00    -0.279 N 
HETATM    5  O   UNL     1     -43.827 -53.035  12.462  1.00  0.00    -0.246 OA
HETATM    6  C   UNL     1     -42.297 -53.463  15.622  1.00  0.00     0.146 C 
HETATM    7  C   UNL     1     -41.025 -53.663  15.280  1.00  0.00     0.200 C 
HETATM    8  C   UNL     1     -40.580 -53.388  13.893  1.00  0.00     0.292 C 
HETATM    9  F   UNL     1     -40.079 -53.984  16.183  1.00  0.00    -0.199 F 
HETATM   10  O   UNL     1     -39.390 -53.407  13.591  1.00  0.00    -0.264 OA
BRANCH   4  11
HETATM   11  C   UNL     1     -44.576 -52.687  15.055  1.00  0.00     0.232 C 
HETATM   12  O   UNL     1     -45.572 -53.639  14.643  1.00  0.00    -0.366 OA
HETATM   13  C   UNL     1     -46.799 -52.920  14.442  1.00  0.00     0.170 C 
HETATM   14  C   UNL     1     -46.508 -51.447  14.670  1.00  0.00     0.031 C 
HETATM   15  C   UNL     1     -45.013 -51.361  14.469  1.00  0.00     0.056 C 
ENDBRANCH   4  11
ENDBRANCH   1   2
BRANCH   1  16
HETATM   16  C   UNL     1     -40.859 -50.942  11.773  1.00  0.00     0.236 C 
HETATM   17  N   UNL     1     -39.520 -50.651  11.741  1.00  0.00    -0.355 N 
HETATM   18  H   UNL     1     -38.852 -51.364  11.473  1.00  0.00     0.162 HD
HETATM   19  O   UNL     1     -41.704 -50.072  11.988  1.00  0.00    -0.272 OA
BRANCH  17  20
HETATM   20  C   UNL     1     -39.077 -49.267  11.813  1.00  0.00     0.161 C 
BRANCH  20  21
HETATM   21  C   UNL     1     -38.429 -48.899  13.126  1.00  0.00    -0.038 A 
HETATM   22  C   UNL     1     -37.646 -49.820  13.842  1.00  0.00     0.048 A 
HETATM   23  C   UNL     1     -37.039 -49.393  15.003  1.00  0.00     0.105 A 
HETATM   24  C   UNL     1     -37.230 -48.127  15.503  1.00  0.00     0.105 A 
HETATM   25  O   UNL     1     -36.187 -50.129  15.766  1.00  0.00    -0.323 OA
HETATM   26  O   UNL     1     -36.511 -47.906  16.637  1.00  0.00    -0.323 OA
HETATM   27  C   UNL     1     -38.060 -47.223  14.882  1.00  0.00     0.040 A 
HETATM   28  C   UNL     1     -35.756 -49.134  16.715  1.00  0.00     0.352 C 
HETATM   29  C   UNL     1     -38.662 -47.615  13.680  1.00  0.00     0.012 A 
ENDBRANCH  20  21
ENDBRANCH  17  20
ENDBRANCH   1  16
TORSDOF 5
ENDMDL
MODEL 8
REMARK VINA RESULT:      -6.2      3.093      7.486
REMARK  5 active torsions:
REMARK  status: ('A' for Active; 'I' for Inactive)
REMARK    1  A    between atoms: N_1  and  C_8 
REMARK    2  A    between atoms: N_2  and  C_7 
REMARK    3  A    between atoms: C_8  and  C_10 
REMARK       I    between atoms: C_10  and  N_18 
REMARK    4  A    between atoms: N_18  and  C_24 
REMARK    5  A    between atoms: C_23  and  C_24 
ROOT
HETATM    1  C   UNL     1     -41.767 -51.878  14.101  1.00  0.00     0.240 C 
ENDROOT
BRANCH   1   2
HETATM    2  N   UNL     1     -43.131 -52.396  14.008  1.00  0.00    -0.255 N 
HETATM    3  C   UNL     1     -44.131 -51.506  14.381  1.00  0.00     0.334 C 
HETATM    4  N   UNL     1     -45.283 -52.081  14.902  1.00  0.00    -0.279 N 
HETATM    5  O   UNL     1     -43.981 -50.286  14.310  1.00  0.00    -0.246 OA
HETATM    6  C   UNL     1     -45.563 -53.418  14.744  1.00  0.00     0.146 C 
HETATM    7  C   UNL     1     -44.684 -54.245  14.179  1.00  0.00     0.200 C 
HETATM    8  C   UNL     1     -43.325 -53.758  13.838  1.00  0.00     0.292 C 
HETATM    9  F   UNL     1     -44.931 -55.559  14.018  1.00  0.00    -0.199 F 
HETATM   10  O   UNL     1     -42.447 -54.533  13.470  1.00  0.00    -0.264 OA
BRANCH   4  11
HETATM   11  C   UNL     1     -46.120 -51.213  15.713  1.00  0.00     0.232 C 
HETATM   12  O   UNL     1     -45.590 -51.077  17.042  1.00  0.00    -0.366 OA
HETATM   13  C   UNL     1     -46.691 -50.795  17.920  1.00  0.00     0.170 C 
HETATM   14  C   UNL     1     -47.960 -50.839  17.089  1.00  0.00     0.031 C 
HETATM   15  C   UNL     1     -47.554 -51.666  15.891  1.00  0.00     0.056 C 
ENDBRANCH   4  11
ENDBRANCH   1   2
BRANCH   1  16
HETATM   16  C   UNL     1     -41.101 -51.310  12.859  1.00  0.00     0.236 C 
HETATM   17  N   UNL     1     -40.273 -50.230  13.018  1.00  0.00    -0.355 N 
HETATM   18  H   UNL     1     -39.939 -49.979  13.942  1.00  0.00     0.162 HD
HETATM   19  O   UNL     1     -41.438 -51.707  11.742  1.00  0.00    -0.272 OA
BRANCH  17  20
HETATM   20  C   UNL     1     -39.649 -49.617  11.856  1.00  0.00     0.161 C 
BRANCH  20  21
HETATM   21  C   UNL     1     -40.235 -48.277  11.482  1.00  0.00    -0.038 A 
HETATM   22  C   UNL     1     -39.701 -47.077  11.980  1.00  0.00     0.048 A 
HETATM   23  C   UNL     1     -40.253 -45.890  11.548  1.00  0.00     0.105 A 
HETATM   24  C   UNL     1     -41.337 -45.855  10.703  1.00  0.00     0.105 A 
HETATM   25  O   UNL     1     -39.804 -44.647  11.867  1.00  0.00    -0.323 OA
HETATM   26  O   UNL     1     -41.696 -44.584  10.376  1.00  0.00    -0.323 OA
HETATM   27  C   UNL     1     -41.946 -47.007  10.262  1.00  0.00     0.040 A 
HETATM   28  C   UNL     1     -40.636 -43.838  11.012  1.00  0.00     0.352 C 
HETATM   29  C   UNL     1     -41.386 -48.229  10.655  1.00  0.00     0.012 A 
ENDBRANCH  20  21
ENDBRANCH  17  20
ENDBRANCH   1  16
TORSDOF 5
ENDMDL
MODEL 9
REMARK VINA RESULT:      -6.2      2.471      3.593
REMARK  5 active torsions:
REMARK  status: ('A' for Active; 'I' for Inactive)
REMARK    1  A    between atoms: N_1  and  C_8 
REMARK    2  A    between atoms: N_2  and  C_7 
REMARK    3  A    between atoms: C_8  and  C_10 
REMARK       I    between atoms: C_10  and  N_18 
REMARK    4  A    between atoms: N_18  and  C_24 
REMARK    5  A    between atoms: C_23  and  C_24 
ROOT
HETATM    1  C   UNL     1     -38.694 -49.188  12.905  1.00  0.00     0.240 C 
ENDROOT
BRANCH   1   2
HETATM    2  N   UNL     1     -39.653 -48.297  12.257  1.00  0.00    -0.255 N 
HETATM    3  C   UNL     1     -39.818 -47.058  12.865  1.00  0.00     0.334 C 
HETATM    4  N   UNL     1     -41.069 -46.474  12.710  1.00  0.00    -0.279 N 
HETATM    5  O   UNL     1     -38.932 -46.540  13.546  1.00  0.00    -0.246 OA
HETATM    6  C   UNL     1     -41.958 -46.906  11.754  1.00  0.00     0.146 C 
HETATM    7  C   UNL     1     -41.701 -47.978  11.006  1.00  0.00     0.200 C 
HETATM    8  C   UNL     1     -40.508 -48.811  11.294  1.00  0.00     0.292 C 
HETATM    9  F   UNL     1     -42.558 -48.424  10.068  1.00  0.00    -0.199 F 
HETATM   10  O   UNL     1     -40.335 -49.888  10.731  1.00  0.00    -0.264 OA
BRANCH   4  11
HETATM   11  C   UNL     1     -41.424 -45.456  13.684  1.00  0.00     0.232 C 
HETATM   12  O   UNL     1     -42.306 -45.986  14.688  1.00  0.00    -0.366 OA
HETATM   13  C   UNL     1     -43.095 -44.896  15.190  1.00  0.00     0.170 C 
HETATM   14  C   UNL     1     -42.723 -43.659  14.392  1.00  0.00     0.031 C 
HETATM   15  C   UNL     1     -42.127 -44.235  13.129  1.00  0.00     0.056 C 
ENDBRANCH   4  11
ENDBRANCH   1   2
BRANCH   1  16
HETATM   16  C   UNL     1     -39.196 -50.236  13.884  1.00  0.00     0.236 C 
HETATM   17  N   UNL     1     -39.737 -51.383  13.366  1.00  0.00    -0.355 N 
HETATM   18  H   UNL     1     -39.590 -51.619  12.392  1.00  0.00     0.162 HD
HETATM   19  O   UNL     1     -39.264 -49.974  15.086  1.00  0.00    -0.272 OA
BRANCH  17  20
HETATM   20  C   UNL     1     -40.278 -52.397  14.259  1.00  0.00     0.161 C 
BRANCH  20  21
HETATM   21  C   UNL     1     -41.608 -52.958  13.815  1.00  0.00    -0.038 A 
HETATM   22  C   UNL     1     -42.235 -54.001  14.515  1.00  0.00     0.048 A 
HETATM   23  C   UNL     1     -43.475 -54.421  14.083  1.00  0.00     0.105 A 
HETATM   24  C   UNL     1     -44.074 -53.894  12.964  1.00  0.00     0.105 A 
HETATM   25  O   UNL     1     -44.249 -55.357  14.694  1.00  0.00    -0.323 OA
HETATM   26  O   UNL     1     -45.307 -54.425  12.739  1.00  0.00    -0.323 OA
HETATM   27  C   UNL     1     -43.455 -52.933  12.198  1.00  0.00     0.040 A 
HETATM   28  C   UNL     1     -45.458 -55.249  13.915  1.00  0.00     0.352 C 
HETATM   29  C   UNL     1     -42.211 -52.461  12.631  1.00  0.00     0.012 A 
ENDBRANCH  20  21
ENDBRANCH  17  20
ENDBRANCH   1  16
TORSDOF 5
ENDMDL
