MODEL 1
REMARK VINA RESULT:      -6.0      0.000      0.000
REMARK  4 active torsions:
REMARK  status: ('A' for Active; 'I' for Inactive)
REMARK    1  A    between atoms: C_2  and  C_3 
REMARK    2  A    between atoms: C_2  and  N_14 
REMARK       I    between atoms: C_3  and  N_5 
REMARK    3  A    between atoms: N_5  and  C_6 
REMARK    4  A    between atoms: C_6  and  C_7 
ROOT
HETATM    1  C   UNL     1     -42.875 -48.530  12.086  1.00  0.00     0.242 C 
HETATM    2  O   UNL     1     -43.081 -47.752  13.017  1.00  0.00    -0.271 OA
HETATM    3  N   UNL     1     -43.112 -49.889  12.212  1.00  0.00    -0.359 N 
HETATM    4  H   UNL     1     -43.078 -50.465  11.373  1.00  0.00     0.162 HD
ENDROOT
BRANCH   1   5
HETATM    5  C   UNL     1     -42.278 -48.078  10.759  1.00  0.00     0.196 C 
HETATM    6  C   UNL     1     -41.230 -46.983  10.972  1.00  0.00     0.044 C 
BRANCH   5   7
HETATM    7  N   UNL     1     -43.320 -47.687   9.825  1.00  0.00    -0.273 N 
HETATM    8  C   UNL     1     -43.329 -47.754   8.466  1.00  0.00     0.202 A 
HETATM    9  N   UNL     1     -44.506 -47.386   8.015  1.00  0.00    -0.346 N 
HETATM   10  C   UNL     1     -45.194 -47.082   9.153  1.00  0.00     0.198 A 
ATOM     11  HN  UNL     1     -44.828 -47.339   7.048  1.00  0.00     0.167 HD
HETATM   12  N   UNL     1     -44.498 -47.209  10.288  1.00  0.00    -0.292 N 
ATOM     13  HN  UNL     1     -44.780 -47.000  11.246  1.00  0.00     0.188 HD
ENDBRANCH   5   7
ENDBRANCH   1   5
BRANCH   3  14
HETATM   14  C   UNL     1     -43.658 -50.406  13.448  1.00  0.00     0.128 C 
BRANCH  14  15
HETATM   15  C   UNL     1     -44.512 -51.659  13.275  1.00  0.00     0.018 C 
HETATM   16  C   UNL     1     -45.975 -51.444  13.712  1.00  0.00     0.022 C 
HETATM   17  C   UNL     1     -46.590 -52.768  14.171  1.00  0.00     0.141 C 
HETATM   18  S   UNL     1     -45.281 -53.971  14.222  1.00  0.00     0.144 S 
HETATM   19  O   UNL     1     -45.261 -54.605  15.522  1.00  0.00    -0.228 OA
HETATM   20  O   UNL     1     -45.307 -54.731  12.990  1.00  0.00    -0.228 OA
HETATM   21  C   UNL     1     -43.959 -52.799  14.129  1.00  0.00     0.146 C 
ENDBRANCH  14  15
ENDBRANCH   3  14
TORSDOF 4
ENDMDL
MODEL 2
REMARK VINA RESULT:      -6.0      3.899      4.703
REMARK  4 active torsions:
REMARK  status: ('A' for Active; 'I' for Inactive)
REMARK    1  A    between atoms: C_2  and  C_3 
REMARK    2  A    between atoms: C_2  and  N_14 
REMARK       I    between atoms: C_3  and  N_5 
REMARK    3  A    between atoms: N_5  and  C_6 
REMARK    4  A    between atoms: C_6  and  C_7 
ROOT
HETATM    1  C   UNL     1     -42.391 -48.431  11.250  1.00  0.00     0.242 C 
HETATM    2  O   UNL     1     -43.000 -48.218  12.298  1.00  0.00    -0.271 OA
HETATM    3  N   UNL     1     -41.625 -49.571  11.076  1.00  0.00    -0.359 N 
HETATM    4  H   UNL     1     -41.272 -49.778  10.143  1.00  0.00     0.162 HD
ENDROOT
BRANCH   1   5
HETATM    5  C   UNL     1     -42.369 -47.431  10.099  1.00  0.00     0.196 C 
HETATM    6  C   UNL     1     -41.516 -46.210  10.448  1.00  0.00     0.044 C 
BRANCH   5   7
HETATM    7  N   UNL     1     -43.718 -47.080   9.689  1.00  0.00    -0.273 N 
HETATM    8  C   UNL     1     -44.160 -45.964   9.047  1.00  0.00     0.202 A 
HETATM    9  N   UNL     1     -45.440 -46.088   8.782  1.00  0.00    -0.346 N 
HETATM   10  C   UNL     1     -45.750 -47.309   9.305  1.00  0.00     0.198 A 
ATOM     11  HN  UNL     1     -46.054 -45.430   8.302  1.00  0.00     0.167 HD
HETATM   12  N   UNL     1     -44.738 -47.940   9.911  1.00  0.00    -0.292 N 
ATOM     13  HN  UNL     1     -44.736 -48.832  10.406  1.00  0.00     0.188 HD
ENDBRANCH   5   7
ENDBRANCH   1   5
BRANCH   3  14
HETATM   14  C   UNL     1     -41.573 -50.563  12.129  1.00  0.00     0.128 C 
BRANCH  14  15
HETATM   15  C   UNL     1     -40.199 -51.199  12.317  1.00  0.00     0.018 C 
HETATM   16  C   UNL     1     -40.184 -52.259  13.436  1.00  0.00     0.022 C 
HETATM   17  C   UNL     1     -38.786 -52.365  14.048  1.00  0.00     0.141 C 
HETATM   18  S   UNL     1     -37.806 -51.050  13.359  1.00  0.00     0.144 S 
HETATM   19  O   UNL     1     -37.199 -50.290  14.431  1.00  0.00    -0.228 OA
HETATM   20  O   UNL     1     -37.036 -51.581  12.255  1.00  0.00    -0.228 OA
HETATM   21  C   UNL     1     -39.171 -50.136  12.703  1.00  0.00     0.146 C 
ENDBRANCH  14  15
ENDBRANCH   3  14
TORSDOF 4
ENDMDL
MODEL 3
REMARK VINA RESULT:      -5.8      1.612      2.326
REMARK  4 active torsions:
REMARK  status: ('A' for Active; 'I' for Inactive)
REMARK    1  A    between atoms: C_2  and  C_3 
REMARK    2  A    between atoms: C_2  and  N_14 
REMARK       I    between atoms: C_3  and  N_5 
REMARK    3  A    between atoms: N_5  and  C_6 
REMARK    4  A    between atoms: C_6  and  C_7 
ROOT
HETATM    1  C   UNL     1     -41.679 -49.155  11.294  1.00  0.00     0.242 C 
HETATM    2  O   UNL     1     -40.589 -49.474  10.818  1.00  0.00    -0.271 OA
HETATM    3  N   UNL     1     -42.455 -50.061  11.997  1.00  0.00    -0.359 N 
HETATM    4  H   UNL     1     -43.267 -49.711  12.502  1.00  0.00     0.162 HD
ENDROOT
BRANCH   1   5
HETATM    5  C   UNL     1     -42.290 -47.774  11.084  1.00  0.00     0.196 C 
HETATM    6  C   UNL     1     -43.067 -47.324  12.323  1.00  0.00     0.044 C 
BRANCH   5   7
HETATM    7  N   UNL     1     -43.090 -47.739   9.872  1.00  0.00    -0.273 N 
HETATM    8  C   UNL     1     -44.384 -47.351   9.704  1.00  0.00     0.202 A 
HETATM    9  N   UNL     1     -44.692 -47.385   8.428  1.00  0.00    -0.346 N 
HETATM   10  C   UNL     1     -43.541 -47.823   7.842  1.00  0.00     0.198 A 
ATOM     11  HN  UNL     1     -45.577 -47.142   7.983  1.00  0.00     0.167 HD
HETATM   12  N   UNL     1     -42.541 -48.096   8.688  1.00  0.00    -0.292 N 
ATOM     13  HN  UNL     1     -41.613 -48.472   8.492  1.00  0.00     0.188 HD
ENDBRANCH   5   7
ENDBRANCH   1   5
BRANCH   3  14
HETATM   14  C   UNL     1     -41.958 -51.401  12.223  1.00  0.00     0.128 C 
BRANCH  14  15
HETATM   15  C   UNL     1     -42.727 -52.178  13.288  1.00  0.00     0.018 C 
HETATM   16  C   UNL     1     -41.978 -53.442  13.756  1.00  0.00     0.022 C 
HETATM   17  C   UNL     1     -42.972 -54.497  14.244  1.00  0.00     0.141 C 
HETATM   18  S   UNL     1     -44.604 -53.907  13.854  1.00  0.00     0.144 S 
HETATM   19  O   UNL     1     -45.319 -54.924  13.114  1.00  0.00    -0.228 OA
HETATM   20  O   UNL     1     -45.157 -53.274  15.032  1.00  0.00    -0.228 OA
HETATM   21  C   UNL     1     -44.073 -52.643  12.735  1.00  0.00     0.146 C 
ENDBRANCH  14  15
ENDBRANCH   3  14
TORSDOF 4
ENDMDL
MODEL 4
REMARK VINA RESULT:      -5.7      2.454      3.242
REMARK  4 active torsions:
REMARK  status: ('A' for Active; 'I' for Inactive)
REMARK    1  A    between atoms: C_2  and  C_3 
REMARK    2  A    between atoms: C_2  and  N_14 
REMARK       I    between atoms: C_3  and  N_5 
REMARK    3  A    between atoms: N_5  and  C_6 
REMARK    4  A    between atoms: C_6  and  C_7 
ROOT
HETATM    1  C   UNL     1     -40.217 -50.904  12.122  1.00  0.00     0.242 C 
HETATM    2  O   UNL     1     -39.718 -51.017  13.241  1.00  0.00    -0.271 OA
HETATM    3  N   UNL     1     -40.878 -51.958  11.513  1.00  0.00    -0.359 N 
HETATM    4  H   UNL     1     -41.406 -51.770  10.663  1.00  0.00     0.162 HD
ENDROOT
BRANCH   1   5
HETATM    5  C   UNL     1     -40.083 -49.632  11.292  1.00  0.00     0.196 C 
HETATM    6  C   UNL     1     -39.071 -48.671  11.919  1.00  0.00     0.044 C 
BRANCH   5   7
HETATM    7  N   UNL     1     -41.381 -49.019  11.068  1.00  0.00    -0.273 N 
HETATM    8  C   UNL     1     -42.449 -48.931  11.907  1.00  0.00     0.202 A 
HETATM    9  N   UNL     1     -43.392 -48.212  11.344  1.00  0.00    -0.346 N 
HETATM   10  C   UNL     1     -42.856 -47.888  10.133  1.00  0.00     0.198 A 
ATOM     11  HN  UNL     1     -44.305 -47.957  11.722  1.00  0.00     0.167 HD
HETATM   12  N   UNL     1     -41.641 -48.394   9.896  1.00  0.00    -0.292 N 
ATOM     13  HN  UNL     1     -41.065 -48.327   9.057  1.00  0.00     0.188 HD
ENDBRANCH   5   7
ENDBRANCH   1   5
BRANCH   3  14
HETATM   14  C   UNL     1     -41.031 -53.209  12.224  1.00  0.00     0.128 C 
BRANCH  14  15
HETATM   15  C   UNL     1     -42.193 -53.224  13.214  1.00  0.00     0.018 C 
HETATM   16  C   UNL     1     -42.032 -54.307  14.299  1.00  0.00     0.022 C 
HETATM   17  C   UNL     1     -43.404 -54.754  14.808  1.00  0.00     0.141 C 
HETATM   18  S   UNL     1     -44.629 -53.993  13.767  1.00  0.00     0.144 S 
HETATM   19  O   UNL     1     -45.525 -55.009  13.257  1.00  0.00    -0.228 OA
HETATM   20  O   UNL     1     -45.109 -52.795  14.422  1.00  0.00    -0.228 OA
HETATM   21  C   UNL     1     -43.504 -53.519  12.487  1.00  0.00     0.146 C 
ENDBRANCH  14  15
ENDBRANCH   3  14
TORSDOF 4
ENDMDL
MODEL 5
REMARK VINA RESULT:      -5.6      1.171      1.435
REMARK  4 active torsions:
REMARK  status: ('A' for Active; 'I' for Inactive)
REMARK    1  A    between atoms: C_2  and  C_3 
REMARK    2  A    between atoms: C_2  and  N_14 
REMARK       I    between atoms: C_3  and  N_5 
REMARK    3  A    between atoms: N_5  and  C_6 
REMARK    4  A    between atoms: C_6  and  C_7 
ROOT
HETATM    1  C   UNL     1     -42.061 -49.330  12.543  1.00  0.00     0.242 C 
HETATM    2  O   UNL     1     -41.463 -49.257  13.616  1.00  0.00    -0.271 OA
HETATM    3  N   UNL     1     -43.312 -49.915  12.448  1.00  0.00    -0.359 N 
HETATM    4  H   UNL     1     -43.830 -49.811  11.578  1.00  0.00     0.162 HD
ENDROOT
BRANCH   1   5
HETATM    5  C   UNL     1     -41.446 -48.855  11.230  1.00  0.00     0.196 C 
HETATM    6  C   UNL     1     -40.038 -48.301  11.452  1.00  0.00     0.044 C 
BRANCH   5   7
HETATM    7  N   UNL     1     -42.324 -47.915  10.556  1.00  0.00    -0.273 N 
HETATM    8  C   UNL     1     -42.910 -46.785  11.038  1.00  0.00     0.202 A 
HETATM    9  N   UNL     1     -43.551 -46.174  10.069  1.00  0.00    -0.346 N 
HETATM   10  C   UNL     1     -43.342 -46.988   8.995  1.00  0.00     0.198 A 
ATOM     11  HN  UNL     1     -44.078 -45.301  10.109  1.00  0.00     0.167 HD
HETATM   12  N   UNL     1     -42.631 -48.092   9.250  1.00  0.00    -0.292 N 
ATOM     13  HN  UNL     1     -42.385 -48.861   8.627  1.00  0.00     0.188 HD
ENDBRANCH   5   7
ENDBRANCH   1   5
BRANCH   3  14
HETATM   14  C   UNL     1     -43.959 -50.412  13.644  1.00  0.00     0.128 C 
BRANCH  14  15
HETATM   15  C   UNL     1     -44.741 -51.706  13.437  1.00  0.00     0.018 C 
HETATM   16  C   UNL     1     -46.230 -51.565  13.812  1.00  0.00     0.022 C 
HETATM   17  C   UNL     1     -46.797 -52.918  14.246  1.00  0.00     0.141 C 
HETATM   18  S   UNL     1     -45.433 -54.054  14.353  1.00  0.00     0.144 S 
HETATM   19  O   UNL     1     -45.436 -54.687  15.655  1.00  0.00    -0.228 OA
HETATM   20  O   UNL     1     -45.369 -54.813  13.123  1.00  0.00    -0.228 OA
HETATM   21  C   UNL     1     -44.168 -52.818  14.315  1.00  0.00     0.146 C 
ENDBRANCH  14  15
ENDBRANCH   3  14
TORSDOF 4
ENDMDL
MODEL 6
REMARK VINA RESULT:      -5.6      4.344      5.121
REMARK  4 active torsions:
REMARK  status: ('A' for Active; 'I' for Inactive)
REMARK    1  A    between atoms: C_2  and  C_3 
REMARK    2  A    between atoms: C_2  and  N_14 
REMARK       I    between atoms: C_3  and  N_5 
REMARK    3  A    between atoms: N_5  and  C_6 
REMARK    4  A    between atoms: C_6  and  C_7 
ROOT
HETATM    1  C   UNL     1     -39.795 -52.519  14.101  1.00  0.00     0.242 C 
HETATM    2  O   UNL     1     -39.021 -53.352  13.632  1.00  0.00    -0.271 OA
HETATM    3  N   UNL     1     -41.013 -52.887  14.648  1.00  0.00    -0.359 N 
HETATM    4  H   UNL     1     -41.543 -52.186  15.161  1.00  0.00     0.162 HD
ENDROOT
BRANCH   1   5
HETATM    5  C   UNL     1     -39.514 -51.021  14.048  1.00  0.00     0.196 C 
HETATM    6  C   UNL     1     -40.783 -50.214  14.329  1.00  0.00     0.044 C 
BRANCH   5   7
HETATM    7  N   UNL     1     -38.877 -50.655  12.795  1.00  0.00    -0.273 N 
HETATM    8  C   UNL     1     -39.411 -50.042  11.703  1.00  0.00     0.202 A 
HETATM    9  N   UNL     1     -38.466 -49.812  10.822  1.00  0.00    -0.346 N 
HETATM   10  C   UNL     1     -37.352 -50.323  11.419  1.00  0.00     0.198 A 
ATOM     11  HN  UNL     1     -38.546 -49.359   9.911  1.00  0.00     0.167 HD
HETATM   12  N   UNL     1     -37.557 -50.891  12.612  1.00  0.00    -0.292 N 
ATOM     13  HN  UNL     1     -36.896 -51.372  13.222  1.00  0.00     0.188 HD
ENDBRANCH   5   7
ENDBRANCH   1   5
BRANCH   3  14
HETATM   14  C   UNL     1     -41.368 -54.288  14.717  1.00  0.00     0.128 C 
BRANCH  14  15
HETATM   15  C   UNL     1     -42.734 -54.614  14.119  1.00  0.00     0.018 C 
HETATM   16  C   UNL     1     -43.113 -53.672  12.959  1.00  0.00     0.022 C 
HETATM   17  C   UNL     1     -44.634 -53.551  12.849  1.00  0.00     0.141 C 
HETATM   18  S   UNL     1     -45.333 -54.376  14.261  1.00  0.00     0.144 S 
HETATM   19  O   UNL     1     -46.247 -53.481  14.938  1.00  0.00    -0.228 OA
HETATM   20  O   UNL     1     -45.712 -55.717  13.869  1.00  0.00    -0.228 OA
HETATM   21  C   UNL     1     -43.825 -54.466  15.180  1.00  0.00     0.146 C 
ENDBRANCH  14  15
ENDBRANCH   3  14
TORSDOF 4
ENDMDL
MODEL 7
REMARK VINA RESULT:      -5.1      3.263      4.082
REMARK  4 active torsions:
REMARK  status: ('A' for Active; 'I' for Inactive)
REMARK    1  A    between atoms: C_2  and  C_3 
REMARK    2  A    between atoms: C_2  and  N_14 
REMARK       I    between atoms: C_3  and  N_5 
REMARK    3  A    between atoms: N_5  and  C_6 
REMARK    4  A    between atoms: C_6  and  C_7 
ROOT
HETATM    1  C   UNL     1     -39.506 -50.770  12.566  1.00  0.00     0.242 C 
HETATM    2  O   UNL     1     -39.231 -50.732  13.765  1.00  0.00    -0.271 OA
HETATM    3  N   UNL     1     -40.222 -51.823  12.021  1.00  0.00    -0.359 N 
HETATM    4  H   UNL     1     -40.559 -51.733  11.064  1.00  0.00     0.162 HD
ENDROOT
BRANCH   1   5
HETATM    5  C   UNL     1     -39.021 -49.713  11.581  1.00  0.00     0.196 C 
HETATM    6  C   UNL     1     -37.527 -49.876  11.292  1.00  0.00     0.044 C 
BRANCH   5   7
HETATM    7  N   UNL     1     -39.365 -48.378  12.039  1.00  0.00    -0.273 N 
HETATM    8  C   UNL     1     -40.201 -47.463  11.476  1.00  0.00     0.202 A 
HETATM    9  N   UNL     1     -40.303 -46.417  12.264  1.00  0.00    -0.346 N 
HETATM   10  C   UNL     1     -39.485 -46.734  13.309  1.00  0.00     0.198 A 
ATOM     11  HN  UNL     1     -40.859 -45.573  12.128  1.00  0.00     0.167 HD
HETATM   12  N   UNL     1     -38.853 -47.908  13.200  1.00  0.00    -0.292 N 
ATOM     13  HN  UNL     1     -38.168 -48.334  13.824  1.00  0.00     0.188 HD
ENDBRANCH   5   7
ENDBRANCH   1   5
BRANCH   3  14
HETATM   14  C   UNL     1     -40.702 -52.881  12.884  1.00  0.00     0.128 C 
BRANCH  14  15
HETATM   15  C   UNL     1     -42.214 -53.083  12.838  1.00  0.00     0.018 C 
HETATM   16  C   UNL     1     -42.988 -51.919  13.488  1.00  0.00     0.022 C 
HETATM   17  C   UNL     1     -44.330 -52.413  14.032  1.00  0.00     0.141 C 
HETATM   18  S   UNL     1     -44.340 -54.186  13.885  1.00  0.00     0.144 S 
HETATM   19  O   UNL     1     -44.666 -54.772  15.168  1.00  0.00    -0.228 OA
HETATM   20  O   UNL     1     -45.041 -54.543  12.671  1.00  0.00    -0.228 OA
HETATM   21  C   UNL     1     -42.602 -54.350  13.599  1.00  0.00     0.146 C 
ENDBRANCH  14  15
ENDBRANCH   3  14
TORSDOF 4
ENDMDL
MODEL 8
REMARK VINA RESULT:      -5.1      4.639      5.726
REMARK  4 active torsions:
REMARK  status: ('A' for Active; 'I' for Inactive)
REMARK    1  A    between atoms: C_2  and  C_3 
REMARK    2  A    between atoms: C_2  and  N_14 
REMARK       I    between atoms: C_3  and  N_5 
REMARK    3  A    between atoms: N_5  and  C_6 
REMARK    4  A    between atoms: C_6  and  C_7 
ROOT
HETATM    1  C   UNL     1     -41.541 -47.743  10.700  1.00  0.00     0.242 C 
HETATM    2  O   UNL     1     -42.113 -48.775  11.049  1.00  0.00    -0.271 OA
HETATM    3  N   UNL     1     -40.228 -47.486  11.056  1.00  0.00    -0.359 N 
HETATM    4  H   UNL     1     -39.752 -46.702  10.615  1.00  0.00     0.162 HD
ENDROOT
BRANCH   1   5
HETATM    5  C   UNL     1     -42.247 -46.641   9.918  1.00  0.00     0.196 C 
HETATM    6  C   UNL     1     -42.411 -45.382  10.771  1.00  0.00     0.044 C 
BRANCH   5   7
HETATM    7  N   UNL     1     -43.504 -47.118   9.367  1.00  0.00    -0.273 N 
HETATM    8  C   UNL     1     -43.761 -47.649   8.140  1.00  0.00     0.202 A 
HETATM    9  N   UNL     1     -45.014 -48.038   8.083  1.00  0.00    -0.346 N 
HETATM   10  C   UNL     1     -45.500 -47.705   9.314  1.00  0.00     0.198 A 
ATOM     11  HN  UNL     1     -45.505 -48.481   7.307  1.00  0.00     0.167 HD
HETATM   12  N   UNL     1     -44.625 -47.099  10.124  1.00  0.00    -0.292 N 
ATOM     13  HN  UNL     1     -44.766 -46.723  11.062  1.00  0.00     0.188 HD
ENDBRANCH   5   7
ENDBRANCH   1   5
BRANCH   3  14
HETATM   14  C   UNL     1     -39.490 -48.471  11.818  1.00  0.00     0.128 C 
BRANCH  14  15
HETATM   15  C   UNL     1     -39.312 -48.113  13.291  1.00  0.00     0.018 C 
HETATM   16  C   UNL     1     -40.475 -48.618  14.168  1.00  0.00     0.022 C 
HETATM   17  C   UNL     1     -40.637 -47.724  15.399  1.00  0.00     0.141 C 
HETATM   18  S   UNL     1     -39.552 -46.330  15.187  1.00  0.00     0.144 S 
HETATM   19  O   UNL     1     -40.305 -45.105  15.355  1.00  0.00    -0.228 OA
HETATM   20  O   UNL     1     -38.325 -46.589  15.908  1.00  0.00    -0.228 OA
HETATM   21  C   UNL     1     -39.256 -46.596  13.463  1.00  0.00     0.146 C 
ENDBRANCH  14  15
ENDBRANCH   3  14
TORSDOF 4
ENDMDL
MODEL 9
REMARK VINA RESULT:      -5.0      3.664      4.634
REMARK  4 active torsions:
REMARK  status: ('A' for Active; 'I' for Inactive)
REMARK    1  A    between atoms: C_2  and  C_3 
REMARK    2  A    between atoms: C_2  and  N_14 
REMARK       I    between atoms: C_3  and  N_5 
REMARK    3  A    between atoms: N_5  and  C_6 
REMARK    4  A    between atoms: C_6  and  C_7 
ROOT
HETATM    1  C   UNL     1     -41.753 -51.598  13.382  1.00  0.00     0.242 C 
HETATM    2  O   UNL     1     -41.692 -51.033  14.474  1.00  0.00    -0.271 OA
HETATM    3  N   UNL     1     -42.951 -51.725  12.698  1.00  0.00    -0.359 N 
HETATM    4  H   UNL     1     -42.924 -52.057  11.736  1.00  0.00     0.162 HD
ENDROOT
BRANCH   1   5
HETATM    5  C   UNL     1     -40.543 -52.264  12.737  1.00  0.00     0.196 C 
HETATM    6  C   UNL     1     -40.098 -53.489  13.537  1.00  0.00     0.044 C 
BRANCH   5   7
HETATM    7  N   UNL     1     -39.471 -51.305  12.530  1.00  0.00    -0.273 N 
HETATM    8  C   UNL     1     -38.306 -51.154  13.217  1.00  0.00     0.202 A 
HETATM    9  N   UNL     1     -37.574 -50.227  12.643  1.00  0.00    -0.346 N 
HETATM   10  C   UNL     1     -38.351 -49.818  11.600  1.00  0.00     0.198 A 
ATOM     11  HN  UNL     1     -36.648 -49.893  12.912  1.00  0.00     0.167 HD
HETATM   12  N   UNL     1     -39.544 -50.418  11.511  1.00  0.00    -0.292 N 
ATOM     13  HN  UNL     1     -40.304 -50.251  10.851  1.00  0.00     0.188 HD
ENDBRANCH   5   7
ENDBRANCH   1   5
BRANCH   3  14
HETATM   14  C   UNL     1     -44.153 -51.141  13.252  1.00  0.00     0.128 C 
BRANCH  14  15
HETATM   15  C   UNL     1     -45.206 -52.163  13.671  1.00  0.00     0.018 C 
HETATM   16  C   UNL     1     -46.399 -51.519  14.404  1.00  0.00     0.022 C 
HETATM   17  C   UNL     1     -47.038 -52.526  15.363  1.00  0.00     0.141 C 
HETATM   18  S   UNL     1     -45.989 -53.962  15.398  1.00  0.00     0.144 S 
HETATM   19  O   UNL     1     -45.657 -54.282  16.769  1.00  0.00    -0.228 OA
HETATM   20  O   UNL     1     -46.527 -54.946  14.483  1.00  0.00    -0.228 OA
HETATM   21  C   UNL     1     -44.598 -53.185  14.631  1.00  0.00     0.146 C 
ENDBRANCH  14  15
ENDBRANCH   3  14
TORSDOF 4
ENDMDL
