MODEL 1
REMARK VINA RESULT:      -6.4      0.000      0.000
REMARK  4 active torsions:
REMARK  status: ('A' for Active; 'I' for Inactive)
REMARK    1  A    between atoms: C_7  and  N_8 
REMARK       I    between atoms: N_8  and  C_9 
REMARK    2  A    between atoms: C_9  and  C_11 
REMARK    3  A    between atoms: C_11  and  N_12 
REMARK    4  A    between atoms: C_16  and  C_19 
ROOT
HETATM    1  C   UNL     1     -40.879 -49.620  11.036  1.00  0.00     0.234 C 
ENDROOT
BRANCH   1   2
HETATM    2  C   UNL     1     -41.609 -50.284  12.202  1.00  0.00     0.236 C 
HETATM    3  N   UNL     1     -42.082 -51.556  11.933  1.00  0.00    -0.355 N 
HETATM    4  H   UNL     1     -41.652 -52.048  11.149  1.00  0.00     0.162 HD
HETATM    5  O   UNL     1     -41.730 -49.730  13.291  1.00  0.00    -0.272 OA
BRANCH   3   6
HETATM    6  C   UNL     1     -42.780 -52.334  12.947  1.00  0.00     0.088 C 
HETATM    7  C   UNL     1     -41.825 -53.201  13.798  1.00  0.00     0.004 C 
HETATM    8  C   UNL     1     -40.992 -54.185  12.966  1.00  0.00     0.012 C 
HETATM    9  C   UNL     1     -42.632 -53.940  14.879  1.00  0.00     0.006 C 
HETATM   10  C   UNL     1     -43.793 -54.754  14.307  1.00  0.00     0.001 C 
HETATM   11  C   UNL     1     -44.696 -53.914  13.408  1.00  0.00     0.002 C 
HETATM   12  C   UNL     1     -43.912 -53.165  12.330  1.00  0.00     0.025 C 
ENDBRANCH   3   6
ENDBRANCH   1   2
BRANCH   1  13
HETATM   13  N   UNL     1     -41.327 -48.246  10.830  1.00  0.00    -0.315 N 
HETATM   14  C   UNL     1     -42.617 -48.009  10.395  1.00  0.00     0.095 C 
HETATM   15  C   UNL     1     -43.041 -46.764  10.153  1.00  0.00     0.018 C 
HETATM   16  C   UNL     1     -42.131 -45.660  10.308  1.00  0.00     0.023 C 
HETATM   17  C   UNL     1     -40.872 -45.843  10.752  1.00  0.00     0.115 C 
HETATM   18  C   UNL     1     -40.428 -47.215  11.114  1.00  0.00     0.263 C 
HETATM   19  O   UNL     1     -39.334 -47.434  11.627  1.00  0.00    -0.267 OA
BRANCH  17  20
HETATM   20  C   UNL     1     -39.891 -44.734  10.853  1.00  0.00     0.422 C 
HETATM   21  F   UNL     1     -39.227 -44.619  12.027  1.00  0.00    -0.166 F 
HETATM   22  F   UNL     1     -38.933 -44.855   9.890  1.00  0.00    -0.166 F 
HETATM   23  F   UNL     1     -40.486 -43.530  10.628  1.00  0.00    -0.166 F 
ENDBRANCH  17  20
ENDBRANCH   1  13
TORSDOF 4
ENDMDL
MODEL 2
REMARK VINA RESULT:      -6.3      4.560      7.360
REMARK  4 active torsions:
REMARK  status: ('A' for Active; 'I' for Inactive)
REMARK    1  A    between atoms: C_7  and  N_8 
REMARK       I    between atoms: N_8  and  C_9 
REMARK    2  A    between atoms: C_9  and  C_11 
REMARK    3  A    between atoms: C_11  and  N_12 
REMARK    4  A    between atoms: C_16  and  C_19 
ROOT
HETATM    1  C   UNL     1     -41.939 -53.520  15.351  1.00  0.00     0.234 C 
ENDROOT
BRANCH   1   2
HETATM    2  C   UNL     1     -40.912 -53.225  14.261  1.00  0.00     0.236 C 
HETATM    3  N   UNL     1     -40.626 -51.882  14.090  1.00  0.00    -0.355 N 
HETATM    4  H   UNL     1     -40.855 -51.263  14.867  1.00  0.00     0.162 HD
HETATM    5  O   UNL     1     -40.373 -54.122  13.617  1.00  0.00    -0.272 OA
BRANCH   3   6
HETATM    6  C   UNL     1     -39.651 -51.434  13.104  1.00  0.00     0.088 C 
HETATM    7  C   UNL     1     -38.207 -51.419  13.657  1.00  0.00     0.004 C 
HETATM    8  C   UNL     1     -38.040 -50.530  14.896  1.00  0.00     0.012 C 
HETATM    9  C   UNL     1     -37.238 -50.995  12.541  1.00  0.00     0.006 C 
HETATM   10  C   UNL     1     -37.620 -49.666  11.889  1.00  0.00     0.001 C 
HETATM   11  C   UNL     1     -39.068 -49.657  11.408  1.00  0.00     0.002 C 
HETATM   12  C   UNL     1     -40.049 -50.082  12.501  1.00  0.00     0.025 C 
ENDBRANCH   3   6
ENDBRANCH   1   2
BRANCH   1  13
HETATM   13  N   UNL     1     -43.280 -53.693  14.801  1.00  0.00    -0.315 N 
HETATM   14  C   UNL     1     -43.771 -54.968  14.593  1.00  0.00     0.095 C 
HETATM   15  C   UNL     1     -44.976 -55.157  14.047  1.00  0.00     0.018 C 
HETATM   16  C   UNL     1     -45.757 -54.020  13.634  1.00  0.00     0.023 C 
HETATM   17  C   UNL     1     -45.327 -52.760  13.839  1.00  0.00     0.115 C 
HETATM   18  C   UNL     1     -44.029 -52.546  14.532  1.00  0.00     0.263 C 
HETATM   19  O   UNL     1     -43.634 -51.426  14.847  1.00  0.00    -0.267 OA
BRANCH  17  20
HETATM   20  C   UNL     1     -46.076 -51.572  13.359  1.00  0.00     0.422 C 
HETATM   21  F   UNL     1     -45.343 -50.579  12.804  1.00  0.00    -0.166 F 
HETATM   22  F   UNL     1     -46.992 -51.935  12.415  1.00  0.00    -0.166 F 
HETATM   23  F   UNL     1     -46.794 -51.005  14.367  1.00  0.00    -0.166 F 
ENDBRANCH  17  20
ENDBRANCH   1  13
TORSDOF 4
ENDMDL
MODEL 3
REMARK VINA RESULT:      -6.2      2.505      3.819
REMARK  4 active torsions:
REMARK  status: ('A' for Active; 'I' for Inactive)
REMARK    1  A    between atoms: C_7  and  N_8 
REMARK       I    between atoms: N_8  and  C_9 
REMARK    2  A    between atoms: C_9  and  C_11 
REMARK    3  A    between atoms: C_11  and  N_12 
REMARK    4  A    between atoms: C_16  and  C_19 
ROOT
HETATM    1  C   UNL     1     -41.285 -51.947  11.791  1.00  0.00     0.234 C 
ENDROOT
BRANCH   1   2
HETATM    2  C   UNL     1     -42.193 -52.209  12.991  1.00  0.00     0.236 C 
HETATM    3  N   UNL     1     -43.496 -51.771  12.831  1.00  0.00    -0.355 N 
HETATM    4  H   UNL     1     -43.813 -51.619  11.874  1.00  0.00     0.162 HD
HETATM    5  O   UNL     1     -41.789 -52.788  13.996  1.00  0.00    -0.272 OA
BRANCH   3   6
HETATM    6  C   UNL     1     -44.493 -51.965  13.875  1.00  0.00     0.088 C 
HETATM    7  C   UNL     1     -45.841 -52.486  13.325  1.00  0.00     0.004 C 
HETATM    8  C   UNL     1     -46.463 -51.564  12.269  1.00  0.00     0.012 C 
HETATM    9  C   UNL     1     -46.813 -52.722  14.492  1.00  0.00     0.006 C 
HETATM   10  C   UNL     1     -46.991 -51.489  15.381  1.00  0.00     0.001 C 
HETATM   11  C   UNL     1     -45.655 -50.933  15.865  1.00  0.00     0.002 C 
HETATM   12  C   UNL     1     -44.670 -50.697  14.720  1.00  0.00     0.025 C 
ENDBRANCH   3   6
ENDBRANCH   1   2
BRANCH   1  13
HETATM   13  N   UNL     1     -40.335 -50.870  12.056  1.00  0.00    -0.315 N 
HETATM   14  C   UNL     1     -39.083 -51.176  12.554  1.00  0.00     0.095 C 
HETATM   15  C   UNL     1     -38.208 -50.209  12.849  1.00  0.00     0.018 C 
HETATM   16  C   UNL     1     -38.589 -48.830  12.684  1.00  0.00     0.023 C 
HETATM   17  C   UNL     1     -39.791 -48.488  12.180  1.00  0.00     0.115 C 
HETATM   18  C   UNL     1     -40.728 -49.563  11.761  1.00  0.00     0.263 C 
HETATM   19  O   UNL     1     -41.790 -49.320  11.194  1.00  0.00    -0.267 OA
BRANCH  17  20
HETATM   20  C   UNL     1     -40.238 -47.078  12.067  1.00  0.00     0.422 C 
HETATM   21  F   UNL     1     -41.428 -46.773  12.635  1.00  0.00    -0.166 F 
HETATM   22  F   UNL     1     -39.325 -46.240  12.637  1.00  0.00    -0.166 F 
HETATM   23  F   UNL     1     -40.323 -46.694  10.763  1.00  0.00    -0.166 F 
ENDBRANCH  17  20
ENDBRANCH   1  13
TORSDOF 4
ENDMDL
MODEL 4
REMARK VINA RESULT:      -5.9      3.622      5.070
REMARK  4 active torsions:
REMARK  status: ('A' for Active; 'I' for Inactive)
REMARK    1  A    between atoms: C_7  and  N_8 
REMARK       I    between atoms: N_8  and  C_9 
REMARK    2  A    between atoms: C_9  and  C_11 
REMARK    3  A    between atoms: C_11  and  N_12 
REMARK    4  A    between atoms: C_16  and  C_19 
ROOT
HETATM    1  C   UNL     1     -41.562 -53.414  13.063  1.00  0.00     0.234 C 
ENDROOT
BRANCH   1   2
HETATM    2  C   UNL     1     -42.568 -53.277  14.203  1.00  0.00     0.236 C 
HETATM    3  N   UNL     1     -43.709 -52.565  13.881  1.00  0.00    -0.355 N 
HETATM    4  H   UNL     1     -43.928 -52.476  12.888  1.00  0.00     0.162 HD
HETATM    5  O   UNL     1     -42.374 -53.790  15.303  1.00  0.00    -0.272 OA
BRANCH   3   6
HETATM    6  C   UNL     1     -44.776 -52.363  14.851  1.00  0.00     0.088 C 
HETATM    7  C   UNL     1     -46.183 -52.553  14.240  1.00  0.00     0.004 C 
HETATM    8  C   UNL     1     -46.463 -51.616  13.058  1.00  0.00     0.012 C 
HETATM    9  C   UNL     1     -47.245 -52.384  15.340  1.00  0.00     0.006 C 
HETATM   10  C   UNL     1     -47.118 -51.061  16.096  1.00  0.00     0.001 C 
HETATM   11  C   UNL     1     -45.708 -50.842  16.638  1.00  0.00     0.002 C 
HETATM   12  C   UNL     1     -44.636 -51.011  15.561  1.00  0.00     0.025 C 
ENDBRANCH   3   6
ENDBRANCH   1   2
BRANCH   1  13
HETATM   13  N   UNL     1     -40.967 -52.129  12.708  1.00  0.00    -0.315 N 
HETATM   14  C   UNL     1     -41.757 -51.149  12.137  1.00  0.00     0.095 C 
HETATM   15  C   UNL     1     -41.231 -49.979  11.759  1.00  0.00     0.018 C 
HETATM   16  C   UNL     1     -39.818 -49.752  11.911  1.00  0.00     0.023 C 
HETATM   17  C   UNL     1     -39.016 -50.670  12.484  1.00  0.00     0.115 C 
HETATM   18  C   UNL     1     -39.614 -51.933  12.992  1.00  0.00     0.263 C 
HETATM   19  O   UNL     1     -38.959 -52.760  13.621  1.00  0.00    -0.267 OA
BRANCH  17  20
HETATM   20  C   UNL     1     -37.546 -50.494  12.588  1.00  0.00     0.422 C 
HETATM   21  F   UNL     1     -36.780 -51.502  12.110  1.00  0.00    -0.166 F 
HETATM   22  F   UNL     1     -37.151 -49.373  11.919  1.00  0.00    -0.166 F 
HETATM   23  F   UNL     1     -37.166 -50.301  13.882  1.00  0.00    -0.166 F 
ENDBRANCH  17  20
ENDBRANCH   1  13
TORSDOF 4
ENDMDL
MODEL 5
REMARK VINA RESULT:      -5.9      3.657      5.347
REMARK  4 active torsions:
REMARK  status: ('A' for Active; 'I' for Inactive)
REMARK    1  A    between atoms: C_7  and  N_8 
REMARK       I    between atoms: N_8  and  C_9 
REMARK    2  A    between atoms: C_9  and  C_11 
REMARK    3  A    between atoms: C_11  and  N_12 
REMARK    4  A    between atoms: C_16  and  C_19 
ROOT
HETATM    1  C   UNL     1     -41.504 -54.260  13.118  1.00  0.00     0.234 C 
ENDROOT
BRANCH   1   2
HETATM    2  C   UNL     1     -42.708 -54.129  14.047  1.00  0.00     0.236 C 
HETATM    3  N   UNL     1     -43.434 -52.963  13.884  1.00  0.00    -0.355 N 
HETATM    4  H   UNL     1     -43.317 -52.471  12.999  1.00  0.00     0.162 HD
HETATM    5  O   UNL     1     -43.008 -55.011  14.848  1.00  0.00    -0.272 OA
BRANCH   3   6
HETATM    6  C   UNL     1     -44.626 -52.696  14.679  1.00  0.00     0.088 C 
HETATM    7  C   UNL     1     -45.932 -53.071  13.942  1.00  0.00     0.004 C 
HETATM    8  C   UNL     1     -46.106 -52.341  12.604  1.00  0.00     0.012 C 
HETATM    9  C   UNL     1     -47.133 -52.816  14.868  1.00  0.00     0.006 C 
HETATM   10  C   UNL     1     -47.171 -51.390  15.420  1.00  0.00     0.001 C 
HETATM   11  C   UNL     1     -45.855 -50.996  16.084  1.00  0.00     0.002 C 
HETATM   12  C   UNL     1     -44.647 -51.247  15.182  1.00  0.00     0.025 C 
ENDBRANCH   3   6
ENDBRANCH   1   2
BRANCH   1  13
HETATM   13  N   UNL     1     -40.496 -53.239  13.390  1.00  0.00    -0.315 N 
HETATM   14  C   UNL     1     -39.574 -53.445  14.399  1.00  0.00     0.095 C 
HETATM   15  C   UNL     1     -38.669 -52.509  14.701  1.00  0.00     0.018 C 
HETATM   16  C   UNL     1     -38.680 -51.255  13.995  1.00  0.00     0.023 C 
HETATM   17  C   UNL     1     -39.545 -51.021  12.990  1.00  0.00     0.115 C 
HETATM   18  C   UNL     1     -40.489 -52.097  12.587  1.00  0.00     0.263 C 
HETATM   19  O   UNL     1     -41.226 -51.988  11.610  1.00  0.00    -0.267 OA
BRANCH  17  20
HETATM   20  C   UNL     1     -39.627 -49.713  12.293  1.00  0.00     0.422 C 
HETATM   21  F   UNL     1     -40.819 -49.075  12.344  1.00  0.00    -0.166 F 
HETATM   22  F   UNL     1     -38.712 -48.841  12.807  1.00  0.00    -0.166 F 
HETATM   23  F   UNL     1     -39.312 -49.839  10.974  1.00  0.00    -0.166 F 
ENDBRANCH  17  20
ENDBRANCH   1  13
TORSDOF 4
ENDMDL
MODEL 6
REMARK VINA RESULT:      -5.9      4.894      8.040
REMARK  4 active torsions:
REMARK  status: ('A' for Active; 'I' for Inactive)
REMARK    1  A    between atoms: C_7  and  N_8 
REMARK       I    between atoms: N_8  and  C_9 
REMARK    2  A    between atoms: C_9  and  C_11 
REMARK    3  A    between atoms: C_11  and  N_12 
REMARK    4  A    between atoms: C_16  and  C_19 
ROOT
HETATM    1  C   UNL     1     -41.287 -53.214  12.006  1.00  0.00     0.234 C 
ENDROOT
BRANCH   1   2
HETATM    2  C   UNL     1     -40.725 -51.799  12.134  1.00  0.00     0.236 C 
HETATM    3  N   UNL     1     -41.618 -50.795  11.807  1.00  0.00    -0.355 N 
HETATM    4  H   UNL     1     -42.608 -51.039  11.824  1.00  0.00     0.162 HD
HETATM    5  O   UNL     1     -39.579 -51.590  12.524  1.00  0.00    -0.272 OA
BRANCH   3   6
HETATM    6  C   UNL     1     -41.244 -49.390  11.898  1.00  0.00     0.088 C 
HETATM    7  C   UNL     1     -41.573 -48.772  13.276  1.00  0.00     0.004 C 
HETATM    8  C   UNL     1     -43.058 -48.871  13.648  1.00  0.00     0.012 C 
HETATM    9  C   UNL     1     -41.093 -47.311  13.309  1.00  0.00     0.006 C 
HETATM   10  C   UNL     1     -41.647 -46.474  12.156  1.00  0.00     0.001 C 
HETATM   11  C   UNL     1     -41.385 -47.121  10.798  1.00  0.00     0.002 C 
HETATM   12  C   UNL     1     -41.848 -48.577  10.746  1.00  0.00     0.025 C 
ENDBRANCH   3   6
ENDBRANCH   1   2
BRANCH   1  13
HETATM   13  N   UNL     1     -42.014 -53.618  13.205  1.00  0.00    -0.315 N 
HETATM   14  C   UNL     1     -41.315 -53.874  14.370  1.00  0.00     0.095 C 
HETATM   15  C   UNL     1     -41.949 -54.291  15.471  1.00  0.00     0.018 C 
HETATM   16  C   UNL     1     -43.371 -54.514  15.433  1.00  0.00     0.023 C 
HETATM   17  C   UNL     1     -44.093 -54.255  14.326  1.00  0.00     0.115 C 
HETATM   18  C   UNL     1     -43.406 -53.701  13.130  1.00  0.00     0.263 C 
HETATM   19  O   UNL     1     -44.022 -53.340  12.130  1.00  0.00    -0.267 OA
BRANCH  17  20
HETATM   20  C   UNL     1     -45.546 -54.544  14.235  1.00  0.00     0.422 C 
HETATM   21  F   UNL     1     -46.196 -54.750  15.404  1.00  0.00    -0.166 F 
HETATM   22  F   UNL     1     -46.199 -53.517  13.619  1.00  0.00    -0.166 F 
HETATM   23  F   UNL     1     -45.781 -55.642  13.464  1.00  0.00    -0.166 F 
ENDBRANCH  17  20
ENDBRANCH   1  13
TORSDOF 4
ENDMDL
MODEL 7
REMARK VINA RESULT:      -5.8      2.581      3.895
REMARK  4 active torsions:
REMARK  status: ('A' for Active; 'I' for Inactive)
REMARK    1  A    between atoms: C_7  and  N_8 
REMARK       I    between atoms: N_8  and  C_9 
REMARK    2  A    between atoms: C_9  and  C_11 
REMARK    3  A    between atoms: C_11  and  N_12 
REMARK    4  A    between atoms: C_16  and  C_19 
ROOT
HETATM    1  C   UNL     1     -38.861 -51.895  14.484  1.00  0.00     0.234 C 
ENDROOT
BRANCH   1   2
HETATM    2  C   UNL     1     -39.834 -52.992  14.058  1.00  0.00     0.236 C 
HETATM    3  N   UNL     1     -41.162 -52.718  14.329  1.00  0.00    -0.355 N 
HETATM    4  H   UNL     1     -41.406 -51.739  14.478  1.00  0.00     0.162 HD
HETATM    5  O   UNL     1     -39.451 -54.015  13.496  1.00  0.00    -0.272 OA
BRANCH   3   6
HETATM    6  C   UNL     1     -42.218 -53.653  13.964  1.00  0.00     0.088 C 
HETATM    7  C   UNL     1     -43.277 -53.024  13.031  1.00  0.00     0.004 C 
HETATM    8  C   UNL     1     -43.956 -51.786  13.630  1.00  0.00     0.012 C 
HETATM    9  C   UNL     1     -44.317 -54.090  12.646  1.00  0.00     0.006 C 
HETATM   10  C   UNL     1     -44.950 -54.773  13.859  1.00  0.00     0.001 C 
HETATM   11  C   UNL     1     -43.901 -55.332  14.817  1.00  0.00     0.002 C 
HETATM   12  C   UNL     1     -42.853 -54.289  15.207  1.00  0.00     0.025 C 
ENDBRANCH   3   6
ENDBRANCH   1   2
BRANCH   1  13
HETATM   13  N   UNL     1     -38.614 -50.941  13.407  1.00  0.00    -0.315 N 
HETATM   14  C   UNL     1     -37.536 -51.132  12.563  1.00  0.00     0.095 C 
HETATM   15  C   UNL     1     -37.258 -50.251  11.597  1.00  0.00     0.018 C 
HETATM   16  C   UNL     1     -38.066 -49.068  11.459  1.00  0.00     0.023 C 
HETATM   17  C   UNL     1     -39.139 -48.854  12.244  1.00  0.00     0.115 C 
HETATM   18  C   UNL     1     -39.508 -49.879  13.256  1.00  0.00     0.263 C 
HETATM   19  O   UNL     1     -40.534 -49.797  13.926  1.00  0.00    -0.267 OA
BRANCH  17  20
HETATM   20  C   UNL     1     -39.947 -47.611  12.172  1.00  0.00     0.422 C 
HETATM   21  F   UNL     1     -39.967 -46.838  13.283  1.00  0.00    -0.166 F 
HETATM   22  F   UNL     1     -39.499 -46.808  11.165  1.00  0.00    -0.166 F 
HETATM   23  F   UNL     1     -41.246 -47.886  11.871  1.00  0.00    -0.166 F 
ENDBRANCH  17  20
ENDBRANCH   1  13
TORSDOF 4
ENDMDL
MODEL 8
REMARK VINA RESULT:      -5.7      4.691      5.810
REMARK  4 active torsions:
REMARK  status: ('A' for Active; 'I' for Inactive)
REMARK    1  A    between atoms: C_7  and  N_8 
REMARK       I    between atoms: N_8  and  C_9 
REMARK    2  A    between atoms: C_9  and  C_11 
REMARK    3  A    between atoms: C_11  and  N_12 
REMARK    4  A    between atoms: C_16  and  C_19 
ROOT
HETATM    1  C   UNL     1     -40.671 -54.049  15.344  1.00  0.00     0.234 C 
ENDROOT
BRANCH   1   2
HETATM    2  C   UNL     1     -42.003 -53.866  14.620  1.00  0.00     0.236 C 
HETATM    3  N   UNL     1     -42.957 -53.169  15.341  1.00  0.00    -0.355 N 
HETATM    4  H   UNL     1     -42.617 -52.587  16.106  1.00  0.00     0.162 HD
HETATM    5  O   UNL     1     -42.185 -54.285  13.480  1.00  0.00    -0.272 OA
BRANCH   3   6
HETATM    6  C   UNL     1     -44.273 -52.890  14.783  1.00  0.00     0.088 C 
HETATM    7  C   UNL     1     -44.298 -51.605  13.925  1.00  0.00     0.004 C 
HETATM    8  C   UNL     1     -43.857 -50.352  14.693  1.00  0.00     0.012 C 
HETATM    9  C   UNL     1     -45.702 -51.417  13.326  1.00  0.00     0.006 C 
HETATM   10  C   UNL     1     -46.809 -51.427  14.382  1.00  0.00     0.001 C 
HETATM   11  C   UNL     1     -46.739 -52.662  15.276  1.00  0.00     0.002 C 
HETATM   12  C   UNL     1     -45.349 -52.871  15.876  1.00  0.00     0.025 C 
ENDBRANCH   3   6
ENDBRANCH   1   2
BRANCH   1  13
HETATM   13  N   UNL     1     -39.888 -52.817  15.359  1.00  0.00    -0.315 N 
HETATM   14  C   UNL     1     -39.900 -52.018  16.486  1.00  0.00     0.095 C 
HETATM   15  C   UNL     1     -39.230 -50.861  16.513  1.00  0.00     0.018 C 
HETATM   16  C   UNL     1     -38.522 -50.421  15.339  1.00  0.00     0.023 C 
HETATM   17  C   UNL     1     -38.465 -51.179  14.227  1.00  0.00     0.115 C 
HETATM   18  C   UNL     1     -39.129 -52.510  14.228  1.00  0.00     0.263 C 
HETATM   19  O   UNL     1     -39.022 -53.294  13.289  1.00  0.00    -0.267 OA
BRANCH  17  20
HETATM   20  C   UNL     1     -37.804 -50.721  12.980  1.00  0.00     0.422 C 
HETATM   21  F   UNL     1     -36.735 -51.438  12.564  1.00  0.00    -0.166 F 
HETATM   22  F   UNL     1     -38.688 -50.727  11.941  1.00  0.00    -0.166 F 
HETATM   23  F   UNL     1     -37.383 -49.431  13.094  1.00  0.00    -0.166 F 
ENDBRANCH  17  20
ENDBRANCH   1  13
TORSDOF 4
ENDMDL
MODEL 9
REMARK VINA RESULT:      -5.7      4.355      7.666
REMARK  4 active torsions:
REMARK  status: ('A' for Active; 'I' for Inactive)
REMARK    1  A    between atoms: C_7  and  N_8 
REMARK       I    between atoms: N_8  and  C_9 
REMARK    2  A    between atoms: C_9  and  C_11 
REMARK    3  A    between atoms: C_11  and  N_12 
REMARK    4  A    between atoms: C_16  and  C_19 
ROOT
HETATM    1  C   UNL     1     -41.643 -51.353  14.076  1.00  0.00     0.234 C 
ENDROOT
BRANCH   1   2
HETATM    2  C   UNL     1     -41.569 -50.570  12.767  1.00  0.00     0.236 C 
HETATM    3  N   UNL     1     -42.062 -49.280  12.841  1.00  0.00    -0.355 N 
HETATM    4  H   UNL     1     -42.127 -48.867  13.771  1.00  0.00     0.162 HD
HETATM    5  O   UNL     1     -41.082 -51.055  11.749  1.00  0.00    -0.272 OA
BRANCH   3   6
HETATM    6  C   UNL     1     -42.044 -48.394  11.684  1.00  0.00     0.088 C 
HETATM    7  C   UNL     1     -41.030 -47.237  11.834  1.00  0.00     0.004 C 
HETATM    8  C   UNL     1     -41.284 -46.363  13.069  1.00  0.00     0.012 C 
HETATM    9  C   UNL     1     -41.029 -46.389  10.551  1.00  0.00     0.006 C 
HETATM   10  C   UNL     1     -42.422 -45.890  10.163  1.00  0.00     0.001 C 
HETATM   11  C   UNL     1     -43.439 -47.025  10.085  1.00  0.00     0.002 C 
HETATM   12  C   UNL     1     -43.451 -47.885  11.349  1.00  0.00     0.025 C 
ENDBRANCH   3   6
ENDBRANCH   1   2
BRANCH   1  13
HETATM   13  N   UNL     1     -42.834 -52.194  14.138  1.00  0.00    -0.315 N 
HETATM   14  C   UNL     1     -42.738 -53.535  13.814  1.00  0.00     0.095 C 
HETATM   15  C   UNL     1     -43.819 -54.320  13.817  1.00  0.00     0.018 C 
HETATM   16  C   UNL     1     -45.108 -53.755  14.121  1.00  0.00     0.023 C 
HETATM   17  C   UNL     1     -45.244 -52.459  14.464  1.00  0.00     0.115 C 
HETATM   18  C   UNL     1     -44.030 -51.607  14.556  1.00  0.00     0.263 C 
HETATM   19  O   UNL     1     -44.072 -50.451  14.969  1.00  0.00    -0.267 OA
BRANCH  17  20
HETATM   20  C   UNL     1     -46.567 -51.833  14.713  1.00  0.00     0.422 C 
HETATM   21  F   UNL     1     -46.650 -50.996  15.773  1.00  0.00    -0.166 F 
HETATM   22  F   UNL     1     -46.962 -51.106  13.628  1.00  0.00    -0.166 F 
HETATM   23  F   UNL     1     -47.531 -52.778  14.891  1.00  0.00    -0.166 F 
ENDBRANCH  17  20
ENDBRANCH   1  13
TORSDOF 4
ENDMDL
