MODEL 1
REMARK VINA RESULT:      -6.6      0.000      0.000
REMARK  8 active torsions:
REMARK  status: ('A' for Active; 'I' for Inactive)
REMARK    1  A    between atoms: N_2  and  C_13 
REMARK    2  A    between atoms: C_6  and  N_8 
REMARK    3  A    between atoms: C_13  and  C_15 
REMARK    4  A    between atoms: C_15  and  O_24 
REMARK    5  A    between atoms: C_21  and  O_25 
REMARK    6  A    between atoms: O_25  and  C_26 
REMARK    7  A    between atoms: C_26  and  C_29 
REMARK    8  A    between atoms: C_29  and  C_30 
ROOT
HETATM    1  C   UNL     1     -41.273 -47.144  11.906  1.00  0.00     0.117 A 
HETATM    2  N   UNL     1     -40.894 -45.031  11.498  1.00  0.00    -0.324 N 
HETATM    3  C   UNL     1     -41.471 -46.149  10.964  1.00  0.00     0.140 A 
HETATM    4  N   UNL     1     -40.544 -46.651  12.977  1.00  0.00    -0.346 N 
ATOM      5  HN  UNL     1     -40.209 -47.167  13.790  1.00  0.00     0.167 HD
HETATM    6  C   UNL     1     -41.847 -48.405  11.632  1.00  0.00     0.114 A 
HETATM    7  C   UNL     1     -40.378 -45.374  12.718  1.00  0.00     0.185 A 
HETATM    8  N   UNL     1     -42.117 -46.253   9.794  1.00  0.00    -0.336 N 
ATOM      9  HN  UNL     1     -42.214 -45.495   9.119  1.00  0.00     0.168 HD
HETATM   10  N   UNL     1     -42.534 -48.540  10.462  1.00  0.00    -0.341 N 
ATOM     11  HN  UNL     1     -42.978 -49.426  10.222  1.00  0.00     0.167 HD
HETATM   12  C   UNL     1     -42.618 -47.486   9.627  1.00  0.00     0.183 A 
ENDROOT
BRANCH   6  13
HETATM   13  N   UNL     1     -41.763 -49.468  12.539  1.00  0.00    -0.267 NA
HETATM   14  C   UNL     1     -43.019 -49.774  13.232  1.00  0.00     0.099 C 
HETATM   15  C   UNL     1     -42.721 -50.767  14.357  1.00  0.00     0.047 C 
HETATM   16  C   UNL     1     -42.028 -52.023  13.815  1.00  0.00     0.123 C 
HETATM   17  C   UNL     1     -40.773 -51.619  13.028  1.00  0.00     0.047 C 
HETATM   18  C   UNL     1     -41.138 -50.638  11.919  1.00  0.00     0.099 C 
BRANCH  16  19
HETATM   19  O   UNL     1     -42.973 -52.744  13.001  1.00  0.00    -0.386 OA
BRANCH  19  20
HETATM   20  C   UNL     1     -44.128 -53.145  13.735  1.00  0.00     0.168 C 
BRANCH  20  21
HETATM   21  C   UNL     1     -45.362 -53.150  12.840  1.00  0.00     0.030 C 
BRANCH  21  22
HETATM   22  C   UNL     1     -46.048 -51.770  12.824  1.00  0.00    -0.021 C 
HETATM   23  C   UNL     1     -47.093 -51.655  11.711  1.00  0.00     0.009 C 
HETATM   24  C   UNL     1     -46.691 -51.470  14.174  1.00  0.00     0.009 C 
ENDBRANCH  21  22
ENDBRANCH  20  21
ENDBRANCH  19  20
ENDBRANCH  16  19
ENDBRANCH   6  13
BRANCH   2  25
HETATM   25  C   UNL     1     -40.977 -43.698  10.944  1.00  0.00     0.169 C 
BRANCH  25  26
HETATM   26  C   UNL     1     -42.296 -42.946  11.237  1.00  0.00     0.078 C 
HETATM   27  C   UNL     1     -42.102 -41.454  10.911  1.00  0.00     0.066 C 
HETATM   28  C   UNL     1     -41.352 -40.728  12.016  1.00  0.00     0.170 C 
HETATM   29  O   UNL     1     -42.069 -40.849  13.240  1.00  0.00    -0.391 OA
HETATM   30  C   UNL     1     -42.142 -42.199  13.690  1.00  0.00     0.170 C 
HETATM   31  C   UNL     1     -42.842 -43.092  12.670  1.00  0.00     0.066 C 
BRANCH  26  32
HETATM   32  O   UNL     1     -43.285 -43.435  10.311  1.00  0.00    -0.388 OA
HETATM   33  H   UNL     1     -44.021 -43.825  10.817  1.00  0.00     0.210 HD
ENDBRANCH  26  32
ENDBRANCH  25  26
ENDBRANCH   2  25
TORSDOF 8
ENDMDL
MODEL 2
REMARK VINA RESULT:      -6.4      1.978      3.187
REMARK  8 active torsions:
REMARK  status: ('A' for Active; 'I' for Inactive)
REMARK    1  A    between atoms: N_2  and  C_13 
REMARK    2  A    between atoms: C_6  and  N_8 
REMARK    3  A    between atoms: C_13  and  C_15 
REMARK    4  A    between atoms: C_15  and  O_24 
REMARK    5  A    between atoms: C_21  and  O_25 
REMARK    6  A    between atoms: O_25  and  C_26 
REMARK    7  A    between atoms: C_26  and  C_29 
REMARK    8  A    between atoms: C_29  and  C_30 
ROOT
HETATM    1  C   UNL     1     -41.232 -49.655  12.470  1.00  0.00     0.117 A 
HETATM    2  N   UNL     1     -40.647 -47.757  11.558  1.00  0.00    -0.324 N 
HETATM    3  C   UNL     1     -40.654 -48.428  12.749  1.00  0.00     0.140 A 
HETATM    4  N   UNL     1     -41.615 -49.712  11.140  1.00  0.00    -0.346 N 
ATOM      5  HN  UNL     1     -42.108 -50.470  10.667  1.00  0.00     0.167 HD
HETATM    6  C   UNL     1     -41.292 -50.587  13.530  1.00  0.00     0.114 A 
HETATM    7  C   UNL     1     -41.206 -48.578  10.617  1.00  0.00     0.185 A 
HETATM    8  N   UNL     1     -40.176 -48.003  13.926  1.00  0.00    -0.336 N 
ATOM      9  HN  UNL     1     -39.780 -47.077  14.089  1.00  0.00     0.168 HD
HETATM   10  N   UNL     1     -40.791 -50.197  14.736  1.00  0.00    -0.341 N 
ATOM     11  HN  UNL     1     -40.799 -50.836  15.530  1.00  0.00     0.167 HD
HETATM   12  C   UNL     1     -40.284 -48.955  14.865  1.00  0.00     0.183 A 
ENDROOT
BRANCH   6  13
HETATM   13  N   UNL     1     -41.800 -51.879  13.349  1.00  0.00    -0.267 NA
HETATM   14  C   UNL     1     -41.588 -52.778  14.488  1.00  0.00     0.099 C 
HETATM   15  C   UNL     1     -41.957 -54.199  14.056  1.00  0.00     0.047 C 
HETATM   16  C   UNL     1     -43.393 -54.257  13.522  1.00  0.00     0.123 C 
HETATM   17  C   UNL     1     -43.565 -53.229  12.395  1.00  0.00     0.047 C 
HETATM   18  C   UNL     1     -43.190 -51.836  12.890  1.00  0.00     0.099 C 
BRANCH  16  19
HETATM   19  O   UNL     1     -44.294 -54.018  14.620  1.00  0.00    -0.386 OA
BRANCH  19  20
HETATM   20  C   UNL     1     -45.642 -54.354  14.302  1.00  0.00     0.168 C 
BRANCH  20  21
HETATM   21  C   UNL     1     -46.617 -53.530  15.136  1.00  0.00     0.030 C 
BRANCH  21  22
HETATM   22  C   UNL     1     -46.403 -52.020  14.918  1.00  0.00    -0.021 C 
HETATM   23  C   UNL     1     -46.766 -51.583  13.496  1.00  0.00     0.009 C 
HETATM   24  C   UNL     1     -47.202 -51.208  15.932  1.00  0.00     0.009 C 
ENDBRANCH  21  22
ENDBRANCH  20  21
ENDBRANCH  19  20
ENDBRANCH  16  19
ENDBRANCH   6  13
BRANCH   2  25
HETATM   25  C   UNL     1     -40.004 -46.485  11.315  1.00  0.00     0.169 C 
BRANCH  25  26
HETATM   26  C   UNL     1     -40.959 -45.329  10.936  1.00  0.00     0.078 C 
HETATM   27  C   UNL     1     -40.248 -43.989  11.198  1.00  0.00     0.066 C 
HETATM   28  C   UNL     1     -40.263 -43.621  12.673  1.00  0.00     0.170 C 
HETATM   29  O   UNL     1     -41.608 -43.532  13.130  1.00  0.00    -0.391 OA
HETATM   30  C   UNL     1     -42.280 -44.787  13.071  1.00  0.00     0.170 C 
HETATM   31  C   UNL     1     -42.325 -45.333  11.647  1.00  0.00     0.066 C 
BRANCH  26  32
HETATM   32  O   UNL     1     -41.176 -45.399   9.514  1.00  0.00    -0.388 OA
HETATM   33  H   UNL     1     -42.034 -45.829   9.349  1.00  0.00     0.210 HD
ENDBRANCH  26  32
ENDBRANCH  25  26
ENDBRANCH   2  25
TORSDOF 8
ENDMDL
MODEL 3
REMARK VINA RESULT:      -6.4      2.171      3.362
REMARK  8 active torsions:
REMARK  status: ('A' for Active; 'I' for Inactive)
REMARK    1  A    between atoms: N_2  and  C_13 
REMARK    2  A    between atoms: C_6  and  N_8 
REMARK    3  A    between atoms: C_13  and  C_15 
REMARK    4  A    between atoms: C_15  and  O_24 
REMARK    5  A    between atoms: C_21  and  O_25 
REMARK    6  A    between atoms: O_25  and  C_26 
REMARK    7  A    between atoms: C_26  and  C_29 
REMARK    8  A    between atoms: C_29  and  C_30 
ROOT
HETATM    1  C   UNL     1     -39.916 -49.841  13.050  1.00  0.00     0.117 A 
HETATM    2  N   UNL     1     -40.129 -47.672  12.885  1.00  0.00    -0.324 N 
HETATM    3  C   UNL     1     -39.355 -48.718  12.465  1.00  0.00     0.140 A 
HETATM    4  N   UNL     1     -40.986 -49.478  13.853  1.00  0.00    -0.346 N 
ATOM      5  HN  UNL     1     -41.554 -50.087  14.442  1.00  0.00     0.167 HD
HETATM    6  C   UNL     1     -39.344 -51.088  12.714  1.00  0.00     0.114 A 
HETATM    7  C   UNL     1     -41.111 -48.181  13.690  1.00  0.00     0.185 A 
HETATM    8  N   UNL     1     -38.300 -48.672  11.640  1.00  0.00    -0.336 N 
ATOM      9  HN  UNL     1     -37.907 -47.813  11.254  1.00  0.00     0.168 HD
HETATM   10  N   UNL     1     -38.284 -51.080  11.856  1.00  0.00    -0.341 N 
ATOM     11  HN  UNL     1     -37.843 -51.954  11.572  1.00  0.00     0.167 HD
HETATM   12  C   UNL     1     -37.828 -49.902  11.389  1.00  0.00     0.183 A 
ENDROOT
BRANCH   6  13
HETATM   13  N   UNL     1     -39.865 -52.294  13.198  1.00  0.00    -0.267 NA
HETATM   14  C   UNL     1     -40.028 -52.343  14.654  1.00  0.00     0.099 C 
HETATM   15  C   UNL     1     -40.357 -53.783  15.055  1.00  0.00     0.047 C 
HETATM   16  C   UNL     1     -41.595 -54.293  14.308  1.00  0.00     0.123 C 
HETATM   17  C   UNL     1     -41.389 -54.128  12.796  1.00  0.00     0.047 C 
HETATM   18  C   UNL     1     -41.073 -52.674  12.461  1.00  0.00     0.099 C 
BRANCH  16  19
HETATM   19  O   UNL     1     -42.742 -53.564  14.785  1.00  0.00    -0.386 OA
BRANCH  19  20
HETATM   20  C   UNL     1     -43.972 -54.194  14.434  1.00  0.00     0.168 C 
BRANCH  20  21
HETATM   21  C   UNL     1     -44.802 -53.293  13.527  1.00  0.00     0.030 C 
BRANCH  21  22
HETATM   22  C   UNL     1     -45.010 -51.903  14.159  1.00  0.00    -0.021 C 
HETATM   23  C   UNL     1     -44.302 -50.797  13.371  1.00  0.00     0.009 C 
HETATM   24  C   UNL     1     -46.495 -51.582  14.286  1.00  0.00     0.009 C 
ENDBRANCH  21  22
ENDBRANCH  20  21
ENDBRANCH  19  20
ENDBRANCH  16  19
ENDBRANCH   6  13
BRANCH   2  25
HETATM   25  C   UNL     1     -40.024 -46.309  12.414  1.00  0.00     0.169 C 
BRANCH  25  26
HETATM   26  C   UNL     1     -40.789 -46.005  11.106  1.00  0.00     0.078 C 
HETATM   27  C   UNL     1     -40.013 -44.940  10.310  1.00  0.00     0.066 C 
HETATM   28  C   UNL     1     -40.245 -43.543  10.862  1.00  0.00     0.170 C 
HETATM   29  O   UNL     1     -41.636 -43.237  10.818  1.00  0.00    -0.391 OA
HETATM   30  C   UNL     1     -42.400 -44.086  11.670  1.00  0.00     0.170 C 
HETATM   31  C   UNL     1     -42.251 -45.553  11.279  1.00  0.00     0.066 C 
BRANCH  26  32
HETATM   32  O   UNL     1     -40.765 -47.203  10.305  1.00  0.00    -0.388 OA
HETATM   33  H   UNL     1     -40.178 -47.057   9.541  1.00  0.00     0.210 HD
ENDBRANCH  26  32
ENDBRANCH  25  26
ENDBRANCH   2  25
TORSDOF 8
ENDMDL
MODEL 4
REMARK VINA RESULT:      -6.2      1.652      2.218
REMARK  8 active torsions:
REMARK  status: ('A' for Active; 'I' for Inactive)
REMARK    1  A    between atoms: N_2  and  C_13 
REMARK    2  A    between atoms: C_6  and  N_8 
REMARK    3  A    between atoms: C_13  and  C_15 
REMARK    4  A    between atoms: C_15  and  O_24 
REMARK    5  A    between atoms: C_21  and  O_25 
REMARK    6  A    between atoms: O_25  and  C_26 
REMARK    7  A    between atoms: C_26  and  C_29 
REMARK    8  A    between atoms: C_29  and  C_30 
ROOT
HETATM    1  C   UNL     1     -40.208 -47.131  11.896  1.00  0.00     0.117 A 
HETATM    2  N   UNL     1     -40.423 -45.017  11.383  1.00  0.00    -0.324 N 
HETATM    3  C   UNL     1     -40.847 -46.266  11.023  1.00  0.00     0.140 A 
HETATM    4  N   UNL     1     -39.370 -46.423  12.743  1.00  0.00    -0.346 N 
ATOM      5  HN  UNL     1     -38.740 -46.801  13.451  1.00  0.00     0.167 HD
HETATM    6  C   UNL     1     -40.535 -48.501  11.789  1.00  0.00     0.114 A 
HETATM    7  C   UNL     1     -39.562 -45.160  12.437  1.00  0.00     0.185 A 
HETATM    8  N   UNL     1     -41.718 -46.584  10.056  1.00  0.00    -0.336 N 
ATOM      9  HN  UNL     1     -42.144 -45.910   9.419  1.00  0.00     0.168 HD
HETATM   10  N   UNL     1     -41.438 -48.857  10.832  1.00  0.00    -0.341 N 
ATOM     11  HN  UNL     1     -41.717 -49.831  10.722  1.00  0.00     0.167 HD
HETATM   12  C   UNL     1     -41.956 -47.904  10.033  1.00  0.00     0.183 A 
ENDROOT
BRANCH   6  13
HETATM   13  N   UNL     1     -39.997 -49.458  12.658  1.00  0.00    -0.267 NA
HETATM   14  C   UNL     1     -40.995 -50.300  13.325  1.00  0.00     0.099 C 
HETATM   15  C   UNL     1     -40.292 -51.110  14.416  1.00  0.00     0.047 C 
HETATM   16  C   UNL     1     -39.130 -51.925  13.835  1.00  0.00     0.123 C 
HETATM   17  C   UNL     1     -38.175 -50.993  13.077  1.00  0.00     0.047 C 
HETATM   18  C   UNL     1     -38.933 -50.222  12.001  1.00  0.00     0.099 C 
BRANCH  16  19
HETATM   19  O   UNL     1     -39.679 -52.951  12.985  1.00  0.00    -0.386 OA
BRANCH  19  20
HETATM   20  C   UNL     1     -40.308 -53.993  13.727  1.00  0.00     0.168 C 
BRANCH  20  21
HETATM   21  C   UNL     1     -41.714 -54.259  13.202  1.00  0.00     0.030 C 
BRANCH  21  22
HETATM   22  C   UNL     1     -42.783 -53.838  14.229  1.00  0.00    -0.021 C 
HETATM   23  C   UNL     1     -43.772 -52.820  13.652  1.00  0.00     0.009 C 
HETATM   24  C   UNL     1     -43.537 -55.055  14.755  1.00  0.00     0.009 C 
ENDBRANCH  21  22
ENDBRANCH  20  21
ENDBRANCH  19  20
ENDBRANCH  16  19
ENDBRANCH   6  13
BRANCH   2  25
HETATM   25  C   UNL     1     -40.934 -43.773  10.853  1.00  0.00     0.169 C 
BRANCH  25  26
HETATM   26  C   UNL     1     -42.358 -43.396  11.322  1.00  0.00     0.078 C 
HETATM   27  C   UNL     1     -42.557 -41.880  11.144  1.00  0.00     0.066 C 
HETATM   28  C   UNL     1     -41.896 -41.089  12.261  1.00  0.00     0.170 C 
HETATM   29  O   UNL     1     -42.440 -41.487  13.516  1.00  0.00    -0.391 OA
HETATM   30  C   UNL     1     -42.147 -42.847  13.822  1.00  0.00     0.170 C 
HETATM   31  C   UNL     1     -42.711 -43.794  12.768  1.00  0.00     0.066 C 
BRANCH  26  32
HETATM   32  O   UNL     1     -43.289 -44.032  10.425  1.00  0.00    -0.388 OA
HETATM   33  H   UNL     1     -43.444 -43.442   9.666  1.00  0.00     0.210 HD
ENDBRANCH  26  32
ENDBRANCH  25  26
ENDBRANCH   2  25
TORSDOF 8
ENDMDL
MODEL 5
REMARK VINA RESULT:      -6.2      2.654      4.297
REMARK  8 active torsions:
REMARK  status: ('A' for Active; 'I' for Inactive)
REMARK    1  A    between atoms: N_2  and  C_13 
REMARK    2  A    between atoms: C_6  and  N_8 
REMARK    3  A    between atoms: C_13  and  C_15 
REMARK    4  A    between atoms: C_15  and  O_24 
REMARK    5  A    between atoms: C_21  and  O_25 
REMARK    6  A    between atoms: O_25  and  C_26 
REMARK    7  A    between atoms: C_26  and  C_29 
REMARK    8  A    between atoms: C_29  and  C_30 
ROOT
HETATM    1  C   UNL     1     -41.096 -50.944  13.815  1.00  0.00     0.117 A 
HETATM    2  N   UNL     1     -40.395 -49.121  12.834  1.00  0.00    -0.324 N 
HETATM    3  C   UNL     1     -40.729 -50.422  12.585  1.00  0.00     0.140 A 
HETATM    4  N   UNL     1     -40.942 -49.987  14.805  1.00  0.00    -0.346 N 
ATOM      5  HN  UNL     1     -41.088 -50.103  15.808  1.00  0.00     0.167 HD
HETATM    6  C   UNL     1     -41.566 -52.276  13.827  1.00  0.00     0.114 A 
HETATM    7  C   UNL     1     -40.567 -48.898  14.174  1.00  0.00     0.185 A 
HETATM    8  N   UNL     1     -40.731 -51.051  11.402  1.00  0.00    -0.336 N 
ATOM      9  HN  UNL     1     -40.426 -50.630  10.524  1.00  0.00     0.168 HD
HETATM   10  N   UNL     1     -41.605 -52.938  12.636  1.00  0.00    -0.341 N 
ATOM     11  HN  UNL     1     -41.948 -53.897  12.589  1.00  0.00     0.167 HD
HETATM   12  C   UNL     1     -41.186 -52.307  11.522  1.00  0.00     0.183 A 
ENDROOT
BRANCH   6  13
HETATM   13  N   UNL     1     -42.021 -52.887  15.002  1.00  0.00    -0.267 NA
HETATM   14  C   UNL     1     -43.218 -52.270  15.581  1.00  0.00     0.099 C 
HETATM   15  C   UNL     1     -43.446 -52.868  16.971  1.00  0.00     0.047 C 
HETATM   16  C   UNL     1     -43.547 -54.397  16.903  1.00  0.00     0.123 C 
HETATM   17  C   UNL     1     -42.302 -54.965  16.206  1.00  0.00     0.047 C 
HETATM   18  C   UNL     1     -42.137 -54.337  14.826  1.00  0.00     0.099 C 
BRANCH  16  19
HETATM   19  O   UNL     1     -44.763 -54.739  16.210  1.00  0.00    -0.386 OA
BRANCH  19  20
HETATM   20  C   UNL     1     -45.826 -53.833  16.498  1.00  0.00     0.168 C 
BRANCH  20  21
HETATM   21  C   UNL     1     -46.678 -53.589  15.258  1.00  0.00     0.030 C 
BRANCH  21  22
HETATM   22  C   UNL     1     -47.123 -52.116  15.167  1.00  0.00    -0.021 C 
HETATM   23  C   UNL     1     -46.813 -51.336  16.447  1.00  0.00     0.009 C 
HETATM   24  C   UNL     1     -46.476 -51.428  13.969  1.00  0.00     0.009 C 
ENDBRANCH  21  22
ENDBRANCH  20  21
ENDBRANCH  19  20
ENDBRANCH  16  19
ENDBRANCH   6  13
BRANCH   2  25
HETATM   25  C   UNL     1     -40.089 -48.126  11.831  1.00  0.00     0.169 C 
BRANCH  25  26
HETATM   26  C   UNL     1     -41.305 -47.603  11.032  1.00  0.00     0.078 C 
HETATM   27  C   UNL     1     -40.979 -46.201  10.488  1.00  0.00     0.066 C 
HETATM   28  C   UNL     1     -41.123 -45.131  11.559  1.00  0.00     0.170 C 
HETATM   29  O   UNL     1     -42.455 -45.137  12.063  1.00  0.00    -0.391 OA
HETATM   30  C   UNL     1     -42.771 -46.355  12.733  1.00  0.00     0.170 C 
HETATM   31  C   UNL     1     -42.638 -47.557  11.803  1.00  0.00     0.066 C 
BRANCH  26  32
HETATM   32  O   UNL     1     -41.464 -48.455   9.881  1.00  0.00    -0.388 OA
HETATM   33  H   UNL     1     -40.592 -48.812   9.635  1.00  0.00     0.210 HD
ENDBRANCH  26  32
ENDBRANCH  25  26
ENDBRANCH   2  25
TORSDOF 8
ENDMDL
MODEL 6
REMARK VINA RESULT:      -6.0      2.130      3.470
REMARK  8 active torsions:
REMARK  status: ('A' for Active; 'I' for Inactive)
REMARK    1  A    between atoms: N_2  and  C_13 
REMARK    2  A    between atoms: C_6  and  N_8 
REMARK    3  A    between atoms: C_13  and  C_15 
REMARK    4  A    between atoms: C_15  and  O_24 
REMARK    5  A    between atoms: C_21  and  O_25 
REMARK    6  A    between atoms: O_25  and  C_26 
REMARK    7  A    between atoms: C_26  and  C_29 
REMARK    8  A    between atoms: C_29  and  C_30 
ROOT
HETATM    1  C   UNL     1     -41.621 -49.946  13.094  1.00  0.00     0.117 A 
HETATM    2  N   UNL     1     -41.598 -47.768  13.269  1.00  0.00    -0.324 N 
HETATM    3  C   UNL     1     -40.921 -48.815  12.708  1.00  0.00     0.140 A 
HETATM    4  N   UNL     1     -42.679 -49.596  13.917  1.00  0.00    -0.346 N 
ATOM      5  HN  UNL     1     -43.332 -50.223  14.388  1.00  0.00     0.167 HD
HETATM    6  C   UNL     1     -41.169 -51.181  12.579  1.00  0.00     0.114 A 
HETATM    7  C   UNL     1     -42.661 -48.283  13.959  1.00  0.00     0.185 A 
HETATM    8  N   UNL     1     -39.834 -48.758  11.927  1.00  0.00    -0.336 N 
ATOM      9  HN  UNL     1     -39.337 -47.899  11.691  1.00  0.00     0.168 HD
HETATM   10  N   UNL     1     -40.079 -51.158  11.759  1.00  0.00    -0.341 N 
ATOM     11  HN  UNL     1     -39.721 -52.020  11.352  1.00  0.00     0.167 HD
HETATM   12  C   UNL     1     -39.483 -49.979  11.496  1.00  0.00     0.183 A 
ENDROOT
BRANCH   6  13
HETATM   13  N   UNL     1     -41.834 -52.383  12.852  1.00  0.00    -0.267 NA
HETATM   14  C   UNL     1     -41.478 -52.994  14.137  1.00  0.00     0.099 C 
HETATM   15  C   UNL     1     -42.075 -54.402  14.184  1.00  0.00     0.047 C 
HETATM   16  C   UNL     1     -43.590 -54.366  13.950  1.00  0.00     0.123 C 
HETATM   17  C   UNL     1     -43.891 -53.635  12.634  1.00  0.00     0.047 C 
HETATM   18  C   UNL     1     -43.278 -52.238  12.653  1.00  0.00     0.099 C 
BRANCH  16  19
HETATM   19  O   UNL     1     -44.207 -53.724  15.083  1.00  0.00    -0.386 OA
BRANCH  19  20
HETATM   20  C   UNL     1     -45.620 -53.912  15.111  1.00  0.00     0.168 C 
BRANCH  20  21
HETATM   21  C   UNL     1     -46.253 -53.082  16.223  1.00  0.00     0.030 C 
BRANCH  21  22
HETATM   22  C   UNL     1     -47.274 -52.076  15.657  1.00  0.00    -0.021 C 
HETATM   23  C   UNL     1     -47.725 -51.056  16.707  1.00  0.00     0.009 C 
HETATM   24  C   UNL     1     -46.704 -51.353  14.440  1.00  0.00     0.009 C 
ENDBRANCH  21  22
ENDBRANCH  20  21
ENDBRANCH  19  20
ENDBRANCH  16  19
ENDBRANCH   6  13
BRANCH   2  25
HETATM   25  C   UNL     1     -41.331 -46.368  13.023  1.00  0.00     0.169 C 
BRANCH  25  26
HETATM   26  C   UNL     1     -42.076 -45.760  11.812  1.00  0.00     0.078 C 
HETATM   27  C   UNL     1     -41.278 -46.065  10.531  1.00  0.00     0.066 C 
HETATM   28  C   UNL     1     -40.091 -45.129  10.370  1.00  0.00     0.170 C 
HETATM   29  O   UNL     1     -40.548 -43.781  10.325  1.00  0.00    -0.391 OA
HETATM   30  C   UNL     1     -41.153 -43.377  11.551  1.00  0.00     0.170 C 
HETATM   31  C   UNL     1     -42.358 -44.248  11.895  1.00  0.00     0.066 C 
BRANCH  26  32
HETATM   32  O   UNL     1     -43.329 -46.460  11.682  1.00  0.00    -0.388 OA
HETATM   33  H   UNL     1     -43.404 -46.800  10.772  1.00  0.00     0.210 HD
ENDBRANCH  26  32
ENDBRANCH  25  26
ENDBRANCH   2  25
TORSDOF 8
ENDMDL
MODEL 7
REMARK VINA RESULT:      -6.0      3.223      4.241
REMARK  8 active torsions:
REMARK  status: ('A' for Active; 'I' for Inactive)
REMARK    1  A    between atoms: N_2  and  C_13 
REMARK    2  A    between atoms: C_6  and  N_8 
REMARK    3  A    between atoms: C_13  and  C_15 
REMARK    4  A    between atoms: C_15  and  O_24 
REMARK    5  A    between atoms: C_21  and  O_25 
REMARK    6  A    between atoms: O_25  and  C_26 
REMARK    7  A    between atoms: C_26  and  C_29 
REMARK    8  A    between atoms: C_29  and  C_30 
ROOT
HETATM    1  C   UNL     1     -41.209 -49.992  12.394  1.00  0.00     0.117 A 
HETATM    2  N   UNL     1     -42.436 -48.292  11.777  1.00  0.00    -0.324 N 
HETATM    3  C   UNL     1     -41.164 -48.788  11.713  1.00  0.00     0.140 A 
HETATM    4  N   UNL     1     -42.479 -50.204  12.907  1.00  0.00    -0.346 N 
ATOM      5  HN  UNL     1     -42.791 -50.980  13.492  1.00  0.00     0.167 HD
HETATM    6  C   UNL     1     -40.023 -50.759  12.412  1.00  0.00     0.114 A 
HETATM    7  C   UNL     1     -43.195 -49.190  12.478  1.00  0.00     0.185 A 
HETATM    8  N   UNL     1     -40.107 -48.241  11.097  1.00  0.00    -0.336 N 
ATOM      9  HN  UNL     1     -40.117 -47.335  10.628  1.00  0.00     0.168 HD
HETATM   10  N   UNL     1     -38.935 -50.245  11.772  1.00  0.00    -0.341 N 
ATOM     11  HN  UNL     1     -38.058 -50.765  11.746  1.00  0.00     0.167 HD
HETATM   12  C   UNL     1     -39.034 -49.041  11.176  1.00  0.00     0.183 A 
ENDROOT
BRANCH   6  13
HETATM   13  N   UNL     1     -39.969 -52.020  13.018  1.00  0.00    -0.267 NA
HETATM   14  C   UNL     1     -39.816 -51.986  14.476  1.00  0.00     0.099 C 
HETATM   15  C   UNL     1     -39.518 -53.405  14.964  1.00  0.00     0.047 C 
HETATM   16  C   UNL     1     -40.607 -54.384  14.510  1.00  0.00     0.123 C 
HETATM   17  C   UNL     1     -40.772 -54.301  12.986  1.00  0.00     0.047 C 
HETATM   18  C   UNL     1     -41.075 -52.867  12.566  1.00  0.00     0.099 C 
BRANCH  16  19
HETATM   19  O   UNL     1     -41.824 -54.061  15.209  1.00  0.00    -0.386 OA
BRANCH  19  20
HETATM   20  C   UNL     1     -42.888 -54.955  14.890  1.00  0.00     0.168 C 
BRANCH  20  21
HETATM   21  C   UNL     1     -44.226 -54.393  15.357  1.00  0.00     0.030 C 
BRANCH  21  22
HETATM   22  C   UNL     1     -45.272 -54.424  14.226  1.00  0.00    -0.021 C 
HETATM   23  C   UNL     1     -46.375 -53.381  14.427  1.00  0.00     0.009 C 
HETATM   24  C   UNL     1     -44.607 -54.224  12.868  1.00  0.00     0.009 C 
ENDBRANCH  21  22
ENDBRANCH  20  21
ENDBRANCH  19  20
ENDBRANCH  16  19
ENDBRANCH   6  13
BRANCH   2  25
HETATM   25  C   UNL     1     -42.917 -47.121  11.080  1.00  0.00     0.169 C 
BRANCH  25  26
HETATM   26  C   UNL     1     -43.333 -47.357   9.609  1.00  0.00     0.078 C 
HETATM   27  C   UNL     1     -43.230 -46.027   8.841  1.00  0.00     0.066 C 
HETATM   28  C   UNL     1     -44.422 -45.124   9.115  1.00  0.00     0.170 C 
HETATM   29  O   UNL     1     -45.623 -45.789   8.736  1.00  0.00    -0.391 OA
HETATM   30  C   UNL     1     -45.867 -46.949   9.527  1.00  0.00     0.170 C 
HETATM   31  C   UNL     1     -44.734 -47.963   9.403  1.00  0.00     0.066 C 
BRANCH  26  32
HETATM   32  O   UNL     1     -42.356 -48.238   9.022  1.00  0.00    -0.388 OA
HETATM   33  H   UNL     1     -41.570 -47.716   8.780  1.00  0.00     0.210 HD
ENDBRANCH  26  32
ENDBRANCH  25  26
ENDBRANCH   2  25
TORSDOF 8
ENDMDL
MODEL 8
REMARK VINA RESULT:      -6.0      3.378      8.289
REMARK  8 active torsions:
REMARK  status: ('A' for Active; 'I' for Inactive)
REMARK    1  A    between atoms: N_2  and  C_13 
REMARK    2  A    between atoms: C_6  and  N_8 
REMARK    3  A    between atoms: C_13  and  C_15 
REMARK    4  A    between atoms: C_15  and  O_24 
REMARK    5  A    between atoms: C_21  and  O_25 
REMARK    6  A    between atoms: O_25  and  C_26 
REMARK    7  A    between atoms: C_26  and  C_29 
REMARK    8  A    between atoms: C_29  and  C_30 
ROOT
HETATM    1  C   UNL     1     -40.565 -49.355  13.460  1.00  0.00     0.117 A 
HETATM    2  N   UNL     1     -40.212 -50.913  14.952  1.00  0.00    -0.324 N 
HETATM    3  C   UNL     1     -39.796 -50.476  13.725  1.00  0.00     0.140 A 
HETATM    4  N   UNL     1     -41.469 -49.141  14.488  1.00  0.00    -0.346 N 
ATOM      5  HN  UNL     1     -42.191 -48.422  14.540  1.00  0.00     0.167 HD
HETATM    6  C   UNL     1     -40.280 -48.654  12.267  1.00  0.00     0.114 A 
HETATM    7  C   UNL     1     -41.196 -50.064  15.382  1.00  0.00     0.185 A 
HETATM    8  N   UNL     1     -38.831 -51.000  12.958  1.00  0.00    -0.336 N 
ATOM      9  HN  UNL     1     -38.308 -51.846  13.186  1.00  0.00     0.168 HD
HETATM   10  N   UNL     1     -39.285 -49.145  11.475  1.00  0.00    -0.341 N 
ATOM     11  HN  UNL     1     -39.032 -48.669  10.609  1.00  0.00     0.167 HD
HETATM   12  C   UNL     1     -38.642 -50.267  11.851  1.00  0.00     0.183 A 
ENDROOT
BRANCH   6  13
HETATM   13  N   UNL     1     -40.951 -47.474  11.926  1.00  0.00    -0.267 NA
HETATM   14  C   UNL     1     -40.268 -46.658  10.917  1.00  0.00     0.099 C 
HETATM   15  C   UNL     1     -40.973 -45.302  10.834  1.00  0.00     0.047 C 
HETATM   16  C   UNL     1     -42.467 -45.476  10.535  1.00  0.00     0.123 C 
HETATM   17  C   UNL     1     -43.095 -46.411  11.578  1.00  0.00     0.047 C 
HETATM   18  C   UNL     1     -42.355 -47.744  11.606  1.00  0.00     0.099 C 
BRANCH  16  19
HETATM   19  O   UNL     1     -42.603 -45.985   9.194  1.00  0.00    -0.386 OA
BRANCH  19  20
HETATM   20  C   UNL     1     -43.966 -46.087   8.788  1.00  0.00     0.168 C 
BRANCH  20  21
HETATM   21  C   UNL     1     -44.306 -47.520   8.394  1.00  0.00     0.030 C 
BRANCH  21  22
HETATM   22  C   UNL     1     -45.717 -47.912   8.873  1.00  0.00    -0.021 C 
HETATM   23  C   UNL     1     -46.615 -46.691   9.093  1.00  0.00     0.009 C 
HETATM   24  C   UNL     1     -46.377 -48.871   7.887  1.00  0.00     0.009 C 
ENDBRANCH  21  22
ENDBRANCH  20  21
ENDBRANCH  19  20
ENDBRANCH  16  19
ENDBRANCH   6  13
BRANCH   2  25
HETATM   25  C   UNL     1     -39.597 -51.973  15.718  1.00  0.00     0.169 C 
BRANCH  25  26
HETATM   26  C   UNL     1     -40.370 -53.312  15.726  1.00  0.00     0.078 C 
HETATM   27  C   UNL     1     -39.764 -54.232  16.801  1.00  0.00     0.066 C 
HETATM   28  C   UNL     1     -38.478 -54.888  16.322  1.00  0.00     0.170 C 
HETATM   29  O   UNL     1     -38.739 -55.650  15.148  1.00  0.00    -0.391 OA
HETATM   30  C   UNL     1     -39.148 -54.832  14.055  1.00  0.00     0.170 C 
HETATM   31  C   UNL     1     -40.422 -54.059  14.380  1.00  0.00     0.066 C 
BRANCH  26  32
HETATM   32  O   UNL     1     -41.717 -53.028  16.152  1.00  0.00    -0.388 OA
HETATM   33  H   UNL     1     -41.698 -52.751  17.086  1.00  0.00     0.210 HD
ENDBRANCH  26  32
ENDBRANCH  25  26
ENDBRANCH   2  25
TORSDOF 8
ENDMDL
MODEL 9
REMARK VINA RESULT:      -5.8      4.571      6.556
REMARK  8 active torsions:
REMARK  status: ('A' for Active; 'I' for Inactive)
REMARK    1  A    between atoms: N_2  and  C_13 
REMARK    2  A    between atoms: C_6  and  N_8 
REMARK    3  A    between atoms: C_13  and  C_15 
REMARK    4  A    between atoms: C_15  and  O_24 
REMARK    5  A    between atoms: C_21  and  O_25 
REMARK    6  A    between atoms: O_25  and  C_26 
REMARK    7  A    between atoms: C_26  and  C_29 
REMARK    8  A    between atoms: C_29  and  C_30 
ROOT
HETATM    1  C   UNL     1     -42.894 -51.485  12.877  1.00  0.00     0.117 A 
HETATM    2  N   UNL     1     -41.275 -50.415  11.873  1.00  0.00    -0.324 N 
HETATM    3  C   UNL     1     -41.596 -51.627  12.415  1.00  0.00     0.140 A 
HETATM    4  N   UNL     1     -43.339 -50.190  12.663  1.00  0.00    -0.346 N 
ATOM      5  HN  UNL     1     -44.233 -49.787  12.944  1.00  0.00     0.167 HD
HETATM    6  C   UNL     1     -43.504 -52.635  13.425  1.00  0.00     0.114 A 
HETATM    7  C   UNL     1     -42.361 -49.595  12.018  1.00  0.00     0.185 A 
HETATM    8  N   UNL     1     -40.832 -52.727  12.462  1.00  0.00    -0.336 N 
ATOM      9  HN  UNL     1     -39.869 -52.775  12.130  1.00  0.00     0.168 HD
HETATM   10  N   UNL     1     -42.764 -53.779  13.465  1.00  0.00    -0.341 N 
ATOM     11  HN  UNL     1     -43.163 -54.640  13.839  1.00  0.00     0.167 HD
HETATM   12  C   UNL     1     -41.499 -53.757  13.003  1.00  0.00     0.183 A 
ENDROOT
BRANCH   6  13
HETATM   13  N   UNL     1     -44.833 -52.625  13.868  1.00  0.00    -0.267 NA
HETATM   14  C   UNL     1     -45.263 -53.865  14.522  1.00  0.00     0.099 C 
HETATM   15  C   UNL     1     -46.779 -53.807  14.719  1.00  0.00     0.047 C 
HETATM   16  C   UNL     1     -47.184 -52.556  15.508  1.00  0.00     0.123 C 
HETATM   17  C   UNL     1     -46.625 -51.306  14.814  1.00  0.00     0.047 C 
HETATM   18  C   UNL     1     -45.113 -51.422  14.656  1.00  0.00     0.099 C 
BRANCH  16  19
HETATM   19  O   UNL     1     -46.697 -52.695  16.856  1.00  0.00    -0.386 OA
BRANCH  19  20
HETATM   20  C   UNL     1     -47.327 -51.789  17.758  1.00  0.00     0.168 C 
BRANCH  20  21
HETATM   21  C   UNL     1     -46.333 -51.281  18.797  1.00  0.00     0.030 C 
BRANCH  21  22
HETATM   22  C   UNL     1     -46.263 -49.742  18.798  1.00  0.00    -0.021 C 
HETATM   23  C   UNL     1     -45.329 -49.203  17.711  1.00  0.00     0.009 C 
HETATM   24  C   UNL     1     -47.654 -49.136  18.637  1.00  0.00     0.009 C 
ENDBRANCH  21  22
ENDBRANCH  20  21
ENDBRANCH  19  20
ENDBRANCH  16  19
ENDBRANCH   6  13
BRANCH   2  25
HETATM   25  C   UNL     1     -40.071 -50.121  11.129  1.00  0.00     0.169 C 
BRANCH  25  26
HETATM   26  C   UNL     1     -39.051 -49.217  11.860  1.00  0.00     0.078 C 
HETATM   27  C   UNL     1     -37.627 -49.681  11.504  1.00  0.00     0.066 C 
HETATM   28  C   UNL     1     -37.221 -50.914  12.297  1.00  0.00     0.170 C 
HETATM   29  O   UNL     1     -37.284 -50.628  13.690  1.00  0.00    -0.391 OA
HETATM   30  C   UNL     1     -38.613 -50.351  14.123  1.00  0.00     0.170 C 
HETATM   31  C   UNL     1     -39.201 -49.148  13.392  1.00  0.00     0.066 C 
BRANCH  26  32
HETATM   32  O   UNL     1     -39.188 -47.888  11.320  1.00  0.00    -0.388 OA
HETATM   33  H   UNL     1     -39.644 -47.330  11.976  1.00  0.00     0.210 HD
ENDBRANCH  26  32
ENDBRANCH  25  26
ENDBRANCH   2  25
TORSDOF 8
ENDMDL
