MODEL 1
REMARK VINA RESULT:      -4.2      0.000      0.000
REMARK  1 active torsions:
REMARK  status: ('A' for Active; 'I' for Inactive)
REMARK    1  A    between atoms: C_4  and  C_7 
ROOT
HETATM    1  C   UNL     1     -46.443 -52.129  14.303  1.00  0.00     0.295 C 
HETATM    2  C   UNL     1     -45.958 -51.855  12.871  1.00  0.00     0.198 C 
HETATM    3  O   UNL     1     -45.718 -53.060  12.131  1.00  0.00    -0.376 OA
HETATM    4  C   UNL     1     -44.832 -53.971  12.817  1.00  0.00     0.206 C 
HETATM    5  C   UNL     1     -45.298 -54.228  14.269  1.00  0.00     0.308 C 
HETATM    6  N   UNL     1     -45.528 -52.999  15.062  1.00  0.00     0.088 N 
HETATM    7  H   UNL     1     -44.619 -52.520  15.118  1.00  0.00     0.316 HD
ENDROOT
BRANCH   4   8
HETATM    8  C   UNL     1     -43.411 -53.456  12.737  1.00  0.00     0.081 A 
HETATM    9  N   UNL     1     -42.949 -52.640  11.806  1.00  0.00    -0.361 N 
HETATM   10  C   UNL     1     -41.614 -52.373  12.036  1.00  0.00     0.096 A 
ATOM     11  HN  UNL     1     -43.496 -52.262  11.032  1.00  0.00     0.165 HD
HETATM   12  C   UNL     1     -41.068 -52.982  13.142  1.00  0.00     0.068 A 
HETATM   13  S   UNL     1     -42.255 -53.934  13.925  1.00  0.00    -0.085 SA
ENDBRANCH   4   8
TORSDOF 1
ENDMDL
MODEL 2
REMARK VINA RESULT:      -4.0      6.773      7.880
REMARK  1 active torsions:
REMARK  status: ('A' for Active; 'I' for Inactive)
REMARK    1  A    between atoms: C_4  and  C_7 
ROOT
HETATM    1  C   UNL     1     -41.794 -49.165  11.639  1.00  0.00     0.295 C 
HETATM    2  C   UNL     1     -42.073 -47.969  12.563  1.00  0.00     0.198 C 
HETATM    3  O   UNL     1     -43.078 -47.091  12.039  1.00  0.00    -0.376 OA
HETATM    4  C   UNL     1     -42.793 -46.655  10.693  1.00  0.00     0.206 C 
HETATM    5  C   UNL     1     -42.483 -47.852   9.763  1.00  0.00     0.308 C 
HETATM    6  N   UNL     1     -41.429 -48.759  10.271  1.00  0.00     0.088 N 
HETATM    7  H   UNL     1     -40.571 -48.196  10.333  1.00  0.00     0.316 HD
ENDROOT
BRANCH   4   8
HETATM    8  C   UNL     1     -41.686 -45.624  10.715  1.00  0.00     0.081 A 
HETATM    9  N   UNL     1     -40.534 -45.729  10.075  1.00  0.00    -0.361 N 
HETATM   10  C   UNL     1     -39.761 -44.611  10.313  1.00  0.00     0.096 A 
ATOM     11  HN  UNL     1     -40.258 -46.519   9.492  1.00  0.00     0.165 HD
HETATM   12  C   UNL     1     -40.327 -43.658  11.127  1.00  0.00     0.068 A 
HETATM   13  S   UNL     1     -41.881 -44.173  11.628  1.00  0.00    -0.085 SA
ENDBRANCH   4   8
TORSDOF 1
ENDMDL
MODEL 3
REMARK VINA RESULT:      -3.9      4.114      5.127
REMARK  1 active torsions:
REMARK  status: ('A' for Active; 'I' for Inactive)
REMARK    1  A    between atoms: C_4  and  C_7 
ROOT
HETATM    1  C   UNL     1     -40.769 -54.112  13.035  1.00  0.00     0.295 C 
HETATM    2  C   UNL     1     -40.257 -53.187  14.150  1.00  0.00     0.198 C 
HETATM    3  O   UNL     1     -41.032 -51.986  14.267  1.00  0.00    -0.376 OA
HETATM    4  C   UNL     1     -41.157 -51.277  13.016  1.00  0.00     0.206 C 
HETATM    5  C   UNL     1     -41.644 -52.209  11.882  1.00  0.00     0.308 C 
HETATM    6  N   UNL     1     -40.843 -53.444  11.724  1.00  0.00     0.088 N 
HETATM    7  H   UNL     1     -39.893 -53.141  11.476  1.00  0.00     0.316 HD
ENDROOT
BRANCH   4   8
HETATM    8  C   UNL     1     -39.851 -50.585  12.690  1.00  0.00     0.081 A 
HETATM    9  N   UNL     1     -39.252 -50.605  11.512  1.00  0.00    -0.361 N 
HETATM   10  C   UNL     1     -38.084 -49.871  11.567  1.00  0.00     0.096 A 
ATOM     11  HN  UNL     1     -39.601 -51.089  10.685  1.00  0.00     0.165 HD
HETATM   12  C   UNL     1     -37.800 -49.293  12.782  1.00  0.00     0.068 A 
HETATM   13  S   UNL     1     -39.028 -49.683  13.909  1.00  0.00    -0.085 SA
ENDBRANCH   4   8
TORSDOF 1
ENDMDL
MODEL 4
REMARK VINA RESULT:      -3.8      2.270      4.388
REMARK  1 active torsions:
REMARK  status: ('A' for Active; 'I' for Inactive)
REMARK    1  A    between atoms: C_4  and  C_7 
ROOT
HETATM    1  C   UNL     1     -42.351 -54.339  13.923  1.00  0.00     0.295 C 
HETATM    2  C   UNL     1     -43.280 -54.894  15.014  1.00  0.00     0.198 C 
HETATM    3  O   UNL     1     -44.491 -55.444  14.478  1.00  0.00    -0.376 OA
HETATM    4  C   UNL     1     -45.191 -54.521  13.617  1.00  0.00     0.206 C 
HETATM    5  C   UNL     1     -44.255 -53.934  12.534  1.00  0.00     0.308 C 
HETATM    6  N   UNL     1     -43.009 -53.337  13.066  1.00  0.00     0.088 N 
HETATM    7  H   UNL     1     -43.299 -52.556  13.668  1.00  0.00     0.316 HD
ENDROOT
BRANCH   4   8
HETATM    8  C   UNL     1     -45.864 -53.455  14.454  1.00  0.00     0.081 A 
HETATM    9  N   UNL     1     -46.201 -53.585  15.726  1.00  0.00    -0.361 N 
HETATM   10  C   UNL     1     -46.792 -52.422  16.176  1.00  0.00     0.096 A 
ATOM     11  HN  UNL     1     -46.046 -54.420  16.290  1.00  0.00     0.165 HD
HETATM   12  C   UNL     1     -46.898 -51.410  15.250  1.00  0.00     0.068 A 
HETATM   13  S   UNL     1     -46.248 -51.926  13.753  1.00  0.00    -0.085 SA
ENDBRANCH   4   8
TORSDOF 1
ENDMDL
MODEL 5
REMARK VINA RESULT:      -3.8      6.113      7.560
REMARK  1 active torsions:
REMARK  status: ('A' for Active; 'I' for Inactive)
REMARK    1  A    between atoms: C_4  and  C_7 
ROOT
HETATM    1  C   UNL     1     -39.439 -50.236  11.822  1.00  0.00     0.295 C 
HETATM    2  C   UNL     1     -39.171 -49.154  12.879  1.00  0.00     0.198 C 
HETATM    3  O   UNL     1     -40.375 -48.539  13.356  1.00  0.00    -0.376 OA
HETATM    4  C   UNL     1     -41.205 -48.032  12.288  1.00  0.00     0.206 C 
HETATM    5  C   UNL     1     -41.455 -49.107  11.205  1.00  0.00     0.308 C 
HETATM    6  N   UNL     1     -40.224 -49.739  10.679  1.00  0.00     0.088 N 
HETATM    7  H   UNL     1     -39.682 -48.986  10.235  1.00  0.00     0.316 HD
ENDROOT
BRANCH   4   8
HETATM    8  C   UNL     1     -40.596 -46.764  11.729  1.00  0.00     0.081 A 
HETATM    9  N   UNL     1     -40.405 -46.512  10.446  1.00  0.00    -0.361 N 
HETATM   10  C   UNL     1     -39.833 -45.266  10.292  1.00  0.00     0.096 A 
ATOM     11  HN  UNL     1     -40.646 -47.145   9.683  1.00  0.00     0.165 HD
HETATM   12  C   UNL     1     -39.595 -44.572  11.455  1.00  0.00     0.068 A 
HETATM   13  S   UNL     1     -40.093 -45.508  12.800  1.00  0.00    -0.085 SA
ENDBRANCH   4   8
TORSDOF 1
ENDMDL
MODEL 6
REMARK VINA RESULT:      -3.7      5.166      6.270
REMARK  1 active torsions:
REMARK  status: ('A' for Active; 'I' for Inactive)
REMARK    1  A    between atoms: C_4  and  C_7 
ROOT
HETATM    1  C   UNL     1     -42.353 -45.649  12.065  1.00  0.00     0.295 C 
HETATM    2  C   UNL     1     -40.940 -46.248  11.998  1.00  0.00     0.198 C 
HETATM    3  O   UNL     1     -40.672 -46.885  10.741  1.00  0.00    -0.376 OA
HETATM    4  C   UNL     1     -41.671 -47.864  10.386  1.00  0.00     0.206 C 
HETATM    5  C   UNL     1     -43.099 -47.277  10.480  1.00  0.00     0.308 C 
HETATM    6  N   UNL     1     -43.409 -46.636  11.779  1.00  0.00     0.088 N 
HETATM    7  H   UNL     1     -43.341 -47.377  12.488  1.00  0.00     0.316 HD
ENDROOT
BRANCH   4   8
HETATM    8  C   UNL     1     -41.489 -49.107  11.230  1.00  0.00     0.081 A 
HETATM    9  N   UNL     1     -42.469 -49.811  11.771  1.00  0.00    -0.361 N 
HETATM   10  C   UNL     1     -41.947 -50.879  12.473  1.00  0.00     0.096 A 
ATOM     11  HN  UNL     1     -43.462 -49.597  11.682  1.00  0.00     0.165 HD
HETATM   12  C   UNL     1     -40.576 -50.987  12.460  1.00  0.00     0.068 A 
HETATM   13  S   UNL     1     -39.902 -49.705  11.547  1.00  0.00    -0.085 SA
ENDBRANCH   4   8
TORSDOF 1
ENDMDL
MODEL 7
REMARK VINA RESULT:      -3.6      7.537      8.925
REMARK  1 active torsions:
REMARK  status: ('A' for Active; 'I' for Inactive)
REMARK    1  A    between atoms: C_4  and  C_7 
ROOT
HETATM    1  C   UNL     1     -40.225 -43.483  12.158  1.00  0.00     0.295 C 
HETATM    2  C   UNL     1     -40.771 -44.734  12.865  1.00  0.00     0.198 C 
HETATM    3  O   UNL     1     -40.119 -45.937  12.436  1.00  0.00    -0.376 OA
HETATM    4  C   UNL     1     -40.132 -46.101  11.002  1.00  0.00     0.206 C 
HETATM    5  C   UNL     1     -39.612 -44.834  10.282  1.00  0.00     0.308 C 
HETATM    6  N   UNL     1     -40.288 -43.582  10.689  1.00  0.00     0.088 N 
HETATM    7  H   UNL     1     -41.276 -43.691  10.428  1.00  0.00     0.316 HD
ENDROOT
BRANCH   4   8
HETATM    8  C   UNL     1     -41.518 -46.508  10.550  1.00  0.00     0.081 A 
HETATM    9  N   UNL     1     -42.142 -46.031   9.486  1.00  0.00    -0.361 N 
HETATM   10  C   UNL     1     -43.385 -46.620   9.369  1.00  0.00     0.096 A 
ATOM     11  HN  UNL     1     -41.762 -45.333   8.848  1.00  0.00     0.165 HD
HETATM   12  C   UNL     1     -43.700 -47.545  10.337  1.00  0.00     0.068 A 
HETATM   13  S   UNL     1     -42.405 -47.684  11.448  1.00  0.00    -0.085 SA
ENDBRANCH   4   8
TORSDOF 1
ENDMDL
MODEL 8
REMARK VINA RESULT:      -3.5      2.226      4.238
REMARK  1 active torsions:
REMARK  status: ('A' for Active; 'I' for Inactive)
REMARK    1  A    between atoms: C_4  and  C_7 
ROOT
HETATM    1  C   UNL     1     -40.294 -51.901  14.346  1.00  0.00     0.295 C 
HETATM    2  C   UNL     1     -41.145 -52.901  15.143  1.00  0.00     0.198 C 
HETATM    3  O   UNL     1     -41.216 -54.188  14.514  1.00  0.00    -0.376 OA
HETATM    4  C   UNL     1     -41.647 -54.116  13.139  1.00  0.00     0.206 C 
HETATM    5  C   UNL     1     -40.814 -53.089  12.337  1.00  0.00     0.308 C 
HETATM    6  N   UNL     1     -40.748 -51.744  12.953  1.00  0.00     0.088 N 
HETATM    7  H   UNL     1     -41.714 -51.393  12.979  1.00  0.00     0.316 HD
ENDROOT
BRANCH   4   8
HETATM    8  C   UNL     1     -43.134 -53.837  13.086  1.00  0.00     0.081 A 
HETATM    9  N   UNL     1     -43.733 -53.060  12.200  1.00  0.00    -0.361 N 
HETATM   10  C   UNL     1     -45.091 -53.032  12.442  1.00  0.00     0.096 A 
ATOM     11  HN  UNL     1     -43.261 -52.557  11.449  1.00  0.00     0.165 HD
HETATM   12  C   UNL     1     -45.522 -53.790  13.506  1.00  0.00     0.068 A 
HETATM   13  S   UNL     1     -44.186 -54.563  14.245  1.00  0.00    -0.085 SA
ENDBRANCH   4   8
TORSDOF 1
ENDMDL
MODEL 9
REMARK VINA RESULT:      -3.5      2.640      4.634
REMARK  1 active torsions:
REMARK  status: ('A' for Active; 'I' for Inactive)
REMARK    1  A    between atoms: C_4  and  C_7 
ROOT
HETATM    1  C   UNL     1     -40.824 -49.533  11.212  1.00  0.00     0.295 C 
HETATM    2  C   UNL     1     -41.831 -49.216  12.328  1.00  0.00     0.198 C 
HETATM    3  O   UNL     1     -41.541 -49.914  13.547  1.00  0.00    -0.376 OA
HETATM    4  C   UNL     1     -41.403 -51.339  13.357  1.00  0.00     0.206 C 
HETATM    5  C   UNL     1     -40.413 -51.665  12.215  1.00  0.00     0.308 C 
HETATM    6  N   UNL     1     -40.707 -50.976  10.938  1.00  0.00     0.088 N 
HETATM    7  H   UNL     1     -41.632 -51.311  10.638  1.00  0.00     0.316 HD
ENDROOT
BRANCH   4   8
HETATM    8  C   UNL     1     -42.768 -51.958  13.147  1.00  0.00     0.081 A 
HETATM    9  N   UNL     1     -43.083 -52.796  12.175  1.00  0.00    -0.361 N 
HETATM   10  C   UNL     1     -44.409 -53.164  12.284  1.00  0.00     0.096 A 
ATOM     11  HN  UNL     1     -42.442 -53.121  11.451  1.00  0.00     0.165 HD
HETATM   12  C   UNL     1     -45.096 -52.612  13.340  1.00  0.00     0.068 A 
HETATM   13  S   UNL     1     -44.058 -51.583  14.231  1.00  0.00    -0.085 SA
ENDBRANCH   4   8
TORSDOF 1
ENDMDL
