MODEL 1
REMARK VINA RESULT:      -5.9      0.000      0.000
REMARK  5 active torsions:
REMARK  status: ('A' for Active; 'I' for Inactive)
REMARK    1  A    between atoms: C_2  and  N_3 
REMARK    2  A    between atoms: C_2  and  C_17 
REMARK       I    between atoms: N_3  and  C_4 
REMARK       I    between atoms: C_4  and  N_6 
REMARK    3  A    between atoms: N_6  and  C_7 
REMARK    4  A    between atoms: N_11  and  C_12 
REMARK    5  A    between atoms: C_12  and  C_13 
REMARK       I    between atoms: C_13  and  N_15 
ROOT
HETATM    1  N   UNL     1     -42.578 -51.903  12.794  1.00  0.00    -0.336 N 
HETATM    2  C   UNL     1     -42.447 -50.533  12.698  1.00  0.00     0.321 C 
HETATM    3  O   UNL     1     -42.702 -49.783  13.633  1.00  0.00    -0.247 OA
HETATM    4  N   UNL     1     -41.952 -50.153  11.469  1.00  0.00    -0.306 N 
HETATM    5  H   UNL     1     -42.748 -52.410  11.936  1.00  0.00     0.164 HD
HETATM    6  H   UNL     1     -41.759 -50.867  10.785  1.00  0.00     0.171 HD
ENDROOT
BRANCH   4   7
HETATM    7  C   UNL     1     -41.616 -48.852  11.131  1.00  0.00     0.070 A 
HETATM    8  C   UNL     1     -42.209 -47.942  10.232  1.00  0.00     0.138 A 
HETATM    9  N   UNL     1     -41.581 -46.759  10.213  1.00  0.00    -0.307 N 
HETATM   10  N   UNL     1     -40.574 -46.913  11.101  1.00  0.00    -0.293 N 
ATOM     11  HN  UNL     1     -41.810 -45.934   9.657  1.00  0.00     0.186 HD
HETATM   12  C   UNL     1     -40.554 -48.160  11.667  1.00  0.00     0.141 A 
BRANCH  10  13
HETATM   13  C   UNL     1     -39.634 -45.817  11.260  1.00  0.00     0.250 C 
BRANCH  13  14
HETATM   14  C   UNL     1     -39.621 -44.836  10.112  1.00  0.00     0.235 C 
HETATM   15  O   UNL     1     -40.328 -43.835  10.057  1.00  0.00    -0.272 OA
HETATM   16  N   UNL     1     -38.721 -45.083   9.114  1.00  0.00    -0.369 N 
HETATM   17  H   UNL     1     -38.189 -45.941   9.040  1.00  0.00     0.159 HD
HETATM   18  H   UNL     1     -38.707 -44.445   8.326  1.00  0.00     0.159 HD
ENDBRANCH  13  14
ENDBRANCH  10  13
ENDBRANCH   4   7
BRANCH   1  19
HETATM   19  C   UNL     1     -43.070 -52.541  14.021  1.00  0.00     0.111 C 
HETATM   20  C   UNL     1     -42.335 -53.871  14.203  1.00  0.00     0.035 C 
BRANCH  19  21
HETATM   21  C   UNL     1     -44.608 -52.707  14.005  1.00  0.00     0.143 C 
HETATM   22  C   UNL     1     -45.214 -52.803  12.605  1.00  0.00     0.036 C 
HETATM   23  C   UNL     1     -46.432 -51.905  12.635  1.00  0.00     0.029 C 
HETATM   24  C   UNL     1     -46.561 -51.478  14.079  1.00  0.00     0.168 C 
HETATM   25  O   UNL     1     -45.250 -51.584  14.642  1.00  0.00    -0.384 OA
ENDBRANCH  19  21
ENDBRANCH   1  19
TORSDOF 5
ENDMDL
MODEL 2
REMARK VINA RESULT:      -5.7      1.087      1.259
REMARK  5 active torsions:
REMARK  status: ('A' for Active; 'I' for Inactive)
REMARK    1  A    between atoms: C_2  and  N_3 
REMARK    2  A    between atoms: C_2  and  C_17 
REMARK       I    between atoms: N_3  and  C_4 
REMARK       I    between atoms: C_4  and  N_6 
REMARK    3  A    between atoms: N_6  and  C_7 
REMARK    4  A    between atoms: N_11  and  C_12 
REMARK    5  A    between atoms: C_12  and  C_13 
REMARK       I    between atoms: C_13  and  N_15 
ROOT
HETATM    1  N   UNL     1     -42.251 -52.107  12.641  1.00  0.00    -0.336 N 
HETATM    2  C   UNL     1     -42.281 -50.732  12.541  1.00  0.00     0.321 C 
HETATM    3  O   UNL     1     -42.794 -50.022  13.398  1.00  0.00    -0.247 OA
HETATM    4  N   UNL     1     -41.625 -50.289  11.412  1.00  0.00    -0.306 N 
HETATM    5  H   UNL     1     -42.199 -52.630  11.778  1.00  0.00     0.164 HD
HETATM    6  H   UNL     1     -41.222 -50.971  10.789  1.00  0.00     0.171 HD
ENDROOT
BRANCH   4   7
HETATM    7  C   UNL     1     -41.402 -48.955  11.112  1.00  0.00     0.070 A 
HETATM    8  C   UNL     1     -42.093 -48.064  10.265  1.00  0.00     0.138 A 
HETATM    9  N   UNL     1     -41.559 -46.836  10.269  1.00  0.00    -0.307 N 
HETATM   10  N   UNL     1     -40.514 -46.941  11.120  1.00  0.00    -0.293 N 
ATOM     11  HN  UNL     1     -41.869 -46.013   9.751  1.00  0.00     0.186 HD
HETATM   12  C   UNL     1     -40.378 -48.201  11.639  1.00  0.00     0.141 A 
BRANCH  10  13
HETATM   13  C   UNL     1     -39.656 -45.780  11.289  1.00  0.00     0.250 C 
BRANCH  13  14
HETATM   14  C   UNL     1     -39.779 -44.750  10.193  1.00  0.00     0.235 C 
HETATM   15  O   UNL     1     -40.585 -43.825  10.208  1.00  0.00    -0.272 OA
HETATM   16  N   UNL     1     -38.891 -44.854   9.160  1.00  0.00    -0.369 N 
HETATM   17  H   UNL     1     -38.277 -45.649   9.028  1.00  0.00     0.159 HD
HETATM   18  H   UNL     1     -38.966 -44.182   8.406  1.00  0.00     0.159 HD
ENDBRANCH  13  14
ENDBRANCH  10  13
ENDBRANCH   4   7
BRANCH   1  19
HETATM   19  C   UNL     1     -42.872 -52.805  13.774  1.00  0.00     0.111 C 
HETATM   20  C   UNL     1     -41.902 -53.880  14.270  1.00  0.00     0.035 C 
BRANCH  19  21
HETATM   21  C   UNL     1     -44.260 -53.380  13.405  1.00  0.00     0.143 C 
HETATM   22  C   UNL     1     -45.436 -52.505  13.837  1.00  0.00     0.036 C 
HETATM   23  C   UNL     1     -46.443 -53.460  14.441  1.00  0.00     0.029 C 
HETATM   24  C   UNL     1     -45.878 -54.836  14.175  1.00  0.00     0.168 C 
HETATM   25  O   UNL     1     -44.465 -54.663  14.031  1.00  0.00    -0.384 OA
ENDBRANCH  19  21
ENDBRANCH   1  19
TORSDOF 5
ENDMDL
MODEL 3
REMARK VINA RESULT:      -5.7      1.106      1.296
REMARK  5 active torsions:
REMARK  status: ('A' for Active; 'I' for Inactive)
REMARK    1  A    between atoms: C_2  and  N_3 
REMARK    2  A    between atoms: C_2  and  C_17 
REMARK       I    between atoms: N_3  and  C_4 
REMARK       I    between atoms: C_4  and  N_6 
REMARK    3  A    between atoms: N_6  and  C_7 
REMARK    4  A    between atoms: N_11  and  C_12 
REMARK    5  A    between atoms: C_12  and  C_13 
REMARK       I    between atoms: C_13  and  N_15 
ROOT
HETATM    1  N   UNL     1     -42.762 -51.543  12.635  1.00  0.00    -0.336 N 
HETATM    2  C   UNL     1     -42.634 -50.173  12.541  1.00  0.00     0.321 C 
HETATM    3  O   UNL     1     -43.010 -49.416  13.429  1.00  0.00    -0.247 OA
HETATM    4  N   UNL     1     -41.995 -49.799  11.378  1.00  0.00    -0.306 N 
HETATM    5  H   UNL     1     -42.821 -52.060  11.769  1.00  0.00     0.164 HD
HETATM    6  H   UNL     1     -41.713 -50.518  10.731  1.00  0.00     0.171 HD
ENDROOT
BRANCH   4   7
HETATM    7  C   UNL     1     -41.634 -48.498  11.069  1.00  0.00     0.070 A 
HETATM    8  C   UNL     1     -42.112 -47.608  10.087  1.00  0.00     0.138 A 
HETATM    9  N   UNL     1     -41.502 -46.416  10.134  1.00  0.00    -0.307 N 
HETATM   10  N   UNL     1     -40.621 -46.546  11.150  1.00  0.00    -0.293 N 
ATOM     11  HN  UNL     1     -41.665 -45.602   9.541  1.00  0.00     0.186 HD
HETATM   12  C   UNL     1     -40.660 -47.785  11.731  1.00  0.00     0.141 A 
BRANCH  10  13
HETATM   13  C   UNL     1     -39.723 -45.434  11.417  1.00  0.00     0.250 C 
BRANCH  13  14
HETATM   14  C   UNL     1     -39.817 -44.305  10.419  1.00  0.00     0.235 C 
HETATM   15  O   UNL     1     -39.450 -44.388   9.252  1.00  0.00    -0.272 OA
HETATM   16  N   UNL     1     -40.399 -43.151  10.864  1.00  0.00    -0.369 N 
HETATM   17  H   UNL     1     -40.623 -42.976  11.836  1.00  0.00     0.159 HD
HETATM   18  H   UNL     1     -40.459 -42.375  10.215  1.00  0.00     0.159 HD
ENDBRANCH  13  14
ENDBRANCH  10  13
ENDBRANCH   4   7
BRANCH   1  19
HETATM   19  C   UNL     1     -43.395 -52.174  13.800  1.00  0.00     0.111 C 
HETATM   20  C   UNL     1     -42.681 -53.498  14.080  1.00  0.00     0.035 C 
BRANCH  19  21
HETATM   21  C   UNL     1     -44.919 -52.350  13.601  1.00  0.00     0.143 C 
HETATM   22  C   UNL     1     -45.766 -51.256  14.251  1.00  0.00     0.036 C 
HETATM   23  C   UNL     1     -46.902 -51.985  14.935  1.00  0.00     0.029 C 
HETATM   24  C   UNL     1     -46.750 -53.425  14.507  1.00  0.00     0.168 C 
HETATM   25  O   UNL     1     -45.369 -53.595  14.172  1.00  0.00    -0.384 OA
ENDBRANCH  19  21
ENDBRANCH   1  19
TORSDOF 5
ENDMDL
MODEL 4
REMARK VINA RESULT:      -5.5      3.357      7.347
REMARK  5 active torsions:
REMARK  status: ('A' for Active; 'I' for Inactive)
REMARK    1  A    between atoms: C_2  and  N_3 
REMARK    2  A    between atoms: C_2  and  C_17 
REMARK       I    between atoms: N_3  and  C_4 
REMARK       I    between atoms: C_4  and  N_6 
REMARK    3  A    between atoms: N_6  and  C_7 
REMARK    4  A    between atoms: N_11  and  C_12 
REMARK    5  A    between atoms: C_12  and  C_13 
REMARK       I    between atoms: C_13  and  N_15 
ROOT
HETATM    1  N   UNL     1     -42.841 -49.177  11.491  1.00  0.00    -0.336 N 
HETATM    2  C   UNL     1     -41.912 -50.046  12.023  1.00  0.00     0.321 C 
HETATM    3  O   UNL     1     -40.807 -49.673  12.402  1.00  0.00    -0.247 OA
HETATM    4  N   UNL     1     -42.408 -51.329  12.117  1.00  0.00    -0.306 N 
HETATM    5  H   UNL     1     -43.522 -49.565  10.853  1.00  0.00     0.164 HD
HETATM    6  H   UNL     1     -43.344 -51.508  11.790  1.00  0.00     0.171 HD
ENDROOT
BRANCH   4   7
HETATM    7  C   UNL     1     -41.737 -52.383  12.713  1.00  0.00     0.070 A 
HETATM    8  C   UNL     1     -40.786 -53.289  12.201  1.00  0.00     0.138 A 
HETATM    9  N   UNL     1     -40.360 -54.161  13.124  1.00  0.00    -0.307 N 
HETATM   10  N   UNL     1     -41.046 -53.815  14.235  1.00  0.00    -0.293 N 
ATOM     11  HN  UNL     1     -39.676 -54.910  13.014  1.00  0.00     0.186 HD
HETATM   12  C   UNL     1     -41.893 -52.759  14.028  1.00  0.00     0.141 A 
BRANCH  10  13
HETATM   13  C   UNL     1     -40.873 -54.634  15.424  1.00  0.00     0.250 C 
BRANCH  13  14
HETATM   14  C   UNL     1     -39.434 -54.930  15.771  1.00  0.00     0.235 C 
HETATM   15  O   UNL     1     -38.722 -55.706  15.142  1.00  0.00    -0.272 OA
HETATM   16  N   UNL     1     -38.909 -54.237  16.825  1.00  0.00    -0.369 N 
HETATM   17  H   UNL     1     -39.465 -53.668  17.452  1.00  0.00     0.159 HD
HETATM   18  H   UNL     1     -37.949 -54.432  17.084  1.00  0.00     0.159 HD
ENDBRANCH  13  14
ENDBRANCH  10  13
ENDBRANCH   4   7
BRANCH   1  19
HETATM   19  C   UNL     1     -42.542 -47.750  11.313  1.00  0.00     0.111 C 
HETATM   20  C   UNL     1     -43.038 -46.994  12.547  1.00  0.00     0.035 C 
BRANCH  19  21
HETATM   21  C   UNL     1     -43.138 -47.198   9.996  1.00  0.00     0.143 C 
HETATM   22  C   UNL     1     -44.661 -47.295   9.908  1.00  0.00     0.036 C 
HETATM   23  C   UNL     1     -44.947 -47.808   8.514  1.00  0.00     0.029 C 
HETATM   24  C   UNL     1     -43.604 -47.817   7.822  1.00  0.00     0.168 C 
HETATM   25  O   UNL     1     -42.625 -47.921   8.859  1.00  0.00    -0.384 OA
ENDBRANCH  19  21
ENDBRANCH   1  19
TORSDOF 5
ENDMDL
MODEL 5
REMARK VINA RESULT:      -5.2      2.338      2.925
REMARK  5 active torsions:
REMARK  status: ('A' for Active; 'I' for Inactive)
REMARK    1  A    between atoms: C_2  and  N_3 
REMARK    2  A    between atoms: C_2  and  C_17 
REMARK       I    between atoms: N_3  and  C_4 
REMARK       I    between atoms: C_4  and  N_6 
REMARK    3  A    between atoms: N_6  and  C_7 
REMARK    4  A    between atoms: N_11  and  C_12 
REMARK    5  A    between atoms: C_12  and  C_13 
REMARK       I    between atoms: C_13  and  N_15 
ROOT
HETATM    1  N   UNL     1     -40.401 -52.696  12.885  1.00  0.00    -0.336 N 
HETATM    2  C   UNL     1     -40.582 -51.329  12.895  1.00  0.00     0.321 C 
HETATM    3  O   UNL     1     -40.752 -50.697  13.931  1.00  0.00    -0.247 OA
HETATM    4  N   UNL     1     -40.489 -50.793  11.628  1.00  0.00    -0.306 N 
HETATM    5  H   UNL     1     -40.667 -53.189  12.044  1.00  0.00     0.164 HD
HETATM    6  H   UNL     1     -40.325 -51.415  10.852  1.00  0.00     0.171 HD
ENDROOT
BRANCH   4   7
HETATM    7  C   UNL     1     -40.520 -49.437  11.350  1.00  0.00     0.070 A 
HETATM    8  C   UNL     1     -39.535 -48.437  11.485  1.00  0.00     0.138 A 
HETATM    9  N   UNL     1     -39.965 -47.235  11.080  1.00  0.00    -0.307 N 
HETATM   10  N   UNL     1     -41.238 -47.464  10.688  1.00  0.00    -0.293 N 
ATOM     11  HN  UNL     1     -39.452 -46.353  11.069  1.00  0.00     0.186 HD
HETATM   12  C   UNL     1     -41.614 -48.772  10.844  1.00  0.00     0.141 A 
BRANCH  10  13
HETATM   13  C   UNL     1     -42.033 -46.325  10.260  1.00  0.00     0.250 C 
BRANCH  13  14
HETATM   14  C   UNL     1     -43.189 -46.678   9.355  1.00  0.00     0.235 C 
HETATM   15  O   UNL     1     -44.317 -46.943   9.755  1.00  0.00    -0.272 OA
HETATM   16  N   UNL     1     -42.939 -46.642   8.012  1.00  0.00    -0.369 N 
HETATM   17  H   UNL     1     -42.012 -46.541   7.617  1.00  0.00     0.159 HD
HETATM   18  H   UNL     1     -43.697 -46.891   7.386  1.00  0.00     0.159 HD
ENDBRANCH  13  14
ENDBRANCH  10  13
ENDBRANCH   4   7
BRANCH   1  19
HETATM   19  C   UNL     1     -40.440 -53.482  14.124  1.00  0.00     0.111 C 
HETATM   20  C   UNL     1     -39.366 -54.570  14.041  1.00  0.00     0.035 C 
BRANCH  19  21
HETATM   21  C   UNL     1     -41.850 -54.057  14.398  1.00  0.00     0.143 C 
HETATM   22  C   UNL     1     -42.731 -54.173  13.154  1.00  0.00     0.036 C 
HETATM   23  C   UNL     1     -44.086 -53.647  13.574  1.00  0.00     0.029 C 
HETATM   24  C   UNL     1     -43.966 -53.417  15.063  1.00  0.00     0.168 C 
HETATM   25  O   UNL     1     -42.573 -53.219  15.322  1.00  0.00    -0.384 OA
ENDBRANCH  19  21
ENDBRANCH   1  19
TORSDOF 5
ENDMDL
MODEL 6
REMARK VINA RESULT:      -5.1     18.692     21.259
REMARK  5 active torsions:
REMARK  status: ('A' for Active; 'I' for Inactive)
REMARK    1  A    between atoms: C_2  and  N_3 
REMARK    2  A    between atoms: C_2  and  C_17 
REMARK       I    between atoms: N_3  and  C_4 
REMARK       I    between atoms: C_4  and  N_6 
REMARK    3  A    between atoms: N_6  and  C_7 
REMARK    4  A    between atoms: N_11  and  C_12 
REMARK    5  A    between atoms: C_12  and  C_13 
REMARK       I    between atoms: C_13  and  N_15 
ROOT
HETATM    1  N   UNL     1     -26.689 -44.189  -0.327  1.00  0.00    -0.336 N 
HETATM    2  C   UNL     1     -27.442 -44.406  -1.462  1.00  0.00     0.321 C 
HETATM    3  O   UNL     1     -27.198 -43.851  -2.528  1.00  0.00    -0.247 OA
HETATM    4  N   UNL     1     -28.430 -45.343  -1.247  1.00  0.00    -0.306 N 
HETATM    5  H   UNL     1     -27.146 -44.331   0.562  1.00  0.00     0.164 HD
HETATM    6  H   UNL     1     -28.519 -45.747  -0.328  1.00  0.00     0.171 HD
ENDROOT
BRANCH   4   7
HETATM    7  C   UNL     1     -29.264 -45.838  -2.235  1.00  0.00     0.070 A 
HETATM    8  C   UNL     1     -28.985 -46.566  -3.410  1.00  0.00     0.138 A 
HETATM    9  N   UNL     1     -30.093 -46.877  -4.096  1.00  0.00    -0.307 N 
HETATM   10  N   UNL     1     -31.090 -46.339  -3.359  1.00  0.00    -0.293 N 
ATOM     11  HN  UNL     1     -30.167 -47.398  -4.970  1.00  0.00     0.186 HD
HETATM   12  C   UNL     1     -30.633 -45.697  -2.238  1.00  0.00     0.141 A 
BRANCH  10  13
HETATM   13  C   UNL     1     -32.444 -46.428  -3.878  1.00  0.00     0.250 C 
BRANCH  13  14
HETATM   14  C   UNL     1     -33.114 -47.760  -3.642  1.00  0.00     0.235 C 
HETATM   15  O   UNL     1     -32.625 -48.666  -2.975  1.00  0.00    -0.272 OA
HETATM   16  N   UNL     1     -34.362 -47.914  -4.177  1.00  0.00    -0.369 N 
HETATM   17  H   UNL     1     -34.778 -47.257  -4.826  1.00  0.00     0.159 HD
HETATM   18  H   UNL     1     -34.824 -48.807  -4.044  1.00  0.00     0.159 HD
ENDBRANCH  13  14
ENDBRANCH  10  13
ENDBRANCH   4   7
BRANCH   1  19
HETATM   19  C   UNL     1     -25.565 -43.243  -0.323  1.00  0.00     0.111 C 
HETATM   20  C   UNL     1     -24.329 -43.963   0.222  1.00  0.00     0.035 C 
BRANCH  19  21
HETATM   21  C   UNL     1     -25.901 -41.955   0.464  1.00  0.00     0.143 C 
HETATM   22  C   UNL     1     -24.777 -40.919   0.479  1.00  0.00     0.036 C 
HETATM   23  C   UNL     1     -24.698 -40.436   1.912  1.00  0.00     0.029 C 
HETATM   24  C   UNL     1     -25.876 -41.083   2.602  1.00  0.00     0.168 C 
HETATM   25  O   UNL     1     -26.182 -42.258   1.846  1.00  0.00    -0.384 OA
ENDBRANCH  19  21
ENDBRANCH   1  19
TORSDOF 5
ENDMDL
MODEL 7
REMARK VINA RESULT:      -5.1      3.541      4.285
REMARK  5 active torsions:
REMARK  status: ('A' for Active; 'I' for Inactive)
REMARK    1  A    between atoms: C_2  and  N_3 
REMARK    2  A    between atoms: C_2  and  C_17 
REMARK       I    between atoms: N_3  and  C_4 
REMARK       I    between atoms: C_4  and  N_6 
REMARK    3  A    between atoms: N_6  and  C_7 
REMARK    4  A    between atoms: N_11  and  C_12 
REMARK    5  A    between atoms: C_12  and  C_13 
REMARK       I    between atoms: C_13  and  N_15 
ROOT
HETATM    1  N   UNL     1     -44.888 -52.286  14.890  1.00  0.00    -0.336 N 
HETATM    2  C   UNL     1     -43.600 -52.354  14.399  1.00  0.00     0.321 C 
HETATM    3  O   UNL     1     -42.866 -53.313  14.612  1.00  0.00    -0.247 OA
HETATM    4  N   UNL     1     -43.293 -51.260  13.619  1.00  0.00    -0.306 N 
HETATM    5  H   UNL     1     -45.277 -51.366  15.033  1.00  0.00     0.164 HD
HETATM    6  H   UNL     1     -43.991 -50.543  13.499  1.00  0.00     0.171 HD
ENDROOT
BRANCH   4   7
HETATM    7  C   UNL     1     -42.113 -51.113  12.909  1.00  0.00     0.070 A 
HETATM    8  C   UNL     1     -41.553 -51.880  11.867  1.00  0.00     0.138 A 
HETATM    9  N   UNL     1     -40.388 -51.382  11.433  1.00  0.00    -0.307 N 
HETATM   10  N   UNL     1     -40.196 -50.291  12.206  1.00  0.00    -0.293 N 
ATOM     11  HN  UNL     1     -39.787 -51.742  10.691  1.00  0.00     0.186 HD
HETATM   12  C   UNL     1     -41.205 -50.100  13.113  1.00  0.00     0.141 A 
BRANCH  10  13
HETATM   13  C   UNL     1     -38.956 -49.551  12.043  1.00  0.00     0.250 C 
BRANCH  13  14
HETATM   14  C   UNL     1     -37.798 -50.381  11.542  1.00  0.00     0.235 C 
HETATM   15  O   UNL     1     -37.340 -51.350  12.139  1.00  0.00    -0.272 OA
HETATM   16  N   UNL     1     -37.287 -50.035  10.324  1.00  0.00    -0.369 N 
HETATM   17  H   UNL     1     -37.540 -49.187   9.831  1.00  0.00     0.159 HD
HETATM   18  H   UNL     1     -36.499 -50.569   9.976  1.00  0.00     0.159 HD
ENDBRANCH  13  14
ENDBRANCH  10  13
ENDBRANCH   4   7
BRANCH   1  19
HETATM   19  C   UNL     1     -45.442 -53.353  15.733  1.00  0.00     0.111 C 
HETATM   20  C   UNL     1     -46.073 -54.410  14.824  1.00  0.00     0.035 C 
BRANCH  19  21
HETATM   21  C   UNL     1     -46.437 -52.798  16.781  1.00  0.00     0.143 C 
HETATM   22  C   UNL     1     -47.348 -51.690  16.255  1.00  0.00     0.036 C 
HETATM   23  C   UNL     1     -47.352 -50.630  17.335  1.00  0.00     0.029 C 
HETATM   24  C   UNL     1     -46.591 -51.249  18.485  1.00  0.00     0.168 C 
HETATM   25  O   UNL     1     -45.732 -52.236  17.906  1.00  0.00    -0.384 OA
ENDBRANCH  19  21
ENDBRANCH   1  19
TORSDOF 5
ENDMDL
MODEL 8
REMARK VINA RESULT:      -5.0      1.861      2.181
REMARK  5 active torsions:
REMARK  status: ('A' for Active; 'I' for Inactive)
REMARK    1  A    between atoms: C_2  and  N_3 
REMARK    2  A    between atoms: C_2  and  C_17 
REMARK       I    between atoms: N_3  and  C_4 
REMARK       I    between atoms: C_4  and  N_6 
REMARK    3  A    between atoms: N_6  and  C_7 
REMARK    4  A    between atoms: N_11  and  C_12 
REMARK    5  A    between atoms: C_12  and  C_13 
REMARK       I    between atoms: C_13  and  N_15 
ROOT
HETATM    1  N   UNL     1     -44.195 -51.315  12.712  1.00  0.00    -0.336 N 
HETATM    2  C   UNL     1     -43.100 -50.476  12.732  1.00  0.00     0.321 C 
HETATM    3  O   UNL     1     -42.094 -50.725  13.388  1.00  0.00    -0.247 OA
HETATM    4  N   UNL     1     -43.271 -49.394  11.895  1.00  0.00    -0.306 N 
HETATM    5  H   UNL     1     -45.091 -50.896  12.510  1.00  0.00     0.164 HD
HETATM    6  H   UNL     1     -44.138 -49.310  11.388  1.00  0.00     0.171 HD
ENDROOT
BRANCH   4   7
HETATM    7  C   UNL     1     -42.294 -48.449  11.631  1.00  0.00     0.070 A 
HETATM    8  C   UNL     1     -41.144 -48.503  10.817  1.00  0.00     0.138 A 
HETATM    9  N   UNL     1     -40.461 -47.350  10.818  1.00  0.00    -0.307 N 
HETATM   10  N   UNL     1     -41.176 -46.553  11.643  1.00  0.00    -0.293 N 
ATOM     11  HN  UNL     1     -39.603 -47.126  10.313  1.00  0.00     0.186 HD
HETATM   12  C   UNL     1     -42.279 -47.179  12.161  1.00  0.00     0.141 A 
BRANCH  10  13
HETATM   13  C   UNL     1     -40.651 -45.229  11.932  1.00  0.00     0.250 C 
BRANCH  13  14
HETATM   14  C   UNL     1     -39.581 -45.202  12.997  1.00  0.00     0.235 C 
HETATM   15  O   UNL     1     -39.402 -46.101  13.812  1.00  0.00    -0.272 OA
HETATM   16  N   UNL     1     -38.748 -44.120  12.992  1.00  0.00    -0.369 N 
HETATM   17  H   UNL     1     -38.904 -43.296  12.424  1.00  0.00     0.159 HD
HETATM   18  H   UNL     1     -38.032 -44.074  13.708  1.00  0.00     0.159 HD
ENDBRANCH  13  14
ENDBRANCH  10  13
ENDBRANCH   4   7
BRANCH   1  19
HETATM   19  C   UNL     1     -44.231 -52.545  13.513  1.00  0.00     0.111 C 
HETATM   20  C   UNL     1     -43.926 -53.730  12.595  1.00  0.00     0.035 C 
BRANCH  19  21
HETATM   21  C   UNL     1     -45.575 -52.703  14.263  1.00  0.00     0.143 C 
HETATM   22  C   UNL     1     -46.492 -51.483  14.170  1.00  0.00     0.036 C 
HETATM   23  C   UNL     1     -47.016 -51.270  15.574  1.00  0.00     0.029 C 
HETATM   24  C   UNL     1     -46.518 -52.463  16.357  1.00  0.00     0.168 C 
HETATM   25  O   UNL     1     -45.353 -52.929  15.670  1.00  0.00    -0.384 OA
ENDBRANCH  19  21
ENDBRANCH   1  19
TORSDOF 5
ENDMDL
MODEL 9
REMARK VINA RESULT:      -4.9      2.528      7.822
REMARK  5 active torsions:
REMARK  status: ('A' for Active; 'I' for Inactive)
REMARK    1  A    between atoms: C_2  and  N_3 
REMARK    2  A    between atoms: C_2  and  C_17 
REMARK       I    between atoms: N_3  and  C_4 
REMARK       I    between atoms: C_4  and  N_6 
REMARK    3  A    between atoms: N_6  and  C_7 
REMARK    4  A    between atoms: N_11  and  C_12 
REMARK    5  A    between atoms: C_12  and  C_13 
REMARK       I    between atoms: C_13  and  N_15 
ROOT
HETATM    1  N   UNL     1     -40.689 -46.397  11.450  1.00  0.00    -0.336 N 
HETATM    2  C   UNL     1     -41.198 -47.643  11.148  1.00  0.00     0.321 C 
HETATM    3  O   UNL     1     -41.788 -47.875  10.099  1.00  0.00    -0.247 OA
HETATM    4  N   UNL     1     -40.907 -48.565  12.131  1.00  0.00    -0.306 N 
HETATM    5  H   UNL     1     -40.592 -46.166  12.429  1.00  0.00     0.164 HD
HETATM    6  H   UNL     1     -40.395 -48.259  12.942  1.00  0.00     0.171 HD
ENDROOT
BRANCH   4   7
HETATM    7  C   UNL     1     -41.197 -49.916  12.044  1.00  0.00     0.070 A 
HETATM    8  C   UNL     1     -40.491 -50.983  11.451  1.00  0.00     0.138 A 
HETATM    9  N   UNL     1     -41.113 -52.159  11.607  1.00  0.00    -0.307 N 
HETATM   10  N   UNL     1     -42.229 -51.844  12.300  1.00  0.00    -0.293 N 
ATOM     11  HN  UNL     1     -40.813 -53.078  11.280  1.00  0.00     0.186 HD
HETATM   12  C   UNL     1     -42.323 -50.505  12.574  1.00  0.00     0.141 A 
BRANCH  10  13
HETATM   13  C   UNL     1     -43.185 -52.905  12.570  1.00  0.00     0.250 C 
BRANCH  13  14
HETATM   14  C   UNL     1     -42.671 -53.986  13.491  1.00  0.00     0.235 C 
HETATM   15  O   UNL     1     -41.482 -54.243  13.650  1.00  0.00    -0.272 OA
HETATM   16  N   UNL     1     -43.611 -54.665  14.213  1.00  0.00    -0.369 N 
HETATM   17  H   UNL     1     -44.608 -54.582  14.052  1.00  0.00     0.159 HD
HETATM   18  H   UNL     1     -43.289 -55.405  14.826  1.00  0.00     0.159 HD
ENDBRANCH  13  14
ENDBRANCH  10  13
ENDBRANCH   4   7
BRANCH   1  19
HETATM   19  C   UNL     1     -40.860 -45.259  10.539  1.00  0.00     0.111 C 
HETATM   20  C   UNL     1     -39.487 -44.873   9.985  1.00  0.00     0.035 C 
BRANCH  19  21
HETATM   21  C   UNL     1     -41.580 -44.075  11.226  1.00  0.00     0.143 C 
HETATM   22  C   UNL     1     -40.642 -43.096  11.932  1.00  0.00     0.036 C 
HETATM   23  C   UNL     1     -41.293 -42.812  13.268  1.00  0.00     0.029 C 
HETATM   24  C   UNL     1     -42.638 -43.498  13.195  1.00  0.00     0.168 C 
HETATM   25  O   UNL     1     -42.495 -44.549  12.235  1.00  0.00    -0.384 OA
ENDBRANCH  19  21
ENDBRANCH   1  19
TORSDOF 5
ENDMDL
