MODEL 1
REMARK VINA RESULT:      -6.0      0.000      0.000
REMARK  7 active torsions:
REMARK  status: ('A' for Active; 'I' for Inactive)
REMARK    1  A    between atoms: C_2  and  C_5 
REMARK    2  A    between atoms: C_8  and  C_9 
REMARK    3  A    between atoms: C_9  and  C_10 
REMARK    4  A    between atoms: C_10  and  N_11 
REMARK    5  A    between atoms: N_11  and  C_12 
REMARK    6  A    between atoms: C_12  and  C_13 
REMARK    7  A    between atoms: C_12  and  C_16 
ROOT
HETATM    1  C   UNL     1     -42.379 -47.730  11.593  1.00  0.00     0.095 C 
ENDROOT
BRANCH   1   2
HETATM    2  C   UNL     1     -43.419 -47.415  10.559  1.00  0.00     0.052 A 
HETATM    3  S   UNL     1     -43.286 -46.001   9.589  1.00  0.00    -0.086 SA
HETATM    4  C   UNL     1     -44.767 -46.394   8.826  1.00  0.00     0.085 A 
HETATM    5  C   UNL     1     -45.280 -47.575   9.334  1.00  0.00     0.123 A 
HETATM    6  N   UNL     1     -44.486 -48.150  10.335  1.00  0.00    -0.350 N 
ATOM      7  HN  UNL     1     -44.705 -49.019  10.823  1.00  0.00     0.166 HD
BRANCH   5   8
HETATM    8  C   UNL     1     -46.561 -48.229   8.908  1.00  0.00     0.433 C 
HETATM    9  F   UNL     1     -46.861 -49.310   9.680  1.00  0.00    -0.165 F 
HETATM   10  F   UNL     1     -46.514 -48.677   7.627  1.00  0.00    -0.165 F 
HETATM   11  F   UNL     1     -47.624 -47.389   9.000  1.00  0.00    -0.165 F 
ENDBRANCH   5   8
ENDBRANCH   1   2
BRANCH   1  12
HETATM   12  C   UNL     1     -41.028 -48.005  10.922  1.00  0.00     0.276 C 
BRANCH  12  13
HETATM   13  N   UNL     1     -40.782 -49.445  10.773  1.00  0.00     0.089 N 
HETATM   14  H   UNL     1     -40.254 -49.633   9.925  1.00  0.00     0.316 HD
BRANCH  13  15
HETATM   15  C   UNL     1     -40.070 -50.020  11.923  1.00  0.00     0.228 C 
BRANCH  15  16
HETATM   16  C   UNL     1     -40.540 -51.451  12.055  1.00  0.00     0.019 A 
HETATM   17  C   UNL     1     -42.005 -51.774  12.249  1.00  0.00     0.007 A 
HETATM   18  C   UNL     1     -41.042 -51.970  13.384  1.00  0.00     0.007 A 
ENDBRANCH  15  16
BRANCH  15  19
HETATM   19  C   UNL     1     -38.580 -49.951  11.685  1.00  0.00     0.019 A 
HETATM   20  C   UNL     1     -37.584 -50.764  12.474  1.00  0.00     0.007 A 
HETATM   21  C   UNL     1     -37.703 -49.289  12.728  1.00  0.00     0.007 A 
ENDBRANCH  15  19
ENDBRANCH  13  15
ENDBRANCH  12  13
ENDBRANCH   1  12
TORSDOF 7
ENDMDL
MODEL 2
REMARK VINA RESULT:      -5.8      0.618      2.218
REMARK  7 active torsions:
REMARK  status: ('A' for Active; 'I' for Inactive)
REMARK    1  A    between atoms: C_2  and  C_5 
REMARK    2  A    between atoms: C_8  and  C_9 
REMARK    3  A    between atoms: C_9  and  C_10 
REMARK    4  A    between atoms: C_10  and  N_11 
REMARK    5  A    between atoms: N_11  and  C_12 
REMARK    6  A    between atoms: C_12  and  C_13 
REMARK    7  A    between atoms: C_12  and  C_16 
ROOT
HETATM    1  C   UNL     1     -42.188 -47.642  11.475  1.00  0.00     0.095 C 
ENDROOT
BRANCH   1   2
HETATM    2  C   UNL     1     -43.276 -47.314  10.496  1.00  0.00     0.052 A 
HETATM    3  S   UNL     1     -43.220 -45.858   9.582  1.00  0.00    -0.086 SA
HETATM    4  C   UNL     1     -44.720 -46.262   8.862  1.00  0.00     0.085 A 
HETATM    5  C   UNL     1     -45.181 -47.476   9.339  1.00  0.00     0.123 A 
HETATM    6  N   UNL     1     -44.332 -48.069  10.284  1.00  0.00    -0.350 N 
ATOM      7  HN  UNL     1     -44.509 -48.963  10.743  1.00  0.00     0.166 HD
BRANCH   5   8
HETATM    8  C   UNL     1     -46.461 -48.148   8.937  1.00  0.00     0.433 C 
HETATM    9  F   UNL     1     -46.759 -49.200   9.748  1.00  0.00    -0.165 F 
HETATM   10  F   UNL     1     -46.412 -48.642   7.673  1.00  0.00    -0.165 F 
HETATM   11  F   UNL     1     -47.524 -47.307   8.997  1.00  0.00    -0.165 F 
ENDBRANCH   5   8
ENDBRANCH   1   2
BRANCH   1  12
HETATM   12  C   UNL     1     -41.950 -49.156  11.518  1.00  0.00     0.276 C 
BRANCH  12  13
HETATM   13  N   UNL     1     -40.650 -49.516  10.939  1.00  0.00     0.089 N 
HETATM   14  H   UNL     1     -40.024 -48.714  10.936  1.00  0.00     0.316 HD
BRANCH  13  15
HETATM   15  C   UNL     1     -40.004 -50.631  11.645  1.00  0.00     0.228 C 
BRANCH  15  16
HETATM   16  C   UNL     1     -38.751 -50.075  12.282  1.00  0.00     0.019 A 
HETATM   17  C   UNL     1     -37.588 -49.607  11.435  1.00  0.00     0.007 A 
HETATM   18  C   UNL     1     -37.461 -50.865  12.246  1.00  0.00     0.007 A 
ENDBRANCH  15  16
BRANCH  15  19
HETATM   19  C   UNL     1     -40.947 -51.189  12.685  1.00  0.00     0.019 A 
HETATM   20  C   UNL     1     -40.508 -52.154  13.758  1.00  0.00     0.007 A 
HETATM   21  C   UNL     1     -41.336 -52.651  12.609  1.00  0.00     0.007 A 
ENDBRANCH  15  19
ENDBRANCH  13  15
ENDBRANCH  12  13
ENDBRANCH   1  12
TORSDOF 7
ENDMDL
MODEL 3
REMARK VINA RESULT:      -5.7      3.001      4.470
REMARK  7 active torsions:
REMARK  status: ('A' for Active; 'I' for Inactive)
REMARK    1  A    between atoms: C_2  and  C_5 
REMARK    2  A    between atoms: C_8  and  C_9 
REMARK    3  A    between atoms: C_9  and  C_10 
REMARK    4  A    between atoms: C_10  and  N_11 
REMARK    5  A    between atoms: N_11  and  C_12 
REMARK    6  A    between atoms: C_12  and  C_13 
REMARK    7  A    between atoms: C_12  and  C_16 
ROOT
HETATM    1  C   UNL     1     -43.168 -49.344  13.122  1.00  0.00     0.095 C 
ENDROOT
BRANCH   1   2
HETATM    2  C   UNL     1     -42.932 -48.504  11.902  1.00  0.00     0.052 A 
HETATM    3  S   UNL     1     -41.489 -47.582  11.743  1.00  0.00    -0.086 SA
HETATM    4  C   UNL     1     -42.051 -46.977  10.243  1.00  0.00     0.085 A 
HETATM    5  C   UNL     1     -43.291 -47.508   9.935  1.00  0.00     0.123 A 
HETATM    6  N   UNL     1     -43.783 -48.389  10.907  1.00  0.00    -0.350 N 
ATOM      7  HN  UNL     1     -44.679 -48.875  10.850  1.00  0.00     0.166 HD
BRANCH   5   8
HETATM    8  C   UNL     1     -44.092 -47.208   8.702  1.00  0.00     0.433 C 
HETATM    9  F   UNL     1     -43.337 -47.291   7.572  1.00  0.00    -0.165 F 
HETATM   10  F   UNL     1     -44.619 -45.956   8.718  1.00  0.00    -0.165 F 
HETATM   11  F   UNL     1     -45.124 -48.074   8.536  1.00  0.00    -0.165 F 
ENDBRANCH   5   8
ENDBRANCH   1   2
BRANCH   1  12
HETATM   12  C   UNL     1     -42.636 -50.764  12.901  1.00  0.00     0.276 C 
BRANCH  12  13
HETATM   13  N   UNL     1     -43.703 -51.685  12.491  1.00  0.00     0.089 N 
HETATM   14  H   UNL     1     -43.382 -52.298  11.746  1.00  0.00     0.316 HD
BRANCH  13  15
HETATM   15  C   UNL     1     -44.206 -52.501  13.605  1.00  0.00     0.228 C 
BRANCH  15  16
HETATM   16  C   UNL     1     -45.711 -52.544  13.468  1.00  0.00     0.019 A 
HETATM   17  C   UNL     1     -46.452 -51.486  12.681  1.00  0.00     0.007 A 
HETATM   18  C   UNL     1     -46.572 -51.521  14.177  1.00  0.00     0.007 A 
ENDBRANCH  15  16
BRANCH  15  19
HETATM   19  C   UNL     1     -43.609 -53.887  13.531  1.00  0.00     0.019 A 
HETATM   20  C   UNL     1     -43.978 -54.992  14.489  1.00  0.00     0.007 A 
HETATM   21  C   UNL     1     -42.640 -54.322  14.611  1.00  0.00     0.007 A 
ENDBRANCH  15  19
ENDBRANCH  13  15
ENDBRANCH  12  13
ENDBRANCH   1  12
TORSDOF 7
ENDMDL
MODEL 4
REMARK VINA RESULT:      -5.7      2.829      4.465
REMARK  7 active torsions:
REMARK  status: ('A' for Active; 'I' for Inactive)
REMARK    1  A    between atoms: C_2  and  C_5 
REMARK    2  A    between atoms: C_8  and  C_9 
REMARK    3  A    between atoms: C_9  and  C_10 
REMARK    4  A    between atoms: C_10  and  N_11 
REMARK    5  A    between atoms: N_11  and  C_12 
REMARK    6  A    between atoms: C_12  and  C_13 
REMARK    7  A    between atoms: C_12  and  C_16 
ROOT
HETATM    1  C   UNL     1     -41.287 -49.790  12.087  1.00  0.00     0.095 C 
ENDROOT
BRANCH   1   2
HETATM    2  C   UNL     1     -41.669 -48.595  11.265  1.00  0.00     0.052 A 
HETATM    3  S   UNL     1     -40.904 -47.077  11.523  1.00  0.00    -0.086 SA
HETATM    4  C   UNL     1     -41.896 -46.380  10.315  1.00  0.00     0.085 A 
HETATM    5  C   UNL     1     -42.745 -47.328   9.772  1.00  0.00     0.123 A 
HETATM    6  N   UNL     1     -42.599 -48.603  10.335  1.00  0.00    -0.350 N 
ATOM      7  HN  UNL     1     -43.139 -49.424  10.061  1.00  0.00     0.166 HD
BRANCH   5   8
HETATM    8  C   UNL     1     -43.757 -47.084   8.691  1.00  0.00     0.433 C 
HETATM    9  F   UNL     1     -43.310 -47.502   7.475  1.00  0.00    -0.165 F 
HETATM   10  F   UNL     1     -44.062 -45.768   8.555  1.00  0.00    -0.165 F 
HETATM   11  F   UNL     1     -44.921 -47.744   8.917  1.00  0.00    -0.165 F 
ENDBRANCH   5   8
ENDBRANCH   1   2
BRANCH   1  12
HETATM   12  C   UNL     1     -42.530 -50.400  12.746  1.00  0.00     0.276 C 
BRANCH  12  13
HETATM   13  N   UNL     1     -42.839 -51.725  12.195  1.00  0.00     0.089 N 
HETATM   14  H   UNL     1     -42.023 -52.331  12.238  1.00  0.00     0.316 HD
BRANCH  13  15
HETATM   15  C   UNL     1     -43.961 -52.378  12.884  1.00  0.00     0.228 C 
BRANCH  15  16
HETATM   16  C   UNL     1     -43.380 -53.092  14.083  1.00  0.00     0.019 A 
HETATM   17  C   UNL     1     -42.280 -54.117  13.920  1.00  0.00     0.007 A 
HETATM   18  C   UNL     1     -43.662 -54.562  14.306  1.00  0.00     0.007 A 
ENDBRANCH  15  16
BRANCH  15  19
HETATM   19  C   UNL     1     -44.975 -51.338  13.302  1.00  0.00     0.019 A 
HETATM   20  C   UNL     1     -45.999 -51.578  14.384  1.00  0.00     0.007 A 
HETATM   21  C   UNL     1     -46.431 -51.554  12.947  1.00  0.00     0.007 A 
ENDBRANCH  15  19
ENDBRANCH  13  15
ENDBRANCH  12  13
ENDBRANCH   1  12
TORSDOF 7
ENDMDL
MODEL 5
REMARK VINA RESULT:      -5.6      3.412      5.281
REMARK  7 active torsions:
REMARK  status: ('A' for Active; 'I' for Inactive)
REMARK    1  A    between atoms: C_2  and  C_5 
REMARK    2  A    between atoms: C_8  and  C_9 
REMARK    3  A    between atoms: C_9  and  C_10 
REMARK    4  A    between atoms: C_10  and  N_11 
REMARK    5  A    between atoms: N_11  and  C_12 
REMARK    6  A    between atoms: C_12  and  C_13 
REMARK    7  A    between atoms: C_12  and  C_16 
ROOT
HETATM    1  C   UNL     1     -41.193 -51.161  12.197  1.00  0.00     0.095 C 
ENDROOT
BRANCH   1   2
HETATM    2  C   UNL     1     -41.158 -49.757  11.668  1.00  0.00     0.052 A 
HETATM    3  S   UNL     1     -39.844 -48.714  12.045  1.00  0.00    -0.086 SA
HETATM    4  C   UNL     1     -40.599 -47.457  11.161  1.00  0.00     0.085 A 
HETATM    5  C   UNL     1     -41.796 -47.890  10.620  1.00  0.00     0.123 A 
HETATM    6  N   UNL     1     -42.102 -49.224  10.924  1.00  0.00    -0.350 N 
ATOM      7  HN  UNL     1     -42.942 -49.713  10.612  1.00  0.00     0.166 HD
BRANCH   5   8
HETATM    8  C   UNL     1     -42.732 -47.065   9.786  1.00  0.00     0.433 C 
HETATM    9  F   UNL     1     -42.220 -45.833   9.517  1.00  0.00    -0.165 F 
HETATM   10  F   UNL     1     -43.926 -46.857  10.399  1.00  0.00    -0.165 F 
HETATM   11  F   UNL     1     -42.993 -47.640   8.584  1.00  0.00    -0.165 F 
ENDBRANCH   5   8
ENDBRANCH   1   2
BRANCH   1  12
HETATM   12  C   UNL     1     -42.575 -51.473  12.784  1.00  0.00     0.276 C 
BRANCH  12  13
HETATM   13  N   UNL     1     -43.161 -52.674  12.176  1.00  0.00     0.089 N 
HETATM   14  H   UNL     1     -42.549 -53.476  12.303  1.00  0.00     0.316 HD
BRANCH  13  15
HETATM   15  C   UNL     1     -44.490 -52.991  12.716  1.00  0.00     0.228 C 
BRANCH  15  16
HETATM   16  C   UNL     1     -44.270 -53.644  14.061  1.00  0.00     0.019 A 
HETATM   17  C   UNL     1     -43.254 -54.752  14.232  1.00  0.00     0.007 A 
HETATM   18  C   UNL     1     -44.721 -55.068  14.302  1.00  0.00     0.007 A 
ENDBRANCH  15  16
BRANCH  15  19
HETATM   19  C   UNL     1     -45.302 -51.723  12.848  1.00  0.00     0.019 A 
HETATM   20  C   UNL     1     -46.481 -51.595  13.780  1.00  0.00     0.007 A 
HETATM   21  C   UNL     1     -46.714 -51.699  12.301  1.00  0.00     0.007 A 
ENDBRANCH  15  19
ENDBRANCH  13  15
ENDBRANCH  12  13
ENDBRANCH   1  12
TORSDOF 7
ENDMDL
MODEL 6
REMARK VINA RESULT:      -5.5      2.352      3.254
REMARK  7 active torsions:
REMARK  status: ('A' for Active; 'I' for Inactive)
REMARK    1  A    between atoms: C_2  and  C_5 
REMARK    2  A    between atoms: C_8  and  C_9 
REMARK    3  A    between atoms: C_9  and  C_10 
REMARK    4  A    between atoms: C_10  and  N_11 
REMARK    5  A    between atoms: N_11  and  C_12 
REMARK    6  A    between atoms: C_12  and  C_13 
REMARK    7  A    between atoms: C_12  and  C_16 
ROOT
HETATM    1  C   UNL     1     -41.051 -49.618  11.920  1.00  0.00     0.095 C 
ENDROOT
BRANCH   1   2
HETATM    2  C   UNL     1     -41.542 -48.457  11.107  1.00  0.00     0.052 A 
HETATM    3  S   UNL     1     -40.883 -46.886  11.341  1.00  0.00    -0.086 SA
HETATM    4  C   UNL     1     -41.956 -46.268  10.158  1.00  0.00     0.085 A 
HETATM    5  C   UNL     1     -42.749 -47.278   9.642  1.00  0.00     0.123 A 
HETATM    6  N   UNL     1     -42.494 -48.537  10.203  1.00  0.00    -0.350 N 
ATOM      7  HN  UNL     1     -42.980 -49.397   9.946  1.00  0.00     0.166 HD
BRANCH   5   8
HETATM    8  C   UNL     1     -43.804 -47.113   8.589  1.00  0.00     0.433 C 
HETATM    9  F   UNL     1     -44.863 -47.945   8.796  1.00  0.00    -0.165 F 
HETATM   10  F   UNL     1     -43.341 -47.388   7.342  1.00  0.00    -0.165 F 
HETATM   11  F   UNL     1     -44.310 -45.854   8.560  1.00  0.00    -0.165 F 
ENDBRANCH   5   8
ENDBRANCH   1   2
BRANCH   1  12
HETATM   12  C   UNL     1     -42.236 -50.390  12.512  1.00  0.00     0.276 C 
BRANCH  12  13
HETATM   13  N   UNL     1     -42.261 -51.782  12.045  1.00  0.00     0.089 N 
HETATM   14  H   UNL     1     -41.619 -51.912  11.267  1.00  0.00     0.316 HD
BRANCH  13  15
HETATM   15  C   UNL     1     -41.933 -52.742  13.107  1.00  0.00     0.228 C 
BRANCH  15  16
HETATM   16  C   UNL     1     -42.855 -53.926  12.925  1.00  0.00     0.019 A 
HETATM   17  C   UNL     1     -44.344 -53.732  12.736  1.00  0.00     0.007 A 
HETATM   18  C   UNL     1     -43.825 -54.316  14.019  1.00  0.00     0.007 A 
ENDBRANCH  15  16
BRANCH  15  19
HETATM   19  C   UNL     1     -40.484 -53.153  12.992  1.00  0.00     0.019 A 
HETATM   20  C   UNL     1     -39.885 -54.285  13.789  1.00  0.00     0.007 A 
HETATM   21  C   UNL     1     -39.550 -52.867  14.150  1.00  0.00     0.007 A 
ENDBRANCH  15  19
ENDBRANCH  13  15
ENDBRANCH  12  13
ENDBRANCH   1  12
TORSDOF 7
ENDMDL
MODEL 7
REMARK VINA RESULT:      -5.5      3.187      5.724
REMARK  7 active torsions:
REMARK  status: ('A' for Active; 'I' for Inactive)
REMARK    1  A    between atoms: C_2  and  C_5 
REMARK    2  A    between atoms: C_8  and  C_9 
REMARK    3  A    between atoms: C_9  and  C_10 
REMARK    4  A    between atoms: C_10  and  N_11 
REMARK    5  A    between atoms: N_11  and  C_12 
REMARK    6  A    between atoms: C_12  and  C_13 
REMARK    7  A    between atoms: C_12  and  C_16 
ROOT
HETATM    1  C   UNL     1     -42.146 -49.071  12.431  1.00  0.00     0.095 C 
ENDROOT
BRANCH   1   2
HETATM    2  C   UNL     1     -42.981 -50.235  12.876  1.00  0.00     0.052 A 
HETATM    3  S   UNL     1     -42.236 -51.674  13.452  1.00  0.00    -0.086 SA
HETATM    4  C   UNL     1     -43.781 -52.383  13.654  1.00  0.00     0.085 A 
HETATM    5  C   UNL     1     -44.778 -51.497  13.287  1.00  0.00     0.123 A 
HETATM    6  N   UNL     1     -44.295 -50.260  12.839  1.00  0.00    -0.350 N 
ATOM      7  HN  UNL     1     -44.882 -49.485  12.528  1.00  0.00     0.166 HD
BRANCH   5   8
HETATM    8  C   UNL     1     -46.253 -51.769  13.328  1.00  0.00     0.433 C 
HETATM    9  F   UNL     1     -46.875 -51.375  12.183  1.00  0.00    -0.165 F 
HETATM   10  F   UNL     1     -46.873 -51.114  14.344  1.00  0.00    -0.165 F 
HETATM   11  F   UNL     1     -46.529 -53.090  13.476  1.00  0.00    -0.165 F 
ENDBRANCH   5   8
ENDBRANCH   1   2
BRANCH   1  12
HETATM   12  C   UNL     1     -41.249 -49.478  11.256  1.00  0.00     0.276 C 
BRANCH  12  13
HETATM   13  N   UNL     1     -41.225 -48.447  10.211  1.00  0.00     0.089 N 
HETATM   14  H   UNL     1     -41.374 -48.862   9.294  1.00  0.00     0.316 HD
BRANCH  13  15
HETATM   15  C   UNL     1     -42.226 -47.394  10.432  1.00  0.00     0.228 C 
BRANCH  15  16
HETATM   16  C   UNL     1     -41.486 -46.076  10.391  1.00  0.00     0.019 A 
HETATM   17  C   UNL     1     -40.126 -45.926  11.034  1.00  0.00     0.007 A 
HETATM   18  C   UNL     1     -41.320 -45.254  11.649  1.00  0.00     0.007 A 
ENDBRANCH  15  16
BRANCH  15  19
HETATM   19  C   UNL     1     -43.284 -47.464   9.356  1.00  0.00     0.019 A 
HETATM   20  C   UNL     1     -44.169 -46.296   8.998  1.00  0.00     0.007 A 
HETATM   21  C   UNL     1     -44.743 -47.451   9.764  1.00  0.00     0.007 A 
ENDBRANCH  15  19
ENDBRANCH  13  15
ENDBRANCH  12  13
ENDBRANCH   1  12
TORSDOF 7
ENDMDL
MODEL 8
REMARK VINA RESULT:      -5.4      2.437      3.705
REMARK  7 active torsions:
REMARK  status: ('A' for Active; 'I' for Inactive)
REMARK    1  A    between atoms: C_2  and  C_5 
REMARK    2  A    between atoms: C_8  and  C_9 
REMARK    3  A    between atoms: C_9  and  C_10 
REMARK    4  A    between atoms: C_10  and  N_11 
REMARK    5  A    between atoms: N_11  and  C_12 
REMARK    6  A    between atoms: C_12  and  C_13 
REMARK    7  A    between atoms: C_12  and  C_16 
ROOT
HETATM    1  C   UNL     1     -42.362 -47.695  11.610  1.00  0.00     0.095 C 
ENDROOT
BRANCH   1   2
HETATM    2  C   UNL     1     -43.398 -47.406  10.564  1.00  0.00     0.052 A 
HETATM    3  S   UNL     1     -43.255 -46.022   9.553  1.00  0.00    -0.086 SA
HETATM    4  C   UNL     1     -44.737 -46.431   8.799  1.00  0.00     0.085 A 
HETATM    5  C   UNL     1     -45.257 -47.593   9.340  1.00  0.00     0.123 A 
HETATM    6  N   UNL     1     -44.468 -48.141  10.360  1.00  0.00    -0.350 N 
ATOM      7  HN  UNL     1     -44.693 -48.994  10.874  1.00  0.00     0.166 HD
BRANCH   5   8
HETATM    8  C   UNL     1     -46.541 -48.253   8.931  1.00  0.00     0.433 C 
HETATM    9  F   UNL     1     -46.491 -48.710   7.650  1.00  0.00    -0.165 F 
HETATM   10  F   UNL     1     -47.602 -47.407   8.994  1.00  0.00    -0.165 F 
HETATM   11  F   UNL     1     -46.838 -49.326   9.708  1.00  0.00    -0.165 F 
ENDBRANCH   5   8
ENDBRANCH   1   2
BRANCH   1  12
HETATM   12  C   UNL     1     -42.718 -46.985  12.922  1.00  0.00     0.276 C 
BRANCH  12  13
HETATM   13  N   UNL     1     -41.766 -45.911  13.231  1.00  0.00     0.089 N 
HETATM   14  H   UNL     1     -41.821 -45.655  14.214  1.00  0.00     0.316 HD
BRANCH  13  15
HETATM   15  C   UNL     1     -40.379 -46.272  12.903  1.00  0.00     0.228 C 
BRANCH  15  16
HETATM   16  C   UNL     1     -39.761 -45.063  12.238  1.00  0.00     0.019 A 
HETATM   17  C   UNL     1     -40.614 -44.068  11.484  1.00  0.00     0.007 A 
HETATM   18  C   UNL     1     -39.685 -44.976  10.730  1.00  0.00     0.007 A 
ENDBRANCH  15  16
BRANCH  15  19
HETATM   19  C   UNL     1     -39.638 -46.643  14.166  1.00  0.00     0.019 A 
HETATM   20  C   UNL     1     -38.139 -46.804  14.220  1.00  0.00     0.007 A 
HETATM   21  C   UNL     1     -39.016 -48.021  14.269  1.00  0.00     0.007 A 
ENDBRANCH  15  19
ENDBRANCH  13  15
ENDBRANCH  12  13
ENDBRANCH   1  12
TORSDOF 7
ENDMDL
MODEL 9
REMARK VINA RESULT:      -5.3      3.421      5.492
REMARK  7 active torsions:
REMARK  status: ('A' for Active; 'I' for Inactive)
REMARK    1  A    between atoms: C_2  and  C_5 
REMARK    2  A    between atoms: C_8  and  C_9 
REMARK    3  A    between atoms: C_9  and  C_10 
REMARK    4  A    between atoms: C_10  and  N_11 
REMARK    5  A    between atoms: N_11  and  C_12 
REMARK    6  A    between atoms: C_12  and  C_13 
REMARK    7  A    between atoms: C_12  and  C_16 
ROOT
HETATM    1  C   UNL     1     -42.029 -49.880  13.083  1.00  0.00     0.095 C 
ENDROOT
BRANCH   1   2
HETATM    2  C   UNL     1     -43.024 -50.999  12.994  1.00  0.00     0.052 A 
HETATM    3  S   UNL     1     -42.515 -52.590  12.586  1.00  0.00    -0.086 SA
HETATM    4  C   UNL     1     -44.141 -53.121  12.660  1.00  0.00     0.085 A 
HETATM    5  C   UNL     1     -44.982 -52.076  12.998  1.00  0.00     0.123 A 
HETATM    6  N   UNL     1     -44.317 -50.857  13.187  1.00  0.00    -0.350 N 
ATOM      7  HN  UNL     1     -44.773 -49.979  13.439  1.00  0.00     0.166 HD
BRANCH   5   8
HETATM    8  C   UNL     1     -46.471 -52.164  13.155  1.00  0.00     0.433 C 
HETATM    9  F   UNL     1     -47.106 -52.223  11.952  1.00  0.00    -0.165 F 
HETATM   10  F   UNL     1     -46.988 -51.090  13.807  1.00  0.00    -0.165 F 
HETATM   11  F   UNL     1     -46.852 -53.271  13.842  1.00  0.00    -0.165 F 
ENDBRANCH   5   8
ENDBRANCH   1   2
BRANCH   1  12
HETATM   12  C   UNL     1     -42.554 -48.642  12.348  1.00  0.00     0.276 C 
BRANCH  12  13
HETATM   13  N   UNL     1     -42.345 -48.745  10.898  1.00  0.00     0.089 N 
HETATM   14  H   UNL     1     -43.175 -49.113  10.441  1.00  0.00     0.316 HD
BRANCH  13  15
HETATM   15  C   UNL     1     -41.985 -47.459  10.285  1.00  0.00     0.228 C 
BRANCH  15  16
HETATM   16  C   UNL     1     -43.278 -46.708  10.060  1.00  0.00     0.019 A 
HETATM   17  C   UNL     1     -44.417 -47.332   9.286  1.00  0.00     0.007 A 
HETATM   18  C   UNL     1     -43.636 -46.201   8.681  1.00  0.00     0.007 A 
ENDBRANCH  15  16
BRANCH  15  19
HETATM   19  C   UNL     1     -41.060 -46.697  11.205  1.00  0.00     0.019 A 
HETATM   20  C   UNL     1     -41.108 -45.197  11.360  1.00  0.00     0.007 A 
HETATM   21  C   UNL     1     -39.979 -45.828  10.598  1.00  0.00     0.007 A 
ENDBRANCH  15  19
ENDBRANCH  13  15
ENDBRANCH  12  13
ENDBRANCH   1  12
TORSDOF 7
ENDMDL
