MODEL 1
REMARK VINA RESULT:      -5.4      0.000      0.000
REMARK  5 active torsions:
REMARK  status: ('A' for Active; 'I' for Inactive)
REMARK    1  A    between atoms: C_2  and  N_3 
REMARK    2  A    between atoms: C_7  and  C_8 
REMARK    3  A    between atoms: C_8  and  N_9 
REMARK       I    between atoms: N_9  and  C_10 
REMARK    4  A    between atoms: C_10  and  C_12 
REMARK    5  A    between atoms: C_12  and  C_13 
ROOT
HETATM    1  N   UNL     1     -43.526 -53.153  12.101  1.00  0.00    -0.359 N 
HETATM    2  C   UNL     1     -42.617 -52.156  12.386  1.00  0.00     0.222 C 
HETATM    3  O   UNL     1     -42.908 -51.162  13.046  1.00  0.00    -0.273 OA
HETATM    4  H   UNL     1     -43.188 -54.026  11.714  1.00  0.00     0.162 HD
ENDROOT
BRANCH   2   5
HETATM    5  C   UNL     1     -41.234 -52.364  11.795  1.00  0.00     0.145 C 
BRANCH   5   6
HETATM    6  C   UNL     1     -40.145 -52.058  12.771  1.00  0.00    -0.002 A 
HETATM    7  C   UNL     1     -39.680 -52.872  13.842  1.00  0.00     0.030 A 
HETATM    8  C   UNL     1     -40.128 -54.220  14.274  1.00  0.00     0.070 C 
HETATM    9  N   UNL     1     -38.696 -52.275  14.522  1.00  0.00    -0.303 N 
HETATM   10  N   UNL     1     -38.540 -51.088  13.918  1.00  0.00    -0.300 N 
ATOM     11  HN  UNL     1     -38.180 -52.641  15.323  1.00  0.00     0.186 HD
HETATM   12  C   UNL     1     -37.534 -50.181  14.424  1.00  0.00     0.177 C 
HETATM   13  C   UNL     1     -39.395 -50.893  12.863  1.00  0.00     0.033 A 
HETATM   14  C   UNL     1     -39.446 -49.646  12.058  1.00  0.00     0.070 C 
ENDBRANCH   5   6
ENDBRANCH   2   5
BRANCH   1  15
HETATM   15  C   UNL     1     -44.893 -53.096  12.600  1.00  0.00     0.158 C 
BRANCH  15  16
HETATM   16  C   UNL     1     -45.226 -54.221  13.619  1.00  0.00     0.240 C 
HETATM   17  N   UNL     1     -45.961 -53.825  14.834  1.00  0.00     0.094 N 
HETATM   18  C   UNL     1     -44.989 -53.287  15.786  1.00  0.00     0.273 C 
HETATM   19  C   UNL     1     -43.660 -53.945  15.430  1.00  0.00     0.032 C 
HETATM   20  C   UNL     1     -43.962 -54.826  14.229  1.00  0.00     0.039 C 
BRANCH  17  21
HETATM   21  C   UNL     1     -47.123 -52.961  14.657  1.00  0.00     0.268 C 
HETATM   22  C   UNL     1     -46.937 -51.554  15.216  1.00  0.00     0.037 C 
ENDBRANCH  17  21
ENDBRANCH  15  16
ENDBRANCH   1  15
TORSDOF 5
ENDMDL
MODEL 2
REMARK VINA RESULT:      -5.3      4.064      5.180
REMARK  5 active torsions:
REMARK  status: ('A' for Active; 'I' for Inactive)
REMARK    1  A    between atoms: C_2  and  N_3 
REMARK    2  A    between atoms: C_7  and  C_8 
REMARK    3  A    between atoms: C_8  and  N_9 
REMARK       I    between atoms: N_9  and  C_10 
REMARK    4  A    between atoms: C_10  and  C_12 
REMARK    5  A    between atoms: C_12  and  C_13 
ROOT
HETATM    1  N   UNL     1     -42.312 -50.642  12.037  1.00  0.00    -0.359 N 
HETATM    2  C   UNL     1     -42.439 -49.270  12.063  1.00  0.00     0.222 C 
HETATM    3  O   UNL     1     -43.075 -48.678  12.932  1.00  0.00    -0.273 OA
HETATM    4  H   UNL     1     -41.635 -51.058  11.410  1.00  0.00     0.162 HD
ENDROOT
BRANCH   2   5
HETATM    5  C   UNL     1     -41.761 -48.543  10.915  1.00  0.00     0.145 C 
BRANCH   5   6
HETATM    6  C   UNL     1     -42.224 -47.129  10.782  1.00  0.00    -0.002 A 
HETATM    7  C   UNL     1     -43.324 -46.638  10.025  1.00  0.00     0.030 A 
HETATM    8  C   UNL     1     -44.300 -47.374   9.182  1.00  0.00     0.070 C 
HETATM    9  N   UNL     1     -43.437 -45.310  10.127  1.00  0.00    -0.303 N 
HETATM   10  N   UNL     1     -42.419 -44.943  10.918  1.00  0.00    -0.300 N 
ATOM     11  HN  UNL     1     -44.142 -44.709   9.698  1.00  0.00     0.186 HD
HETATM   12  C   UNL     1     -42.255 -43.541  11.230  1.00  0.00     0.177 C 
HETATM   13  C   UNL     1     -41.643 -45.995  11.335  1.00  0.00     0.033 A 
HETATM   14  C   UNL     1     -40.434 -45.846  12.185  1.00  0.00     0.070 C 
ENDBRANCH   5   6
ENDBRANCH   2   5
BRANCH   1  15
HETATM   15  C   UNL     1     -42.907 -51.477  13.072  1.00  0.00     0.158 C 
BRANCH  15  16
HETATM   16  C   UNL     1     -43.497 -52.807  12.529  1.00  0.00     0.240 C 
HETATM   17  N   UNL     1     -44.901 -53.103  12.869  1.00  0.00     0.094 N 
HETATM   18  C   UNL     1     -44.921 -53.675  14.216  1.00  0.00     0.273 C 
HETATM   19  C   UNL     1     -43.550 -54.313  14.410  1.00  0.00     0.032 C 
HETATM   20  C   UNL     1     -42.792 -54.026  13.124  1.00  0.00     0.039 C 
BRANCH  17  21
HETATM   21  C   UNL     1     -45.869 -52.026  12.693  1.00  0.00     0.268 C 
HETATM   22  C   UNL     1     -46.498 -51.543  13.996  1.00  0.00     0.037 C 
ENDBRANCH  17  21
ENDBRANCH  15  16
ENDBRANCH   1  15
TORSDOF 5
ENDMDL
MODEL 3
REMARK VINA RESULT:      -5.3      2.774      3.853
REMARK  5 active torsions:
REMARK  status: ('A' for Active; 'I' for Inactive)
REMARK    1  A    between atoms: C_2  and  N_3 
REMARK    2  A    between atoms: C_7  and  C_8 
REMARK    3  A    between atoms: C_8  and  N_9 
REMARK       I    between atoms: N_9  and  C_10 
REMARK    4  A    between atoms: C_10  and  C_12 
REMARK    5  A    between atoms: C_12  and  C_13 
ROOT
HETATM    1  N   UNL     1     -42.448 -50.851  12.180  1.00  0.00    -0.359 N 
HETATM    2  C   UNL     1     -41.070 -50.838  12.217  1.00  0.00     0.222 C 
HETATM    3  O   UNL     1     -40.423 -51.437  13.072  1.00  0.00    -0.273 OA
HETATM    4  H   UNL     1     -42.918 -50.494  11.357  1.00  0.00     0.162 HD
ENDROOT
BRANCH   2   5
HETATM    5  C   UNL     1     -40.409 -49.998  11.138  1.00  0.00     0.145 C 
BRANCH   5   6
HETATM    6  C   UNL     1     -40.493 -48.534  11.424  1.00  0.00    -0.002 A 
HETATM    7  C   UNL     1     -39.717 -47.779  12.348  1.00  0.00     0.030 A 
HETATM    8  C   UNL     1     -38.629 -48.220  13.256  1.00  0.00     0.070 C 
HETATM    9  N   UNL     1     -40.072 -46.490  12.351  1.00  0.00    -0.303 N 
HETATM   10  N   UNL     1     -41.073 -46.414  11.462  1.00  0.00    -0.300 N 
ATOM     11  HN  UNL     1     -39.671 -45.734  12.906  1.00  0.00     0.186 HD
HETATM   12  C   UNL     1     -41.694 -45.129  11.228  1.00  0.00     0.177 C 
HETATM   13  C   UNL     1     -41.383 -47.617  10.880  1.00  0.00     0.033 A 
HETATM   14  C   UNL     1     -42.479 -47.802   9.894  1.00  0.00     0.070 C 
ENDBRANCH   5   6
ENDBRANCH   2   5
BRANCH   1  15
HETATM   15  C   UNL     1     -43.224 -51.613  13.149  1.00  0.00     0.158 C 
BRANCH  15  16
HETATM   16  C   UNL     1     -43.872 -52.892  12.551  1.00  0.00     0.240 C 
HETATM   17  N   UNL     1     -45.290 -53.135  12.874  1.00  0.00     0.094 N 
HETATM   18  C   UNL     1     -45.346 -53.756  14.197  1.00  0.00     0.273 C 
HETATM   19  C   UNL     1     -44.008 -54.466  14.372  1.00  0.00     0.032 C 
HETATM   20  C   UNL     1     -43.229 -54.165  13.102  1.00  0.00     0.039 C 
BRANCH  17  21
HETATM   21  C   UNL     1     -46.206 -52.007  12.736  1.00  0.00     0.268 C 
HETATM   22  C   UNL     1     -46.739 -51.479  14.063  1.00  0.00     0.037 C 
ENDBRANCH  17  21
ENDBRANCH  15  16
ENDBRANCH   1  15
TORSDOF 5
ENDMDL
MODEL 4
REMARK VINA RESULT:      -5.2      1.859      6.398
REMARK  5 active torsions:
REMARK  status: ('A' for Active; 'I' for Inactive)
REMARK    1  A    between atoms: C_2  and  N_3 
REMARK    2  A    between atoms: C_7  and  C_8 
REMARK    3  A    between atoms: C_8  and  N_9 
REMARK       I    between atoms: N_9  and  C_10 
REMARK    4  A    between atoms: C_10  and  C_12 
REMARK    5  A    between atoms: C_12  and  C_13 
ROOT
HETATM    1  N   UNL     1     -42.840 -52.711  12.022  1.00  0.00    -0.359 N 
HETATM    2  C   UNL     1     -43.164 -53.647  12.980  1.00  0.00     0.222 C 
HETATM    3  O   UNL     1     -42.325 -54.168  13.710  1.00  0.00    -0.273 OA
HETATM    4  H   UNL     1     -43.585 -52.188  11.579  1.00  0.00     0.162 HD
ENDROOT
BRANCH   2   5
HETATM    5  C   UNL     1     -44.636 -54.013  13.045  1.00  0.00     0.145 C 
BRANCH   5   6
HETATM    6  C   UNL     1     -45.438 -53.016  13.818  1.00  0.00    -0.002 A 
HETATM    7  C   UNL     1     -46.344 -52.043  13.311  1.00  0.00     0.030 A 
HETATM    8  C   UNL     1     -46.743 -51.758  11.909  1.00  0.00     0.070 C 
HETATM    9  N   UNL     1     -46.877 -51.308  14.292  1.00  0.00    -0.303 N 
HETATM   10  N   UNL     1     -46.312 -51.781  15.412  1.00  0.00    -0.300 N 
ATOM     11  HN  UNL     1     -47.560 -50.555  14.206  1.00  0.00     0.186 HD
HETATM   12  C   UNL     1     -46.681 -51.185  16.678  1.00  0.00     0.177 C 
HETATM   13  C   UNL     1     -45.424 -52.803  15.190  1.00  0.00     0.033 A 
HETATM   14  C   UNL     1     -44.641 -53.467  16.263  1.00  0.00     0.070 C 
ENDBRANCH   5   6
ENDBRANCH   2   5
BRANCH   1  15
HETATM   15  C   UNL     1     -41.467 -52.258  11.840  1.00  0.00     0.158 C 
BRANCH  15  16
HETATM   16  C   UNL     1     -41.288 -50.729  12.053  1.00  0.00     0.240 C 
HETATM   17  N   UNL     1     -40.208 -50.304  12.961  1.00  0.00     0.094 N 
HETATM   18  C   UNL     1     -40.711 -50.409  14.331  1.00  0.00     0.273 C 
HETATM   19  C   UNL     1     -42.224 -50.259  14.224  1.00  0.00     0.032 C 
HETATM   20  C   UNL     1     -42.504 -50.105  12.738  1.00  0.00     0.039 C 
BRANCH  17  21
HETATM   21  C   UNL     1     -38.903 -50.933  12.783  1.00  0.00     0.268 C 
HETATM   22  C   UNL     1     -37.994 -50.200  11.803  1.00  0.00     0.037 C 
ENDBRANCH  17  21
ENDBRANCH  15  16
ENDBRANCH   1  15
TORSDOF 5
ENDMDL
MODEL 5
REMARK VINA RESULT:      -5.2      2.052      3.237
REMARK  5 active torsions:
REMARK  status: ('A' for Active; 'I' for Inactive)
REMARK    1  A    between atoms: C_2  and  N_3 
REMARK    2  A    between atoms: C_7  and  C_8 
REMARK    3  A    between atoms: C_8  and  N_9 
REMARK       I    between atoms: N_9  and  C_10 
REMARK    4  A    between atoms: C_10  and  C_12 
REMARK    5  A    between atoms: C_12  and  C_13 
ROOT
HETATM    1  N   UNL     1     -42.489 -51.381  12.088  1.00  0.00    -0.359 N 
HETATM    2  C   UNL     1     -41.125 -51.360  11.892  1.00  0.00     0.222 C 
HETATM    3  O   UNL     1     -40.402 -52.319  12.151  1.00  0.00    -0.273 OA
HETATM    4  H   UNL     1     -43.051 -50.638  11.691  1.00  0.00     0.162 HD
ENDROOT
BRANCH   2   5
HETATM    5  C   UNL     1     -40.575 -50.048  11.359  1.00  0.00     0.145 C 
BRANCH   5   6
HETATM    6  C   UNL     1     -39.636 -49.393  12.318  1.00  0.00    -0.002 A 
HETATM    7  C   UNL     1     -38.213 -49.405  12.293  1.00  0.00     0.030 A 
HETATM    8  C   UNL     1     -37.287 -50.049  11.327  1.00  0.00     0.070 C 
HETATM    9  N   UNL     1     -37.697 -48.721  13.318  1.00  0.00    -0.303 N 
HETATM   10  N   UNL     1     -38.763 -48.290  14.008  1.00  0.00    -0.300 N 
ATOM     11  HN  UNL     1     -36.711 -48.562  13.529  1.00  0.00     0.186 HD
HETATM   12  C   UNL     1     -38.544 -47.505  15.202  1.00  0.00     0.177 C 
HETATM   13  C   UNL     1     -39.961 -48.675  13.462  1.00  0.00     0.033 A 
HETATM   14  C   UNL     1     -41.284 -48.358  14.060  1.00  0.00     0.070 C 
ENDBRANCH   5   6
ENDBRANCH   2   5
BRANCH   1  15
HETATM   15  C   UNL     1     -43.163 -52.570  12.593  1.00  0.00     0.158 C 
BRANCH  15  16
HETATM   16  C   UNL     1     -43.844 -52.354  13.972  1.00  0.00     0.240 C 
HETATM   17  N   UNL     1     -44.828 -53.367  14.396  1.00  0.00     0.094 N 
HETATM   18  C   UNL     1     -46.100 -53.051  13.748  1.00  0.00     0.273 C 
HETATM   19  C   UNL     1     -46.063 -51.550  13.484  1.00  0.00     0.032 C 
HETATM   20  C   UNL     1     -44.705 -51.091  13.988  1.00  0.00     0.039 C 
BRANCH  17  21
HETATM   21  C   UNL     1     -44.446 -54.768  14.249  1.00  0.00     0.268 C 
HETATM   22  C   UNL     1     -43.236 -55.168  15.086  1.00  0.00     0.037 C 
ENDBRANCH  17  21
ENDBRANCH  15  16
ENDBRANCH   1  15
TORSDOF 5
ENDMDL
MODEL 6
REMARK VINA RESULT:      -5.1      2.157      6.755
REMARK  5 active torsions:
REMARK  status: ('A' for Active; 'I' for Inactive)
REMARK    1  A    between atoms: C_2  and  N_3 
REMARK    2  A    between atoms: C_7  and  C_8 
REMARK    3  A    between atoms: C_8  and  N_9 
REMARK       I    between atoms: N_9  and  C_10 
REMARK    4  A    between atoms: C_10  and  C_12 
REMARK    5  A    between atoms: C_12  and  C_13 
ROOT
HETATM    1  N   UNL     1     -42.450 -51.091  12.526  1.00  0.00    -0.359 N 
HETATM    2  C   UNL     1     -42.318 -52.454  12.370  1.00  0.00     0.222 C 
HETATM    3  O   UNL     1     -41.228 -53.019  12.355  1.00  0.00    -0.273 OA
HETATM    4  H   UNL     1     -43.368 -50.707  12.711  1.00  0.00     0.162 HD
ENDROOT
BRANCH   2   5
HETATM    5  C   UNL     1     -43.625 -53.206  12.186  1.00  0.00     0.145 C 
BRANCH   5   6
HETATM    6  C   UNL     1     -44.468 -53.195  13.420  1.00  0.00    -0.002 A 
HETATM    7  C   UNL     1     -44.296 -53.969  14.602  1.00  0.00     0.030 A 
HETATM    8  C   UNL     1     -43.254 -54.972  14.935  1.00  0.00     0.070 C 
HETATM    9  N   UNL     1     -45.248 -53.709  15.502  1.00  0.00    -0.303 N 
HETATM   10  N   UNL     1     -46.036 -52.800  14.910  1.00  0.00    -0.300 N 
ATOM     11  HN  UNL     1     -45.353 -54.113  16.434  1.00  0.00     0.186 HD
HETATM   12  C   UNL     1     -47.184 -52.301  15.633  1.00  0.00     0.177 C 
HETATM   13  C   UNL     1     -45.624 -52.459  13.646  1.00  0.00     0.033 A 
HETATM   14  C   UNL     1     -46.349 -51.504  12.769  1.00  0.00     0.070 C 
ENDBRANCH   5   6
ENDBRANCH   2   5
BRANCH   1  15
HETATM   15  C   UNL     1     -41.286 -50.235  12.714  1.00  0.00     0.158 C 
BRANCH  15  16
HETATM   16  C   UNL     1     -40.824 -49.526  11.411  1.00  0.00     0.240 C 
HETATM   17  N   UNL     1     -39.628 -48.670  11.505  1.00  0.00     0.094 N 
HETATM   18  C   UNL     1     -40.049 -47.372  12.031  1.00  0.00     0.273 C 
HETATM   19  C   UNL     1     -41.515 -47.229  11.639  1.00  0.00     0.032 C 
HETATM   20  C   UNL     1     -41.862 -48.519  10.914  1.00  0.00     0.039 C 
BRANCH  17  21
HETATM   21  C   UNL     1     -38.470 -49.220  12.205  1.00  0.00     0.268 C 
HETATM   22  C   UNL     1     -37.469 -49.913  11.288  1.00  0.00     0.037 C 
ENDBRANCH  17  21
ENDBRANCH  15  16
ENDBRANCH   1  15
TORSDOF 5
ENDMDL
MODEL 7
REMARK VINA RESULT:      -5.1      2.636      5.903
REMARK  5 active torsions:
REMARK  status: ('A' for Active; 'I' for Inactive)
REMARK    1  A    between atoms: C_2  and  N_3 
REMARK    2  A    between atoms: C_7  and  C_8 
REMARK    3  A    between atoms: C_8  and  N_9 
REMARK       I    between atoms: N_9  and  C_10 
REMARK    4  A    between atoms: C_10  and  C_12 
REMARK    5  A    between atoms: C_12  and  C_13 
ROOT
HETATM    1  N   UNL     1     -41.034 -51.610  11.523  1.00  0.00    -0.359 N 
HETATM    2  C   UNL     1     -40.476 -52.485  12.430  1.00  0.00     0.222 C 
HETATM    3  O   UNL     1     -39.510 -52.189  13.130  1.00  0.00    -0.273 OA
HETATM    4  H   UNL     1     -41.930 -51.841  11.110  1.00  0.00     0.162 HD
ENDROOT
BRANCH   2   5
HETATM    5  C   UNL     1     -41.125 -53.857  12.479  1.00  0.00     0.145 C 
BRANCH   5   6
HETATM    6  C   UNL     1     -42.089 -53.992  13.612  1.00  0.00    -0.002 A 
HETATM    7  C   UNL     1     -41.818 -54.415  14.944  1.00  0.00     0.030 A 
HETATM    8  C   UNL     1     -40.533 -54.821  15.567  1.00  0.00     0.070 C 
HETATM    9  N   UNL     1     -42.926 -54.429  15.691  1.00  0.00    -0.303 N 
HETATM   10  N   UNL     1     -43.901 -54.043  14.856  1.00  0.00    -0.300 N 
ATOM     11  HN  UNL     1     -43.010 -54.678  16.677  1.00  0.00     0.186 HD
HETATM   12  C   UNL     1     -45.252 -53.955  15.363  1.00  0.00     0.177 C 
HETATM   13  C   UNL     1     -43.461 -53.778  13.583  1.00  0.00     0.033 A 
HETATM   14  C   UNL     1     -44.352 -53.373  12.466  1.00  0.00     0.070 C 
ENDBRANCH   5   6
ENDBRANCH   2   5
BRANCH   1  15
HETATM   15  C   UNL     1     -40.522 -50.256  11.363  1.00  0.00     0.158 C 
BRANCH  15  16
HETATM   16  C   UNL     1     -41.279 -49.204  12.218  1.00  0.00     0.240 C 
HETATM   17  N   UNL     1     -41.626 -47.932  11.558  1.00  0.00     0.094 N 
HETATM   18  C   UNL     1     -40.443 -47.073  11.597  1.00  0.00     0.273 C 
HETATM   19  C   UNL     1     -39.639 -47.538  12.806  1.00  0.00     0.032 C 
HETATM   20  C   UNL     1     -40.429 -48.702  13.385  1.00  0.00     0.039 C 
BRANCH  17  21
HETATM   21  C   UNL     1     -42.227 -48.014  10.230  1.00  0.00     0.268 C 
HETATM   22  C   UNL     1     -43.628 -47.417  10.151  1.00  0.00     0.037 C 
ENDBRANCH  17  21
ENDBRANCH  15  16
ENDBRANCH   1  15
TORSDOF 5
ENDMDL
MODEL 8
REMARK VINA RESULT:      -5.1      1.891      6.325
REMARK  5 active torsions:
REMARK  status: ('A' for Active; 'I' for Inactive)
REMARK    1  A    between atoms: C_2  and  N_3 
REMARK    2  A    between atoms: C_7  and  C_8 
REMARK    3  A    between atoms: C_8  and  N_9 
REMARK       I    between atoms: N_9  and  C_10 
REMARK    4  A    between atoms: C_10  and  C_12 
REMARK    5  A    between atoms: C_12  and  C_13 
ROOT
HETATM    1  N   UNL     1     -43.197 -54.078  14.346  1.00  0.00    -0.359 N 
HETATM    2  C   UNL     1     -44.209 -54.203  13.419  1.00  0.00     0.222 C 
HETATM    3  O   UNL     1     -44.026 -54.064  12.213  1.00  0.00    -0.273 OA
HETATM    4  H   UNL     1     -43.366 -54.379  15.298  1.00  0.00     0.162 HD
ENDROOT
BRANCH   2   5
HETATM    5  C   UNL     1     -45.579 -54.497  14.005  1.00  0.00     0.145 C 
BRANCH   5   6
HETATM    6  C   UNL     1     -46.164 -53.315  14.707  1.00  0.00    -0.002 A 
HETATM    7  C   UNL     1     -46.661 -52.113  14.128  1.00  0.00     0.030 A 
HETATM    8  C   UNL     1     -46.744 -51.711  12.701  1.00  0.00     0.070 C 
HETATM    9  N   UNL     1     -47.100 -51.263  15.061  1.00  0.00    -0.303 N 
HETATM   10  N   UNL     1     -46.874 -51.891  16.224  1.00  0.00    -0.300 N 
ATOM     11  HN  UNL     1     -47.515 -50.341  14.920  1.00  0.00     0.186 HD
HETATM   12  C   UNL     1     -47.241 -51.224  17.454  1.00  0.00     0.177 C 
HETATM   13  C   UNL     1     -46.298 -53.127  16.077  1.00  0.00     0.033 A 
HETATM   14  C   UNL     1     -45.913 -54.002  17.213  1.00  0.00     0.070 C 
ENDBRANCH   5   6
ENDBRANCH   2   5
BRANCH   1  15
HETATM   15  C   UNL     1     -41.827 -53.798  13.937  1.00  0.00     0.158 C 
BRANCH  15  16
HETATM   16  C   UNL     1     -41.265 -52.475  14.526  1.00  0.00     0.240 C 
HETATM   17  N   UNL     1     -41.031 -51.369  13.579  1.00  0.00     0.094 N 
HETATM   18  C   UNL     1     -39.738 -51.601  12.935  1.00  0.00     0.273 C 
HETATM   19  C   UNL     1     -38.931 -52.433  13.925  1.00  0.00     0.032 C 
HETATM   20  C   UNL     1     -39.862 -52.661  15.105  1.00  0.00     0.039 C 
BRANCH  17  21
HETATM   21  C   UNL     1     -42.097 -51.072  12.627  1.00  0.00     0.268 C 
HETATM   22  C   UNL     1     -43.329 -50.437  13.260  1.00  0.00     0.037 C 
ENDBRANCH  17  21
ENDBRANCH  15  16
ENDBRANCH   1  15
TORSDOF 5
ENDMDL
MODEL 9
REMARK VINA RESULT:      -4.9      2.476      6.190
REMARK  5 active torsions:
REMARK  status: ('A' for Active; 'I' for Inactive)
REMARK    1  A    between atoms: C_2  and  N_3 
REMARK    2  A    between atoms: C_7  and  C_8 
REMARK    3  A    between atoms: C_8  and  N_9 
REMARK       I    between atoms: N_9  and  C_10 
REMARK    4  A    between atoms: C_10  and  C_12 
REMARK    5  A    between atoms: C_12  and  C_13 
ROOT
HETATM    1  N   UNL     1     -42.036 -50.965  11.972  1.00  0.00    -0.359 N 
HETATM    2  C   UNL     1     -42.980 -51.711  12.645  1.00  0.00     0.222 C 
HETATM    3  O   UNL     1     -43.785 -51.213  13.427  1.00  0.00    -0.273 OA
HETATM    4  H   UNL     1     -41.524 -51.396  11.212  1.00  0.00     0.162 HD
ENDROOT
BRANCH   2   5
HETATM    5  C   UNL     1     -42.929 -53.204  12.371  1.00  0.00     0.145 C 
BRANCH   5   6
HETATM    6  C   UNL     1     -42.661 -54.001  13.606  1.00  0.00    -0.002 A 
HETATM    7  C   UNL     1     -43.599 -54.703  14.413  1.00  0.00     0.030 A 
HETATM    8  C   UNL     1     -45.069 -54.844  14.255  1.00  0.00     0.070 C 
HETATM    9  N   UNL     1     -43.006 -55.299  15.452  1.00  0.00    -0.303 N 
HETATM   10  N   UNL     1     -41.711 -54.973  15.334  1.00  0.00    -0.300 N 
ATOM     11  HN  UNL     1     -43.442 -55.873  16.174  1.00  0.00     0.186 HD
HETATM   12  C   UNL     1     -40.780 -55.468  16.324  1.00  0.00     0.177 C 
HETATM   13  C   UNL     1     -41.442 -54.180  14.248  1.00  0.00     0.033 A 
HETATM   14  C   UNL     1     -40.092 -53.653  13.921  1.00  0.00     0.070 C 
ENDBRANCH   5   6
ENDBRANCH   2   5
BRANCH   1  15
HETATM   15  C   UNL     1     -41.961 -49.519  12.131  1.00  0.00     0.158 C 
BRANCH  15  16
HETATM   16  C   UNL     1     -41.166 -48.814  10.997  1.00  0.00     0.240 C 
HETATM   17  N   UNL     1     -40.018 -47.984  11.404  1.00  0.00     0.094 N 
HETATM   18  C   UNL     1     -40.535 -46.680  11.816  1.00  0.00     0.273 C 
HETATM   19  C   UNL     1     -41.849 -46.504  11.063  1.00  0.00     0.032 C 
HETATM   20  C   UNL     1     -42.022 -47.783  10.261  1.00  0.00     0.039 C 
BRANCH  17  21
HETATM   21  C   UNL     1     -39.089 -48.561  12.371  1.00  0.00     0.268 C 
HETATM   22  C   UNL     1     -38.094 -49.541  11.760  1.00  0.00     0.037 C 
ENDBRANCH  17  21
ENDBRANCH  15  16
ENDBRANCH   1  15
TORSDOF 5
ENDMDL
