MODEL 1
REMARK VINA RESULT:      -6.4      0.000      0.000
REMARK  5 active torsions:
REMARK  status: ('A' for Active; 'I' for Inactive)
REMARK    1  A    between atoms: C_4  and  N_5 
REMARK       I    between atoms: N_5  and  C_6 
REMARK       I    between atoms: C_6  and  N_8 
REMARK    2  A    between atoms: N_8  and  C_9 
REMARK    3  A    between atoms: C_9  and  C_11 
REMARK    4  A    between atoms: C_9  and  C_13 
REMARK    5  A    between atoms: C_11  and  O_12 
ROOT
HETATM    1  N   UNL     1     -41.148 -49.127  10.557  1.00  0.00    -0.293 N 
HETATM    2  C   UNL     1     -41.379 -49.703  11.786  1.00  0.00     0.322 C 
HETATM    3  O   UNL     1     -42.062 -49.228  12.681  1.00  0.00    -0.247 OA
HETATM    4  N   UNL     1     -40.706 -50.900  11.935  1.00  0.00    -0.331 N 
HETATM    5  H   UNL     1     -40.485 -49.538   9.924  1.00  0.00     0.172 HD
HETATM    6  H   UNL     1     -40.244 -51.278  11.125  1.00  0.00     0.165 HD
ENDROOT
BRANCH   4   7
HETATM    7  C   UNL     1     -40.543 -51.657  13.208  1.00  0.00     0.055 C 
HETATM    8  C   UNL     1     -41.729 -51.419  14.182  1.00  0.00     0.041 C 
BRANCH   7   9
HETATM    9  C   UNL     1     -40.609 -53.176  12.818  1.00  0.00     0.195 C 
BRANCH   9  10
HETATM   10  O   UNL     1     -40.577 -53.377  11.404  1.00  0.00    -0.398 OA
HETATM   11  H   UNL     1     -40.639 -54.333  11.237  1.00  0.00     0.209 HD
ENDBRANCH   9  10
ENDBRANCH   7   9
BRANCH   7  12
HETATM   12  C   UNL     1     -39.172 -51.373  13.959  1.00  0.00     0.015 C 
HETATM   13  C   UNL     1     -39.133 -50.187  14.946  1.00  0.00     0.007 C 
HETATM   14  C   UNL     1     -38.904 -48.809  14.324  1.00  0.00     0.000 C 
HETATM   15  C   UNL     1     -37.870 -48.758  13.201  1.00  0.00     0.000 C 
HETATM   16  C   UNL     1     -37.856 -49.974  12.283  1.00  0.00     0.000 C 
HETATM   17  C   UNL     1     -37.914 -51.271  13.073  1.00  0.00     0.007 C 
ENDBRANCH   7  12
ENDBRANCH   4   7
BRANCH   1  18
HETATM   18  C   UNL     1     -41.693 -47.901  10.191  1.00  0.00     0.132 A 
HETATM   19  C   UNL     1     -43.002 -47.716   9.682  1.00  0.00     0.084 A 
HETATM   20  C   UNL     1     -43.109 -46.359   9.483  1.00  0.00     0.076 A 
HETATM   21  C   UNL     1     -44.162 -45.447   9.012  1.00  0.00     0.079 C 
HETATM   22  O   UNL     1     -41.937 -45.769   9.829  1.00  0.00    -0.241 OA
HETATM   23  N   UNL     1     -41.060 -46.726  10.271  1.00  0.00    -0.245 N 
ATOM     24  HN  UNL     1     -40.106 -46.571  10.598  1.00  0.00     0.196 HD
ENDBRANCH   1  18
TORSDOF 5
ENDMDL
MODEL 2
REMARK VINA RESULT:      -6.2      3.550      6.091
REMARK  5 active torsions:
REMARK  status: ('A' for Active; 'I' for Inactive)
REMARK    1  A    between atoms: C_4  and  N_5 
REMARK       I    between atoms: N_5  and  C_6 
REMARK       I    between atoms: C_6  and  N_8 
REMARK    2  A    between atoms: N_8  and  C_9 
REMARK    3  A    between atoms: C_9  and  C_11 
REMARK    4  A    between atoms: C_9  and  C_13 
REMARK    5  A    between atoms: C_11  and  O_12 
ROOT
HETATM    1  N   UNL     1     -42.194 -51.875  11.892  1.00  0.00    -0.293 N 
HETATM    2  C   UNL     1     -43.198 -51.482  12.748  1.00  0.00     0.322 C 
HETATM    3  O   UNL     1     -43.118 -50.597  13.586  1.00  0.00    -0.247 OA
HETATM    4  N   UNL     1     -44.342 -52.242  12.591  1.00  0.00    -0.331 N 
HETATM    5  H   UNL     1     -42.315 -52.685  11.309  1.00  0.00     0.172 HD
HETATM    6  H   UNL     1     -44.371 -52.885  11.818  1.00  0.00     0.165 HD
ENDROOT
BRANCH   4   7
HETATM    7  C   UNL     1     -45.518 -52.246  13.506  1.00  0.00     0.055 C 
HETATM    8  C   UNL     1     -45.403 -51.155  14.606  1.00  0.00     0.041 C 
BRANCH   7   9
HETATM    9  C   UNL     1     -46.751 -51.836  12.625  1.00  0.00     0.195 C 
BRANCH   9  10
HETATM   10  O   UNL     1     -46.749 -52.483  11.351  1.00  0.00    -0.398 OA
HETATM   11  H   UNL     1     -47.366 -53.233  11.397  1.00  0.00     0.209 HD
ENDBRANCH   9  10
ENDBRANCH   7   9
BRANCH   7  12
HETATM   12  C   UNL     1     -45.809 -53.655  14.181  1.00  0.00     0.015 C 
HETATM   13  C   UNL     1     -45.922 -53.696  15.720  1.00  0.00     0.007 C 
HETATM   14  C   UNL     1     -44.600 -53.772  16.485  1.00  0.00     0.000 C 
HETATM   15  C   UNL     1     -43.544 -54.696  15.882  1.00  0.00     0.000 C 
HETATM   16  C   UNL     1     -43.498 -54.716  14.359  1.00  0.00     0.000 C 
HETATM   17  C   UNL     1     -44.890 -54.819  13.759  1.00  0.00     0.007 C 
ENDBRANCH   7  12
ENDBRANCH   4   7
BRANCH   1  18
HETATM   18  C   UNL     1     -40.938 -51.277  11.889  1.00  0.00     0.132 A 
HETATM   19  C   UNL     1     -39.894 -51.581  12.796  1.00  0.00     0.084 A 
HETATM   20  C   UNL     1     -38.851 -50.774  12.408  1.00  0.00     0.076 A 
HETATM   21  C   UNL     1     -37.464 -50.563  12.853  1.00  0.00     0.079 C 
HETATM   22  O   UNL     1     -39.245 -50.019  11.352  1.00  0.00    -0.241 OA
HETATM   23  N   UNL     1     -40.540 -50.334  11.028  1.00  0.00    -0.245 N 
ATOM     24  HN  UNL     1     -41.094 -49.927  10.275  1.00  0.00     0.196 HD
ENDBRANCH   1  18
TORSDOF 5
ENDMDL
MODEL 3
REMARK VINA RESULT:      -6.2      2.878      5.294
REMARK  5 active torsions:
REMARK  status: ('A' for Active; 'I' for Inactive)
REMARK    1  A    between atoms: C_4  and  N_5 
REMARK       I    between atoms: N_5  and  C_6 
REMARK       I    between atoms: C_6  and  N_8 
REMARK    2  A    between atoms: N_8  and  C_9 
REMARK    3  A    between atoms: C_9  and  C_11 
REMARK    4  A    between atoms: C_9  and  C_13 
REMARK    5  A    between atoms: C_11  and  O_12 
ROOT
HETATM    1  N   UNL     1     -41.520 -52.770  12.752  1.00  0.00    -0.293 N 
HETATM    2  C   UNL     1     -41.284 -51.416  12.842  1.00  0.00     0.322 C 
HETATM    3  O   UNL     1     -42.136 -50.548  12.950  1.00  0.00    -0.247 OA
HETATM    4  N   UNL     1     -39.939 -51.115  12.753  1.00  0.00    -0.331 N 
HETATM    5  H   UNL     1     -40.764 -53.402  12.556  1.00  0.00     0.172 HD
HETATM    6  H   UNL     1     -39.289 -51.883  12.764  1.00  0.00     0.165 HD
ENDROOT
BRANCH   4   7
HETATM    7  C   UNL     1     -39.359 -49.754  12.573  1.00  0.00     0.055 C 
HETATM    8  C   UNL     1     -37.884 -49.810  12.092  1.00  0.00     0.041 C 
BRANCH   7   9
HETATM    9  C   UNL     1     -40.166 -49.094  11.399  1.00  0.00     0.195 C 
BRANCH   9  10
HETATM   10  O   UNL     1     -40.323 -49.973  10.284  1.00  0.00    -0.398 OA
HETATM   11  H   UNL     1     -40.918 -50.694  10.554  1.00  0.00     0.209 HD
ENDBRANCH   9  10
ENDBRANCH   7   9
BRANCH   7  12
HETATM   12  C   UNL     1     -39.466 -48.830  13.860  1.00  0.00     0.015 C 
HETATM   13  C   UNL     1     -38.572 -47.571  13.909  1.00  0.00     0.007 C 
HETATM   14  C   UNL     1     -37.132 -47.794  14.372  1.00  0.00     0.000 C 
HETATM   15  C   UNL     1     -36.959 -48.763  15.540  1.00  0.00     0.000 C 
HETATM   16  C   UNL     1     -37.906 -49.957  15.532  1.00  0.00     0.000 C 
HETATM   17  C   UNL     1     -39.333 -49.537  15.225  1.00  0.00     0.007 C 
ENDBRANCH   7  12
ENDBRANCH   4   7
BRANCH   1  18
HETATM   18  C   UNL     1     -42.802 -53.309  12.784  1.00  0.00     0.132 A 
HETATM   19  C   UNL     1     -43.276 -54.215  13.763  1.00  0.00     0.084 A 
HETATM   20  C   UNL     1     -44.582 -54.457  13.410  1.00  0.00     0.076 A 
HETATM   21  C   UNL     1     -45.689 -55.255  13.961  1.00  0.00     0.079 C 
HETATM   22  O   UNL     1     -44.871 -53.761  12.282  1.00  0.00    -0.241 OA
HETATM   23  N   UNL     1     -43.766 -53.046  11.896  1.00  0.00    -0.245 N 
ATOM     24  HN  UNL     1     -43.693 -52.431  11.085  1.00  0.00     0.196 HD
ENDBRANCH   1  18
TORSDOF 5
ENDMDL
MODEL 4
REMARK VINA RESULT:      -6.1      2.917      4.805
REMARK  5 active torsions:
REMARK  status: ('A' for Active; 'I' for Inactive)
REMARK    1  A    between atoms: C_4  and  N_5 
REMARK       I    between atoms: N_5  and  C_6 
REMARK       I    between atoms: C_6  and  N_8 
REMARK    2  A    between atoms: N_8  and  C_9 
REMARK    3  A    between atoms: C_9  and  C_11 
REMARK    4  A    between atoms: C_9  and  C_13 
REMARK    5  A    between atoms: C_11  and  O_12 
ROOT
HETATM    1  N   UNL     1     -42.063 -49.703  11.385  1.00  0.00    -0.293 N 
HETATM    2  C   UNL     1     -42.165 -50.482  12.516  1.00  0.00     0.322 C 
HETATM    3  O   UNL     1     -41.502 -50.355  13.533  1.00  0.00    -0.247 OA
HETATM    4  N   UNL     1     -43.100 -51.489  12.371  1.00  0.00    -0.331 N 
HETATM    5  H   UNL     1     -42.573 -49.949  10.555  1.00  0.00     0.172 HD
HETATM    6  H   UNL     1     -43.677 -51.473  11.547  1.00  0.00     0.165 HD
ENDROOT
BRANCH   4   7
HETATM    7  C   UNL     1     -43.290 -52.642  13.295  1.00  0.00     0.055 C 
HETATM    8  C   UNL     1     -44.127 -53.777  12.644  1.00  0.00     0.041 C 
BRANCH   7   9
HETATM    9  C   UNL     1     -41.860 -53.247  13.529  1.00  0.00     0.195 C 
BRANCH   9  10
HETATM   10  O   UNL     1     -41.501 -54.200  12.527  1.00  0.00    -0.398 OA
HETATM   11  H   UNL     1     -41.949 -53.947  11.701  1.00  0.00     0.209 HD
ENDBRANCH   9  10
ENDBRANCH   7   9
BRANCH   7  12
HETATM   12  C   UNL     1     -43.923 -52.250  14.698  1.00  0.00     0.015 C 
HETATM   13  C   UNL     1     -44.558 -53.383  15.534  1.00  0.00     0.007 C 
HETATM   14  C   UNL     1     -45.992 -53.763  15.162  1.00  0.00     0.000 C 
HETATM   15  C   UNL     1     -46.918 -52.593  14.837  1.00  0.00     0.000 C 
HETATM   16  C   UNL     1     -46.262 -51.440  14.088  1.00  0.00     0.000 C 
HETATM   17  C   UNL     1     -44.919 -51.072  14.696  1.00  0.00     0.007 C 
ENDBRANCH   7  12
ENDBRANCH   4   7
BRANCH   1  18
HETATM   18  C   UNL     1     -41.163 -48.647  11.283  1.00  0.00     0.132 A 
HETATM   19  C   UNL     1     -41.500 -47.331  10.883  1.00  0.00     0.084 A 
HETATM   20  C   UNL     1     -40.317 -46.634  10.948  1.00  0.00     0.076 A 
HETATM   21  C   UNL     1     -39.903 -45.243  10.710  1.00  0.00     0.079 C 
HETATM   22  O   UNL     1     -39.329 -47.477  11.340  1.00  0.00    -0.241 OA
HETATM   23  N   UNL     1     -39.856 -48.726  11.551  1.00  0.00    -0.245 N 
ATOM     24  HN  UNL     1     -39.347 -49.556  11.854  1.00  0.00     0.196 HD
ENDBRANCH   1  18
TORSDOF 5
ENDMDL
MODEL 5
REMARK VINA RESULT:      -6.1      2.274      6.405
REMARK  5 active torsions:
REMARK  status: ('A' for Active; 'I' for Inactive)
REMARK    1  A    between atoms: C_4  and  N_5 
REMARK       I    between atoms: N_5  and  C_6 
REMARK       I    between atoms: C_6  and  N_8 
REMARK    2  A    between atoms: N_8  and  C_9 
REMARK    3  A    between atoms: C_9  and  C_11 
REMARK    4  A    between atoms: C_9  and  C_13 
REMARK    5  A    between atoms: C_11  and  O_12 
ROOT
HETATM    1  N   UNL     1     -39.864 -49.443  11.171  1.00  0.00    -0.293 N 
HETATM    2  C   UNL     1     -39.892 -48.204  11.772  1.00  0.00     0.322 C 
HETATM    3  O   UNL     1     -39.909 -47.993  12.974  1.00  0.00    -0.247 OA
HETATM    4  N   UNL     1     -39.942 -47.179  10.847  1.00  0.00    -0.331 N 
HETATM    5  H   UNL     1     -39.961 -49.523  10.174  1.00  0.00     0.172 HD
HETATM    6  H   UNL     1     -39.825 -47.420   9.877  1.00  0.00     0.165 HD
ENDROOT
BRANCH   4   7
HETATM    7  C   UNL     1     -40.221 -45.746  11.147  1.00  0.00     0.055 C 
HETATM    8  C   UNL     1     -39.592 -45.302  12.496  1.00  0.00     0.041 C 
BRANCH   7   9
HETATM    9  C   UNL     1     -39.478 -44.920  10.037  1.00  0.00     0.195 C 
BRANCH   9  10
HETATM   10  O   UNL     1     -39.983 -43.589   9.918  1.00  0.00    -0.398 OA
HETATM   11  H   UNL     1     -39.302 -42.981  10.252  1.00  0.00     0.209 HD
ENDBRANCH   9  10
ENDBRANCH   7   9
BRANCH   7  12
HETATM   12  C   UNL     1     -41.764 -45.369  11.129  1.00  0.00     0.015 C 
HETATM   13  C   UNL     1     -42.585 -45.669  12.401  1.00  0.00     0.007 C 
HETATM   14  C   UNL     1     -43.092 -47.105  12.545  1.00  0.00     0.000 C 
HETATM   15  C   UNL     1     -43.615 -47.748  11.263  1.00  0.00     0.000 C 
HETATM   16  C   UNL     1     -42.852 -47.377   9.997  1.00  0.00     0.000 C 
HETATM   17  C   UNL     1     -42.581 -45.884   9.926  1.00  0.00     0.007 C 
ENDBRANCH   7  12
ENDBRANCH   4   7
BRANCH   1  18
HETATM   18  C   UNL     1     -39.845 -50.626  11.901  1.00  0.00     0.132 A 
HETATM   19  C   UNL     1     -40.898 -51.573  11.936  1.00  0.00     0.084 A 
HETATM   20  C   UNL     1     -40.436 -52.576  12.757  1.00  0.00     0.076 A 
HETATM   21  C   UNL     1     -40.955 -53.869  13.228  1.00  0.00     0.079 C 
HETATM   22  O   UNL     1     -39.198 -52.246  13.202  1.00  0.00    -0.241 OA
HETATM   23  N   UNL     1     -38.831 -51.038  12.669  1.00  0.00    -0.245 N 
ATOM     24  HN  UNL     1     -37.951 -50.546  12.827  1.00  0.00     0.196 HD
ENDBRANCH   1  18
TORSDOF 5
ENDMDL
MODEL 6
REMARK VINA RESULT:      -6.0      1.962      2.691
REMARK  5 active torsions:
REMARK  status: ('A' for Active; 'I' for Inactive)
REMARK    1  A    between atoms: C_4  and  N_5 
REMARK       I    between atoms: N_5  and  C_6 
REMARK       I    between atoms: C_6  and  N_8 
REMARK    2  A    between atoms: N_8  and  C_9 
REMARK    3  A    between atoms: C_9  and  C_11 
REMARK    4  A    between atoms: C_9  and  C_13 
REMARK    5  A    between atoms: C_11  and  O_12 
ROOT
HETATM    1  N   UNL     1     -41.430 -47.954  10.010  1.00  0.00    -0.293 N 
HETATM    2  C   UNL     1     -41.129 -48.886  10.977  1.00  0.00     0.322 C 
HETATM    3  O   UNL     1     -41.917 -49.668  11.486  1.00  0.00    -0.247 OA
HETATM    4  N   UNL     1     -39.804 -48.825  11.364  1.00  0.00    -0.331 N 
HETATM    5  H   UNL     1     -40.741 -47.279   9.727  1.00  0.00     0.172 HD
HETATM    6  H   UNL     1     -39.192 -48.227  10.835  1.00  0.00     0.165 HD
ENDROOT
BRANCH   4   7
HETATM    7  C   UNL     1     -39.207 -49.515  12.542  1.00  0.00     0.055 C 
HETATM    8  C   UNL     1     -39.766 -50.953  12.718  1.00  0.00     0.041 C 
BRANCH   7   9
HETATM    9  C   UNL     1     -37.681 -49.688  12.213  1.00  0.00     0.195 C 
BRANCH   9  10
HETATM   10  O   UNL     1     -37.297 -51.061  12.116  1.00  0.00    -0.398 OA
HETATM   11  H   UNL     1     -37.398 -51.334  11.188  1.00  0.00     0.209 HD
ENDBRANCH   9  10
ENDBRANCH   7   9
BRANCH   7  12
HETATM   12  C   UNL     1     -39.355 -48.715  13.906  1.00  0.00     0.015 C 
HETATM   13  C   UNL     1     -38.487 -47.451  14.087  1.00  0.00     0.007 C 
HETATM   14  C   UNL     1     -37.051 -47.690  14.558  1.00  0.00     0.000 C 
HETATM   15  C   UNL     1     -36.882 -48.759  15.635  1.00  0.00     0.000 C 
HETATM   16  C   UNL     1     -37.804 -49.964  15.499  1.00  0.00     0.000 C 
HETATM   17  C   UNL     1     -39.234 -49.542  15.203  1.00  0.00     0.007 C 
ENDBRANCH   7  12
ENDBRANCH   4   7
BRANCH   1  18
HETATM   18  C   UNL     1     -42.710 -47.805   9.488  1.00  0.00     0.132 A 
HETATM   19  C   UNL     1     -43.851 -47.428  10.236  1.00  0.00     0.084 A 
HETATM   20  C   UNL     1     -44.873 -47.389   9.317  1.00  0.00     0.076 A 
HETATM   21  C   UNL     1     -46.306 -47.058   9.353  1.00  0.00     0.079 C 
HETATM   22  O   UNL     1     -44.386 -47.739   8.101  1.00  0.00    -0.241 OA
HETATM   23  N   UNL     1     -43.043 -47.994   8.206  1.00  0.00    -0.245 N 
ATOM     24  HN  UNL     1     -42.416 -48.275   7.452  1.00  0.00     0.196 HD
ENDBRANCH   1  18
TORSDOF 5
ENDMDL
MODEL 7
REMARK VINA RESULT:      -5.9      6.347      8.988
REMARK  5 active torsions:
REMARK  status: ('A' for Active; 'I' for Inactive)
REMARK    1  A    between atoms: C_4  and  N_5 
REMARK       I    between atoms: N_5  and  C_6 
REMARK       I    between atoms: C_6  and  N_8 
REMARK    2  A    between atoms: N_8  and  C_9 
REMARK    3  A    between atoms: C_9  and  C_11 
REMARK    4  A    between atoms: C_9  and  C_13 
REMARK    5  A    between atoms: C_11  and  O_12 
ROOT
HETATM    1  N   UNL     1     -42.100 -54.418  16.207  1.00  0.00    -0.293 N 
HETATM    2  C   UNL     1     -43.237 -54.669  15.471  1.00  0.00     0.322 C 
HETATM    3  O   UNL     1     -43.522 -55.729  14.936  1.00  0.00    -0.247 OA
HETATM    4  N   UNL     1     -44.038 -53.549  15.354  1.00  0.00    -0.331 N 
HETATM    5  H   UNL     1     -41.896 -53.485  16.518  1.00  0.00     0.172 HD
HETATM    6  H   UNL     1     -43.792 -52.741  15.900  1.00  0.00     0.165 HD
ENDROOT
BRANCH   4   7
HETATM    7  C   UNL     1     -45.205 -53.403  14.438  1.00  0.00     0.055 C 
HETATM    8  C   UNL     1     -44.917 -53.998  13.033  1.00  0.00     0.041 C 
BRANCH   7   9
HETATM    9  C   UNL     1     -46.347 -54.289  15.051  1.00  0.00     0.195 C 
BRANCH   9  10
HETATM   10  O   UNL     1     -46.538 -55.507  14.329  1.00  0.00    -0.398 OA
HETATM   11  H   UNL     1     -45.768 -55.635  13.749  1.00  0.00     0.209 HD
ENDBRANCH   9  10
ENDBRANCH   7   9
BRANCH   7  12
HETATM   12  C   UNL     1     -45.729 -51.911  14.289  1.00  0.00     0.015 C 
HETATM   13  C   UNL     1     -44.670 -50.795  14.159  1.00  0.00     0.007 C 
HETATM   14  C   UNL     1     -44.066 -50.293  15.472  1.00  0.00     0.000 C 
HETATM   15  C   UNL     1     -45.051 -50.129  16.628  1.00  0.00     0.000 C 
HETATM   16  C   UNL     1     -46.146 -51.186  16.697  1.00  0.00     0.000 C 
HETATM   17  C   UNL     1     -46.763 -51.441  15.332  1.00  0.00     0.007 C 
ENDBRANCH   7  12
ENDBRANCH   4   7
BRANCH   1  18
HETATM   18  C   UNL     1     -41.127 -55.385  16.432  1.00  0.00     0.132 A 
HETATM   19  C   UNL     1     -41.256 -56.472  17.330  1.00  0.00     0.084 A 
HETATM   20  C   UNL     1     -40.075 -57.166  17.209  1.00  0.00     0.076 A 
HETATM   21  C   UNL     1     -39.513 -58.392  17.796  1.00  0.00     0.079 C 
HETATM   22  O   UNL     1     -39.280 -56.530  16.314  1.00  0.00    -0.241 OA
HETATM   23  N   UNL     1     -39.934 -55.426  15.829  1.00  0.00    -0.245 N 
ATOM     24  HN  UNL     1     -39.578 -54.763  15.141  1.00  0.00     0.196 HD
ENDBRANCH   1  18
TORSDOF 5
ENDMDL
MODEL 8
REMARK VINA RESULT:      -5.9      2.975      5.629
REMARK  5 active torsions:
REMARK  status: ('A' for Active; 'I' for Inactive)
REMARK    1  A    between atoms: C_4  and  N_5 
REMARK       I    between atoms: N_5  and  C_6 
REMARK       I    between atoms: C_6  and  N_8 
REMARK    2  A    between atoms: N_8  and  C_9 
REMARK    3  A    between atoms: C_9  and  C_11 
REMARK    4  A    between atoms: C_9  and  C_13 
REMARK    5  A    between atoms: C_11  and  O_12 
ROOT
HETATM    1  N   UNL     1     -43.409 -51.081  12.670  1.00  0.00    -0.293 N 
HETATM    2  C   UNL     1     -42.041 -50.947  12.599  1.00  0.00     0.322 C 
HETATM    3  O   UNL     1     -41.229 -51.857  12.667  1.00  0.00    -0.247 OA
HETATM    4  N   UNL     1     -41.653 -49.627  12.480  1.00  0.00    -0.331 N 
HETATM    5  H   UNL     1     -43.995 -50.266  12.715  1.00  0.00     0.172 HD
HETATM    6  H   UNL     1     -42.374 -48.941  12.331  1.00  0.00     0.165 HD
ENDROOT
BRANCH   4   7
HETATM    7  C   UNL     1     -40.262 -49.110  12.618  1.00  0.00     0.055 C 
HETATM    8  C   UNL     1     -39.555 -49.676  13.879  1.00  0.00     0.041 C 
BRANCH   7   9
HETATM    9  C   UNL     1     -39.467 -49.681  11.390  1.00  0.00     0.195 C 
BRANCH   9  10
HETATM   10  O   UNL     1     -40.325 -50.051  10.309  1.00  0.00    -0.398 OA
HETATM   11  H   UNL     1     -40.168 -49.431   9.577  1.00  0.00     0.209 HD
ENDBRANCH   9  10
ENDBRANCH   7   9
BRANCH   7  12
HETATM   12  C   UNL     1     -40.156 -47.525  12.613  1.00  0.00     0.015 C 
HETATM   13  C   UNL     1     -41.110 -46.746  13.543  1.00  0.00     0.007 C 
HETATM   14  C   UNL     1     -42.519 -46.503  13.002  1.00  0.00     0.000 C 
HETATM   15  C   UNL     1     -42.600 -46.131  11.523  1.00  0.00     0.000 C 
HETATM   16  C   UNL     1     -41.595 -46.841  10.623  1.00  0.00     0.000 C 
HETATM   17  C   UNL     1     -40.203 -46.840  11.232  1.00  0.00     0.007 C 
ENDBRANCH   7  12
ENDBRANCH   4   7
BRANCH   1  18
HETATM   18  C   UNL     1     -44.033 -52.315  12.826  1.00  0.00     0.132 A 
HETATM   19  C   UNL     1     -44.886 -52.661  13.902  1.00  0.00     0.084 A 
HETATM   20  C   UNL     1     -45.279 -53.951  13.632  1.00  0.00     0.076 A 
HETATM   21  C   UNL     1     -46.164 -54.935  14.275  1.00  0.00     0.079 C 
HETATM   22  O   UNL     1     -44.687 -54.362  12.484  1.00  0.00    -0.241 OA
HETATM   23  N   UNL     1     -43.916 -53.345  11.982  1.00  0.00    -0.245 N 
ATOM     24  HN  UNL     1     -43.358 -53.370  11.128  1.00  0.00     0.196 HD
ENDBRANCH   1  18
TORSDOF 5
ENDMDL
MODEL 9
REMARK VINA RESULT:      -5.8      2.110      3.903
REMARK  5 active torsions:
REMARK  status: ('A' for Active; 'I' for Inactive)
REMARK    1  A    between atoms: C_4  and  N_5 
REMARK       I    between atoms: N_5  and  C_6 
REMARK       I    between atoms: C_6  and  N_8 
REMARK    2  A    between atoms: N_8  and  C_9 
REMARK    3  A    between atoms: C_9  and  C_11 
REMARK    4  A    between atoms: C_9  and  C_13 
REMARK    5  A    between atoms: C_11  and  O_12 
ROOT
HETATM    1  N   UNL     1     -41.218 -49.000  10.635  1.00  0.00    -0.293 N 
HETATM    2  C   UNL     1     -41.404 -49.637  11.842  1.00  0.00     0.322 C 
HETATM    3  O   UNL     1     -41.597 -49.090  12.916  1.00  0.00    -0.247 OA
HETATM    4  N   UNL     1     -41.310 -51.011  11.724  1.00  0.00    -0.331 N 
HETATM    5  H   UNL     1     -40.957 -49.528   9.820  1.00  0.00     0.172 HD
HETATM    6  H   UNL     1     -41.249 -51.395  10.797  1.00  0.00     0.165 HD
ENDROOT
BRANCH   4   7
HETATM    7  C   UNL     1     -41.222 -51.978  12.854  1.00  0.00     0.055 C 
HETATM    8  C   UNL     1     -40.941 -53.424  12.361  1.00  0.00     0.041 C 
BRANCH   7   9
HETATM    9  C   UNL     1     -39.956 -51.558  13.684  1.00  0.00     0.195 C 
BRANCH   9  10
HETATM   10  O   UNL     1     -38.736 -51.832  12.993  1.00  0.00    -0.398 OA
HETATM   11  H   UNL     1     -38.006 -51.468  13.522  1.00  0.00     0.209 HD
ENDBRANCH   9  10
ENDBRANCH   7   9
BRANCH   7  12
HETATM   12  C   UNL     1     -42.491 -51.977  13.809  1.00  0.00     0.015 C 
HETATM   13  C   UNL     1     -42.592 -53.103  14.860  1.00  0.00     0.007 C 
HETATM   14  C   UNL     1     -43.156 -54.434  14.360  1.00  0.00     0.000 C 
HETATM   15  C   UNL     1     -44.340 -54.328  13.401  1.00  0.00     0.000 C 
HETATM   16  C   UNL     1     -44.275 -53.161  12.424  1.00  0.00     0.000 C 
HETATM   17  C   UNL     1     -43.867 -51.873  13.119  1.00  0.00     0.007 C 
ENDBRANCH   7  12
ENDBRANCH   4   7
BRANCH   1  18
HETATM   18  C   UNL     1     -41.235 -47.615  10.511  1.00  0.00     0.132 A 
HETATM   19  C   UNL     1     -40.261 -46.740  11.050  1.00  0.00     0.084 A 
HETATM   20  C   UNL     1     -40.671 -45.485  10.667  1.00  0.00     0.076 A 
HETATM   21  C   UNL     1     -40.156 -44.116  10.833  1.00  0.00     0.079 C 
HETATM   22  O   UNL     1     -41.824 -45.593   9.963  1.00  0.00    -0.241 OA
HETATM   23  N   UNL     1     -42.173 -46.915   9.863  1.00  0.00    -0.245 N 
ATOM     24  HN  UNL     1     -42.992 -47.294   9.387  1.00  0.00     0.196 HD
ENDBRANCH   1  18
TORSDOF 5
ENDMDL
