MODEL 1
REMARK VINA RESULT:      -5.5      0.000      0.000
REMARK  4 active torsions:
REMARK  status: ('A' for Active; 'I' for Inactive)
REMARK    1  A    between atoms: C_2  and  N_3 
REMARK    2  A    between atoms: C_2  and  C_14 
REMARK       I    between atoms: N_3  and  C_4 
REMARK    3  A    between atoms: C_4  and  C_6 
REMARK    4  A    between atoms: C_6  and  N_8 
REMARK       I    between atoms: C_14  and  N_16 
ROOT
HETATM    1  N   UNL     1     -41.880 -48.171   9.674  1.00  0.00    -0.346 N 
HETATM    2  C   UNL     1     -41.725 -48.777  10.905  1.00  0.00     0.242 C 
HETATM    3  O   UNL     1     -42.650 -48.827  11.716  1.00  0.00    -0.271 OA
HETATM    4  H   UNL     1     -41.062 -48.012   9.095  1.00  0.00     0.163 HD
ENDROOT
BRANCH   2   5
HETATM    5  C   UNL     1     -40.337 -49.340  11.193  1.00  0.00     0.195 C 
HETATM    6  C   UNL     1     -39.486 -48.337  11.969  1.00  0.00     0.044 C 
BRANCH   5   7
HETATM    7  N   UNL     1     -40.430 -50.614  11.898  1.00  0.00    -0.290 N 
HETATM    8  C   UNL     1     -39.808 -50.972  13.064  1.00  0.00     0.112 A 
HETATM    9  C   UNL     1     -40.109 -52.297  13.271  1.00  0.00     0.037 A 
HETATM   10  C   UNL     1     -40.922 -52.651  12.179  1.00  0.00     0.108 A 
HETATM   11  N   UNL     1     -41.128 -51.629  11.345  1.00  0.00    -0.309 N 
ATOM     12  HN  UNL     1     -41.683 -51.617  10.490  1.00  0.00     0.186 HD
ENDBRANCH   5   7
ENDBRANCH   2   5
BRANCH   1  13
HETATM   13  C   UNL     1     -43.138 -47.537   9.273  1.00  0.00     0.172 C 
HETATM   14  C   UNL     1     -43.461 -47.853   7.819  1.00  0.00     0.042 C 
BRANCH  13  15
HETATM   15  C   UNL     1     -43.095 -46.009   9.504  1.00  0.00     0.237 C 
HETATM   16  O   UNL     1     -42.100 -45.388   9.864  1.00  0.00    -0.271 OA
HETATM   17  N   UNL     1     -44.249 -45.340   9.202  1.00  0.00    -0.368 N 
HETATM   18  H   UNL     1     -44.994 -45.810   8.689  1.00  0.00     0.159 HD
HETATM   19  H   UNL     1     -44.227 -44.330   9.211  1.00  0.00     0.159 HD
ENDBRANCH  13  15
ENDBRANCH   1  13
TORSDOF 4
ENDMDL
MODEL 2
REMARK VINA RESULT:      -5.5      1.792      2.027
REMARK  4 active torsions:
REMARK  status: ('A' for Active; 'I' for Inactive)
REMARK    1  A    between atoms: C_2  and  N_3 
REMARK    2  A    between atoms: C_2  and  C_14 
REMARK       I    between atoms: N_3  and  C_4 
REMARK    3  A    between atoms: C_4  and  C_6 
REMARK    4  A    between atoms: C_6  and  N_8 
REMARK       I    between atoms: C_14  and  N_16 
ROOT
HETATM    1  N   UNL     1     -42.183 -47.012   9.545  1.00  0.00    -0.346 N 
HETATM    2  C   UNL     1     -41.715 -47.689  10.653  1.00  0.00     0.242 C 
HETATM    3  O   UNL     1     -42.399 -48.541  11.220  1.00  0.00    -0.271 OA
HETATM    4  H   UNL     1     -41.662 -46.213   9.197  1.00  0.00     0.163 HD
ENDROOT
BRANCH   2   5
HETATM    5  C   UNL     1     -40.324 -47.287  11.133  1.00  0.00     0.195 C 
HETATM    6  C   UNL     1     -40.398 -46.122  12.119  1.00  0.00     0.044 C 
BRANCH   5   7
HETATM    7  N   UNL     1     -39.625 -48.428  11.713  1.00  0.00    -0.290 N 
HETATM    8  C   UNL     1     -38.941 -48.477  12.897  1.00  0.00     0.112 A 
HETATM    9  C   UNL     1     -38.362 -49.722  12.958  1.00  0.00     0.037 A 
HETATM   10  C   UNL     1     -38.758 -50.356  11.766  1.00  0.00     0.108 A 
HETATM   11  N   UNL     1     -39.534 -49.577  11.009  1.00  0.00    -0.309 N 
ATOM     12  HN  UNL     1     -39.958 -49.798  10.108  1.00  0.00     0.186 HD
ENDBRANCH   5   7
ENDBRANCH   2   5
BRANCH   1  13
HETATM   13  C   UNL     1     -43.521 -47.249   8.997  1.00  0.00     0.172 C 
HETATM   14  C   UNL     1     -43.432 -47.888   7.617  1.00  0.00     0.042 C 
BRANCH  13  15
HETATM   15  C   UNL     1     -44.345 -45.942   8.942  1.00  0.00     0.237 C 
HETATM   16  O   UNL     1     -43.861 -44.814   8.940  1.00  0.00    -0.271 OA
HETATM   17  N   UNL     1     -45.697 -46.109   8.815  1.00  0.00    -0.368 N 
HETATM   18  H   UNL     1     -46.080 -47.025   8.585  1.00  0.00     0.159 HD
HETATM   19  H   UNL     1     -46.260 -45.288   8.643  1.00  0.00     0.159 HD
ENDBRANCH  13  15
ENDBRANCH   1  13
TORSDOF 4
ENDMDL
MODEL 3
REMARK VINA RESULT:      -5.3      2.654      4.165
REMARK  4 active torsions:
REMARK  status: ('A' for Active; 'I' for Inactive)
REMARK    1  A    between atoms: C_2  and  N_3 
REMARK    2  A    between atoms: C_2  and  C_14 
REMARK       I    between atoms: N_3  and  C_4 
REMARK    3  A    between atoms: C_4  and  C_6 
REMARK    4  A    between atoms: C_6  and  N_8 
REMARK       I    between atoms: C_14  and  N_16 
ROOT
HETATM    1  N   UNL     1     -42.532 -47.241   9.735  1.00  0.00    -0.346 N 
HETATM    2  C   UNL     1     -42.436 -47.631  11.056  1.00  0.00     0.242 C 
HETATM    3  O   UNL     1     -43.393 -48.130  11.648  1.00  0.00    -0.271 OA
HETATM    4  H   UNL     1     -41.780 -46.696   9.325  1.00  0.00     0.163 HD
ENDROOT
BRANCH   2   5
HETATM    5  C   UNL     1     -41.090 -47.372  11.725  1.00  0.00     0.195 C 
HETATM    6  C   UNL     1     -40.114 -48.517  11.461  1.00  0.00     0.044 C 
BRANCH   5   7
HETATM    7  N   UNL     1     -40.534 -46.094  11.296  1.00  0.00    -0.290 N 
HETATM    8  C   UNL     1     -40.891 -44.841  11.718  1.00  0.00     0.112 A 
HETATM    9  C   UNL     1     -40.173 -43.956  10.952  1.00  0.00     0.037 A 
HETATM   10  C   UNL     1     -39.405 -44.767  10.097  1.00  0.00     0.108 A 
HETATM   11  N   UNL     1     -39.613 -46.069  10.308  1.00  0.00    -0.309 N 
ATOM     12  HN  UNL     1     -39.179 -46.860   9.833  1.00  0.00     0.186 HD
ENDBRANCH   5   7
ENDBRANCH   2   5
BRANCH   1  13
HETATM   13  C   UNL     1     -43.776 -47.376   8.973  1.00  0.00     0.172 C 
HETATM   14  C   UNL     1     -43.499 -47.947   7.589  1.00  0.00     0.042 C 
BRANCH  13  15
HETATM   15  C   UNL     1     -44.520 -46.024   8.869  1.00  0.00     0.237 C 
HETATM   16  O   UNL     1     -43.969 -44.927   8.847  1.00  0.00    -0.271 OA
HETATM   17  N   UNL     1     -45.876 -46.115   8.721  1.00  0.00    -0.368 N 
HETATM   18  H   UNL     1     -46.309 -47.012   8.507  1.00  0.00     0.159 HD
HETATM   19  H   UNL     1     -46.387 -45.267   8.517  1.00  0.00     0.159 HD
ENDBRANCH  13  15
ENDBRANCH   1  13
TORSDOF 4
ENDMDL
MODEL 4
REMARK VINA RESULT:      -5.2      5.188      7.275
REMARK  4 active torsions:
REMARK  status: ('A' for Active; 'I' for Inactive)
REMARK    1  A    between atoms: C_2  and  N_3 
REMARK    2  A    between atoms: C_2  and  C_14 
REMARK       I    between atoms: N_3  and  C_4 
REMARK    3  A    between atoms: C_4  and  C_6 
REMARK    4  A    between atoms: C_6  and  N_8 
REMARK       I    between atoms: C_14  and  N_16 
ROOT
HETATM    1  N   UNL     1     -43.207 -52.833  13.337  1.00  0.00    -0.346 N 
HETATM    2  C   UNL     1     -44.489 -53.141  12.929  1.00  0.00     0.242 C 
HETATM    3  O   UNL     1     -44.750 -54.218  12.392  1.00  0.00    -0.271 OA
HETATM    4  H   UNL     1     -42.997 -51.885  13.633  1.00  0.00     0.163 HD
ENDROOT
BRANCH   2   5
HETATM    5  C   UNL     1     -45.535 -52.054  13.160  1.00  0.00     0.195 C 
HETATM    6  C   UNL     1     -46.602 -52.076  12.066  1.00  0.00     0.044 C 
BRANCH   5   7
HETATM    7  N   UNL     1     -46.131 -52.179  14.484  1.00  0.00    -0.290 N 
HETATM    8  C   UNL     1     -46.972 -51.299  15.111  1.00  0.00     0.112 A 
HETATM    9  C   UNL     1     -47.174 -51.792  16.377  1.00  0.00     0.037 A 
HETATM   10  C   UNL     1     -46.417 -52.977  16.422  1.00  0.00     0.108 A 
HETATM   11  N   UNL     1     -45.787 -53.223  15.271  1.00  0.00    -0.309 N 
ATOM     12  HN  UNL     1     -45.186 -54.013  15.039  1.00  0.00     0.186 HD
ENDBRANCH   5   7
ENDBRANCH   2   5
BRANCH   1  13
HETATM   13  C   UNL     1     -42.085 -53.753  13.135  1.00  0.00     0.172 C 
HETATM   14  C   UNL     1     -41.619 -54.333  14.464  1.00  0.00     0.042 C 
BRANCH  13  15
HETATM   15  C   UNL     1     -40.915 -53.059  12.401  1.00  0.00     0.237 C 
HETATM   16  O   UNL     1     -39.770 -52.978  12.837  1.00  0.00    -0.271 OA
HETATM   17  N   UNL     1     -41.209 -52.584  11.153  1.00  0.00    -0.368 N 
HETATM   18  H   UNL     1     -42.080 -52.849  10.696  1.00  0.00     0.159 HD
HETATM   19  H   UNL     1     -40.446 -52.243  10.585  1.00  0.00     0.159 HD
ENDBRANCH  13  15
ENDBRANCH   1  13
TORSDOF 4
ENDMDL
MODEL 5
REMARK VINA RESULT:      -5.0      2.935      6.156
REMARK  4 active torsions:
REMARK  status: ('A' for Active; 'I' for Inactive)
REMARK    1  A    between atoms: C_2  and  N_3 
REMARK    2  A    between atoms: C_2  and  C_14 
REMARK       I    between atoms: N_3  and  C_4 
REMARK    3  A    between atoms: C_4  and  C_6 
REMARK    4  A    between atoms: C_6  and  N_8 
REMARK       I    between atoms: C_14  and  N_16 
ROOT
HETATM    1  N   UNL     1     -39.263 -48.881  11.539  1.00  0.00    -0.346 N 
HETATM    2  C   UNL     1     -40.597 -48.607  11.763  1.00  0.00     0.242 C 
HETATM    3  O   UNL     1     -41.186 -49.052  12.748  1.00  0.00    -0.271 OA
HETATM    4  H   UNL     1     -38.849 -48.630  10.646  1.00  0.00     0.163 HD
ENDROOT
BRANCH   2   5
HETATM    5  C   UNL     1     -41.282 -47.754  10.700  1.00  0.00     0.195 C 
HETATM    6  C   UNL     1     -42.802 -47.896  10.775  1.00  0.00     0.044 C 
BRANCH   5   7
HETATM    7  N   UNL     1     -40.875 -46.358  10.813  1.00  0.00    -0.290 N 
HETATM    8  C   UNL     1     -41.514 -45.351  11.485  1.00  0.00     0.112 A 
HETATM    9  C   UNL     1     -40.816 -44.199  11.209  1.00  0.00     0.037 A 
HETATM   10  C   UNL     1     -39.770 -44.612  10.365  1.00  0.00     0.108 A 
HETATM   11  N   UNL     1     -39.795 -45.925  10.127  1.00  0.00    -0.309 N 
ATOM     12  HN  UNL     1     -39.149 -46.474   9.560  1.00  0.00     0.186 HD
ENDBRANCH   5   7
ENDBRANCH   2   5
BRANCH   1  13
HETATM   13  C   UNL     1     -38.482 -49.731  12.442  1.00  0.00     0.172 C 
HETATM   14  C   UNL     1     -37.802 -48.892  13.515  1.00  0.00     0.042 C 
BRANCH  13  15
HETATM   15  C   UNL     1     -37.443 -50.571  11.664  1.00  0.00     0.237 C 
HETATM   16  O   UNL     1     -36.892 -51.577  12.104  1.00  0.00    -0.271 OA
HETATM   17  N   UNL     1     -37.212 -50.169  10.378  1.00  0.00    -0.368 N 
HETATM   18  H   UNL     1     -37.828 -49.488   9.936  1.00  0.00     0.159 HD
HETATM   19  H   UNL     1     -36.643 -50.764   9.791  1.00  0.00     0.159 HD
ENDBRANCH  13  15
ENDBRANCH   1  13
TORSDOF 4
ENDMDL
MODEL 6
REMARK VINA RESULT:      -4.9      1.747      2.000
REMARK  4 active torsions:
REMARK  status: ('A' for Active; 'I' for Inactive)
REMARK    1  A    between atoms: C_2  and  N_3 
REMARK    2  A    between atoms: C_2  and  C_14 
REMARK       I    between atoms: N_3  and  C_4 
REMARK    3  A    between atoms: C_4  and  C_6 
REMARK    4  A    between atoms: C_6  and  N_8 
REMARK       I    between atoms: C_14  and  N_16 
ROOT
HETATM    1  N   UNL     1     -42.283 -48.516  10.017  1.00  0.00    -0.346 N 
HETATM    2  C   UNL     1     -41.169 -48.156  10.748  1.00  0.00     0.242 C 
HETATM    3  O   UNL     1     -40.912 -46.976  10.986  1.00  0.00    -0.271 OA
HETATM    4  H   UNL     1     -42.383 -49.479   9.710  1.00  0.00     0.163 HD
ENDROOT
BRANCH   2   5
HETATM    5  C   UNL     1     -40.278 -49.308  11.203  1.00  0.00     0.195 C 
HETATM    6  C   UNL     1     -39.196 -48.820  12.167  1.00  0.00     0.044 C 
BRANCH   5   7
HETATM    7  N   UNL     1     -41.073 -50.377  11.797  1.00  0.00    -0.290 N 
HETATM    8  C   UNL     1     -41.841 -50.320  12.928  1.00  0.00     0.112 A 
HETATM    9  C   UNL     1     -42.302 -51.595  13.147  1.00  0.00     0.037 A 
HETATM   10  C   UNL     1     -41.763 -52.353  12.092  1.00  0.00     0.108 A 
HETATM   11  N   UNL     1     -41.022 -51.616  11.262  1.00  0.00    -0.309 N 
ATOM     12  HN  UNL     1     -40.531 -51.918  10.421  1.00  0.00     0.186 HD
ENDBRANCH   5   7
ENDBRANCH   2   5
BRANCH   1  13
HETATM   13  C   UNL     1     -43.206 -47.521   9.466  1.00  0.00     0.172 C 
HETATM   14  C   UNL     1     -44.364 -47.272  10.424  1.00  0.00     0.042 C 
BRANCH  13  15
HETATM   15  C   UNL     1     -43.728 -47.949   8.075  1.00  0.00     0.237 C 
HETATM   16  O   UNL     1     -43.011 -48.216   7.115  1.00  0.00    -0.271 OA
HETATM   17  N   UNL     1     -45.084 -48.095   7.981  1.00  0.00    -0.368 N 
HETATM   18  H   UNL     1     -45.658 -48.101   8.823  1.00  0.00     0.159 HD
HETATM   19  H   UNL     1     -45.459 -48.499   7.134  1.00  0.00     0.159 HD
ENDBRANCH  13  15
ENDBRANCH   1  13
TORSDOF 4
ENDMDL
MODEL 7
REMARK VINA RESULT:      -4.8      4.072      5.546
REMARK  4 active torsions:
REMARK  status: ('A' for Active; 'I' for Inactive)
REMARK    1  A    between atoms: C_2  and  N_3 
REMARK    2  A    between atoms: C_2  and  C_14 
REMARK       I    between atoms: N_3  and  C_4 
REMARK    3  A    between atoms: C_4  and  C_6 
REMARK    4  A    between atoms: C_6  and  N_8 
REMARK       I    between atoms: C_14  and  N_16 
ROOT
HETATM    1  N   UNL     1     -39.875 -51.129  11.916  1.00  0.00    -0.346 N 
HETATM    2  C   UNL     1     -40.563 -51.802  12.906  1.00  0.00     0.242 C 
HETATM    3  O   UNL     1     -40.304 -51.630  14.097  1.00  0.00    -0.271 OA
HETATM    4  H   UNL     1     -40.006 -51.405  10.948  1.00  0.00     0.163 HD
ENDROOT
BRANCH   2   5
HETATM    5  C   UNL     1     -41.628 -52.780  12.420  1.00  0.00     0.195 C 
HETATM    6  C   UNL     1     -41.361 -54.190  12.945  1.00  0.00     0.044 C 
BRANCH   5   7
HETATM    7  N   UNL     1     -42.962 -52.321  12.790  1.00  0.00    -0.290 N 
HETATM    8  C   UNL     1     -44.137 -53.019  12.719  1.00  0.00     0.112 A 
HETATM    9  C   UNL     1     -45.132 -52.137  13.064  1.00  0.00     0.037 A 
HETATM   10  C   UNL     1     -44.460 -50.931  13.332  1.00  0.00     0.108 A 
HETATM   11  N   UNL     1     -43.139 -51.039  13.176  1.00  0.00    -0.309 N 
ATOM     12  HN  UNL     1     -42.429 -50.320  13.315  1.00  0.00     0.186 HD
ENDBRANCH   5   7
ENDBRANCH   2   5
BRANCH   1  13
HETATM   13  C   UNL     1     -38.787 -50.197  12.223  1.00  0.00     0.172 C 
HETATM   14  C   UNL     1     -39.143 -48.787  11.767  1.00  0.00     0.042 C 
BRANCH  13  15
HETATM   15  C   UNL     1     -37.456 -50.658  11.587  1.00  0.00     0.237 C 
HETATM   16  O   UNL     1     -36.736 -51.542  12.043  1.00  0.00    -0.271 OA
HETATM   17  N   UNL     1     -37.139 -50.062  10.397  1.00  0.00    -0.368 N 
HETATM   18  H   UNL     1     -37.835 -49.505   9.903  1.00  0.00     0.159 HD
HETATM   19  H   UNL     1     -36.350 -50.425   9.882  1.00  0.00     0.159 HD
ENDBRANCH  13  15
ENDBRANCH   1  13
TORSDOF 4
ENDMDL
MODEL 8
REMARK VINA RESULT:      -4.7      2.383      5.788
REMARK  4 active torsions:
REMARK  status: ('A' for Active; 'I' for Inactive)
REMARK    1  A    between atoms: C_2  and  N_3 
REMARK    2  A    between atoms: C_2  and  C_14 
REMARK       I    between atoms: N_3  and  C_4 
REMARK    3  A    between atoms: C_4  and  C_6 
REMARK    4  A    between atoms: C_6  and  N_8 
REMARK       I    between atoms: C_14  and  N_16 
ROOT
HETATM    1  N   UNL     1     -39.471 -49.364  12.746  1.00  0.00    -0.346 N 
HETATM    2  C   UNL     1     -40.465 -49.114  11.821  1.00  0.00     0.242 C 
HETATM    3  O   UNL     1     -40.901 -50.005  11.092  1.00  0.00    -0.271 OA
HETATM    4  H   UNL     1     -39.029 -48.583  13.220  1.00  0.00     0.163 HD
ENDROOT
BRANCH   2   5
HETATM    5  C   UNL     1     -40.951 -47.670  11.749  1.00  0.00     0.195 C 
HETATM    6  C   UNL     1     -39.832 -46.735  11.293  1.00  0.00     0.044 C 
BRANCH   5   7
HETATM    7  N   UNL     1     -42.119 -47.558  10.884  1.00  0.00    -0.290 N 
HETATM    8  C   UNL     1     -43.427 -47.406  11.259  1.00  0.00     0.112 A 
HETATM    9  C   UNL     1     -44.170 -47.463  10.104  1.00  0.00     0.037 A 
HETATM   10  C   UNL     1     -43.222 -47.646   9.081  1.00  0.00     0.108 A 
HETATM   11  N   UNL     1     -41.972 -47.696   9.548  1.00  0.00    -0.309 N 
ATOM     12  HN  UNL     1     -41.108 -47.812   9.020  1.00  0.00     0.186 HD
ENDBRANCH   5   7
ENDBRANCH   2   5
BRANCH   1  13
HETATM   13  C   UNL     1     -38.866 -50.690  12.897  1.00  0.00     0.172 C 
HETATM   14  C   UNL     1     -38.510 -50.956  14.354  1.00  0.00     0.042 C 
BRANCH  13  15
HETATM   15  C   UNL     1     -37.621 -50.844  11.993  1.00  0.00     0.237 C 
HETATM   16  O   UNL     1     -36.707 -51.638  12.198  1.00  0.00    -0.271 OA
HETATM   17  N   UNL     1     -37.620 -50.075  10.863  1.00  0.00    -0.368 N 
HETATM   18  H   UNL     1     -38.470 -49.593  10.572  1.00  0.00     0.159 HD
HETATM   19  H   UNL     1     -36.895 -50.239  10.180  1.00  0.00     0.159 HD
ENDBRANCH  13  15
ENDBRANCH   1  13
TORSDOF 4
ENDMDL
MODEL 9
REMARK VINA RESULT:      -4.7      3.430      4.983
REMARK  4 active torsions:
REMARK  status: ('A' for Active; 'I' for Inactive)
REMARK    1  A    between atoms: C_2  and  N_3 
REMARK    2  A    between atoms: C_2  and  C_14 
REMARK       I    between atoms: N_3  and  C_4 
REMARK    3  A    between atoms: C_4  and  C_6 
REMARK    4  A    between atoms: C_6  and  N_8 
REMARK       I    between atoms: C_14  and  N_16 
ROOT
HETATM    1  N   UNL     1     -42.306 -50.876  12.072  1.00  0.00    -0.346 N 
HETATM    2  C   UNL     1     -42.710 -51.661  13.134  1.00  0.00     0.242 C 
HETATM    3  O   UNL     1     -42.738 -51.219  14.283  1.00  0.00    -0.271 OA
HETATM    4  H   UNL     1     -42.148 -51.311  11.168  1.00  0.00     0.163 HD
ENDROOT
BRANCH   2   5
HETATM    5  C   UNL     1     -43.081 -53.099  12.788  1.00  0.00     0.195 C 
HETATM    6  C   UNL     1     -41.945 -54.060  13.136  1.00  0.00     0.044 C 
BRANCH   5   7
HETATM    7  N   UNL     1     -44.323 -53.488  13.445  1.00  0.00    -0.290 N 
HETATM    8  C   UNL     1     -44.684 -54.733  13.887  1.00  0.00     0.112 A 
HETATM    9  C   UNL     1     -45.980 -54.625  14.329  1.00  0.00     0.037 A 
HETATM   10  C   UNL     1     -46.317 -53.276  14.119  1.00  0.00     0.108 A 
HETATM   11  N   UNL     1     -45.310 -52.576  13.590  1.00  0.00    -0.309 N 
ATOM     12  HN  UNL     1     -45.291 -51.586  13.351  1.00  0.00     0.186 HD
ENDBRANCH   5   7
ENDBRANCH   2   5
BRANCH   1  13
HETATM   13  C   UNL     1     -41.868 -49.490  12.252  1.00  0.00     0.172 C 
HETATM   14  C   UNL     1     -42.992 -48.522  11.907  1.00  0.00     0.042 C 
BRANCH  13  15
HETATM   15  C   UNL     1     -40.606 -49.186  11.412  1.00  0.00     0.237 C 
HETATM   16  O   UNL     1     -39.717 -48.409  11.749  1.00  0.00    -0.271 OA
HETATM   17  N   UNL     1     -40.483 -49.911  10.260  1.00  0.00    -0.368 N 
HETATM   18  H   UNL     1     -41.090 -50.713  10.093  1.00  0.00     0.159 HD
HETATM   19  H   UNL     1     -39.615 -49.843   9.749  1.00  0.00     0.159 HD
ENDBRANCH  13  15
ENDBRANCH   1  13
TORSDOF 4
ENDMDL
