MODEL 1
REMARK VINA RESULT:      -7.2      0.000      0.000
REMARK  5 active torsions:
REMARK  status: ('A' for Active; 'I' for Inactive)
REMARK    1  A    between atoms: C_2  and  N_7 
REMARK    2  A    between atoms: N_3  and  C_14 
REMARK    3  A    between atoms: C_14  and  C_15 
REMARK    4  A    between atoms: C_15  and  C_22 
REMARK    5  A    between atoms: C_22  and  O_24 
ROOT
HETATM    1  C   UNL     1     -42.516 -49.378  12.060  1.00  0.00     0.122 A 
HETATM    2  C   UNL     1     -41.969 -48.533  11.044  1.00  0.00     0.136 A 
HETATM    3  N   UNL     1     -42.473 -51.113  13.440  1.00  0.00    -0.326 N 
HETATM    4  C   UNL     1     -41.739 -50.456  12.477  1.00  0.00     0.140 A 
HETATM    5  N   UNL     1     -43.725 -49.403  12.746  1.00  0.00    -0.346 N 
ATOM      6  HN  UNL     1     -44.495 -48.740  12.657  1.00  0.00     0.167 HD
HETATM    7  C   UNL     1     -43.671 -50.459  13.536  1.00  0.00     0.185 A 
HETATM    8  N   UNL     1     -40.783 -48.937  10.516  1.00  0.00    -0.337 N 
ATOM      9  HN  UNL     1     -40.365 -48.411   9.751  1.00  0.00     0.168 HD
HETATM   10  N   UNL     1     -40.541 -50.822  12.007  1.00  0.00    -0.336 N 
ATOM     11  HN  UNL     1     -39.992 -51.601  12.370  1.00  0.00     0.168 HD
HETATM   12  C   UNL     1     -40.158 -50.027  10.997  1.00  0.00     0.183 A 
ENDROOT
BRANCH   3  13
HETATM   13  C   UNL     1     -42.014 -52.248  14.246  1.00  0.00     0.143 C 
BRANCH  13  14
HETATM   14  C   UNL     1     -42.129 -53.673  13.600  1.00  0.00     0.001 C 
HETATM   15  C   UNL     1     -43.221 -53.673  12.502  1.00  0.00     0.039 C 
HETATM   16  C   UNL     1     -44.629 -53.745  13.086  1.00  0.00     0.168 C 
HETATM   17  O   UNL     1     -44.773 -54.936  13.845  1.00  0.00    -0.391 OA
HETATM   18  C   UNL     1     -43.958 -54.927  15.009  1.00  0.00     0.168 C 
HETATM   19  C   UNL     1     -42.484 -54.764  14.664  1.00  0.00     0.039 C 
BRANCH  14  20
HETATM   20  C   UNL     1     -40.769 -54.110  12.997  1.00  0.00     0.175 C 
BRANCH  20  21
HETATM   21  O   UNL     1     -40.645 -53.659  11.650  1.00  0.00    -0.400 OA
HETATM   22  H   UNL     1     -41.537 -53.706  11.248  1.00  0.00     0.209 HD
ENDBRANCH  20  21
ENDBRANCH  14  20
ENDBRANCH  13  14
ENDBRANCH   3  13
BRANCH   2  23
HETATM   23  N   UNL     1     -42.559 -47.402  10.523  1.00  0.00    -0.354 N 
HETATM   24  C   UNL     1     -42.201 -45.978  10.775  1.00  0.00     0.057 C 
HETATM   25  C   UNL     1     -40.718 -45.646  10.642  1.00  0.00     0.059 C 
HETATM   26  C   UNL     1     -42.545 -45.467  12.192  1.00  0.00     0.198 C 
HETATM   27  C   UNL     1     -43.055 -45.238   9.694  1.00  0.00     0.035 C 
HETATM   28  C   UNL     1     -40.221 -45.503  12.069  1.00  0.00     0.170 C 
HETATM   29  O   UNL     1     -41.334 -45.023  12.831  1.00  0.00    -0.389 OA
HETATM   30  C   UNL     1     -43.908 -46.306   9.014  1.00  0.00     0.022 C 
HETATM   31  C   UNL     1     -43.911 -47.466   9.983  1.00  0.00     0.125 C 
ENDBRANCH   2  23
TORSDOF 5
ENDMDL
MODEL 2
REMARK VINA RESULT:      -7.0      1.547      2.688
REMARK  5 active torsions:
REMARK  status: ('A' for Active; 'I' for Inactive)
REMARK    1  A    between atoms: C_2  and  N_7 
REMARK    2  A    between atoms: N_3  and  C_14 
REMARK    3  A    between atoms: C_14  and  C_15 
REMARK    4  A    between atoms: C_15  and  C_22 
REMARK    5  A    between atoms: C_22  and  O_24 
ROOT
HETATM    1  C   UNL     1     -41.400 -48.896  12.767  1.00  0.00     0.122 A 
HETATM    2  C   UNL     1     -40.351 -48.003  12.382  1.00  0.00     0.136 A 
HETATM    3  N   UNL     1     -42.465 -50.840  12.744  1.00  0.00    -0.326 N 
HETATM    4  C   UNL     1     -41.363 -50.184  12.239  1.00  0.00     0.140 A 
HETATM    5  N   UNL     1     -42.534 -48.766  13.561  1.00  0.00    -0.346 N 
ATOM      6  HN  UNL     1     -42.828 -47.941  14.082  1.00  0.00     0.167 HD
HETATM    7  C   UNL     1     -43.151 -49.932  13.502  1.00  0.00     0.185 A 
HETATM    8  N   UNL     1     -39.482 -48.480  11.453  1.00  0.00    -0.337 N 
ATOM      9  HN  UNL     1     -38.743 -47.876  11.094  1.00  0.00     0.168 HD
HETATM   10  N   UNL     1     -40.472 -50.682  11.375  1.00  0.00    -0.336 N 
ATOM     11  HN  UNL     1     -40.465 -51.646  11.042  1.00  0.00     0.168 HD
HETATM   12  C   UNL     1     -39.588 -49.743  11.003  1.00  0.00     0.183 A 
ENDROOT
BRANCH   3  13
HETATM   13  C   UNL     1     -42.783 -52.258  12.552  1.00  0.00     0.143 C 
BRANCH  13  14
HETATM   14  C   UNL     1     -42.099 -53.279  13.526  1.00  0.00     0.001 C 
HETATM   15  C   UNL     1     -43.028 -54.496  13.760  1.00  0.00     0.039 C 
HETATM   16  C   UNL     1     -44.146 -54.187  14.753  1.00  0.00     0.168 C 
HETATM   17  O   UNL     1     -43.587 -53.819  16.005  1.00  0.00    -0.391 OA
HETATM   18  C   UNL     1     -42.891 -52.582  15.932  1.00  0.00     0.168 C 
HETATM   19  C   UNL     1     -41.765 -52.628  14.909  1.00  0.00     0.039 C 
BRANCH  14  20
HETATM   20  C   UNL     1     -40.738 -53.753  12.953  1.00  0.00     0.175 C 
BRANCH  20  21
HETATM   21  O   UNL     1     -40.697 -53.578  11.538  1.00  0.00    -0.400 OA
HETATM   22  H   UNL     1     -39.754 -53.584  11.275  1.00  0.00     0.209 HD
ENDBRANCH  20  21
ENDBRANCH  14  20
ENDBRANCH  13  14
ENDBRANCH   3  13
BRANCH   2  23
HETATM   23  N   UNL     1     -40.187 -46.706  12.819  1.00  0.00    -0.354 N 
HETATM   24  C   UNL     1     -40.740 -45.458  12.222  1.00  0.00     0.057 C 
HETATM   25  C   UNL     1     -42.231 -45.494  11.902  1.00  0.00     0.059 C 
HETATM   26  C   UNL     1     -40.105 -45.051  10.874  1.00  0.00     0.198 C 
HETATM   27  C   UNL     1     -40.416 -44.403  13.331  1.00  0.00     0.035 C 
HETATM   28  C   UNL     1     -42.301 -45.653  10.393  1.00  0.00     0.170 C 
HETATM   29  O   UNL     1     -41.137 -45.004   9.872  1.00  0.00    -0.389 OA
HETATM   30  C   UNL     1     -39.602 -45.134  14.395  1.00  0.00     0.022 C 
HETATM   31  C   UNL     1     -39.073 -46.365  13.693  1.00  0.00     0.125 C 
ENDBRANCH   2  23
TORSDOF 5
ENDMDL
MODEL 3
REMARK VINA RESULT:      -7.0      1.799      2.195
REMARK  5 active torsions:
REMARK  status: ('A' for Active; 'I' for Inactive)
REMARK    1  A    between atoms: C_2  and  N_7 
REMARK    2  A    between atoms: N_3  and  C_14 
REMARK    3  A    between atoms: C_14  and  C_15 
REMARK    4  A    between atoms: C_15  and  C_22 
REMARK    5  A    between atoms: C_22  and  O_24 
ROOT
HETATM    1  C   UNL     1     -41.073 -49.028  12.942  1.00  0.00     0.122 A 
HETATM    2  C   UNL     1     -40.005 -48.240  12.408  1.00  0.00     0.136 A 
HETATM    3  N   UNL     1     -41.949 -50.885  13.777  1.00  0.00    -0.326 N 
HETATM    4  C   UNL     1     -40.776 -50.339  13.305  1.00  0.00     0.140 A 
HETATM    5  N   UNL     1     -42.425 -48.794  13.165  1.00  0.00    -0.346 N 
ATOM      6  HN  UNL     1     -42.934 -47.926  12.999  1.00  0.00     0.167 HD
HETATM    7  C   UNL     1     -42.914 -49.926  13.637  1.00  0.00     0.185 A 
HETATM    8  N   UNL     1     -38.830 -48.895  12.214  1.00  0.00    -0.337 N 
ATOM      9  HN  UNL     1     -38.044 -48.407  11.785  1.00  0.00     0.168 HD
HETATM   10  N   UNL     1     -39.603 -50.970  13.178  1.00  0.00    -0.336 N 
ATOM     11  HN  UNL     1     -39.423 -51.924  13.492  1.00  0.00     0.168 HD
HETATM   12  C   UNL     1     -38.696 -50.181  12.582  1.00  0.00     0.183 A 
ENDROOT
BRANCH   3  13
HETATM   13  C   UNL     1     -42.098 -52.214  14.376  1.00  0.00     0.143 C 
BRANCH  13  14
HETATM   14  C   UNL     1     -42.280 -53.423  13.393  1.00  0.00     0.001 C 
HETATM   15  C   UNL     1     -43.167 -53.004  12.194  1.00  0.00     0.039 C 
HETATM   16  C   UNL     1     -44.651 -52.980  12.553  1.00  0.00     0.168 C 
HETATM   17  O   UNL     1     -45.064 -54.272  12.972  1.00  0.00    -0.391 OA
HETATM   18  C   UNL     1     -44.457 -54.652  14.199  1.00  0.00     0.168 C 
HETATM   19  C   UNL     1     -42.939 -54.653  14.101  1.00  0.00     0.039 C 
BRANCH  14  20
HETATM   20  C   UNL     1     -40.904 -53.925  12.885  1.00  0.00     0.175 C 
BRANCH  20  21
HETATM   21  O   UNL     1     -40.624 -53.405  11.588  1.00  0.00    -0.400 OA
HETATM   22  H   UNL     1     -39.913 -53.958  11.203  1.00  0.00     0.209 HD
ENDBRANCH  20  21
ENDBRANCH  14  20
ENDBRANCH  13  14
ENDBRANCH   3  13
BRANCH   2  23
HETATM   23  N   UNL     1     -40.083 -46.919  12.025  1.00  0.00    -0.354 N 
HETATM   24  C   UNL     1     -39.984 -45.704  12.883  1.00  0.00     0.057 C 
HETATM   25  C   UNL     1     -38.800 -45.681  13.844  1.00  0.00     0.059 C 
HETATM   26  C   UNL     1     -41.194 -45.473  13.815  1.00  0.00     0.198 C 
HETATM   27  C   UNL     1     -39.879 -44.567  11.815  1.00  0.00     0.035 C 
HETATM   28  C   UNL     1     -39.399 -45.984  15.206  1.00  0.00     0.170 C 
HETATM   29  O   UNL     1     -40.732 -45.463  15.179  1.00  0.00    -0.389 OA
HETATM   30  C   UNL     1     -40.052 -45.237  10.454  1.00  0.00     0.022 C 
HETATM   31  C   UNL     1     -40.714 -46.561  10.762  1.00  0.00     0.125 C 
ENDBRANCH   2  23
TORSDOF 5
ENDMDL
MODEL 4
REMARK VINA RESULT:      -7.0      3.149      6.915
REMARK  5 active torsions:
REMARK  status: ('A' for Active; 'I' for Inactive)
REMARK    1  A    between atoms: C_2  and  N_7 
REMARK    2  A    between atoms: N_3  and  C_14 
REMARK    3  A    between atoms: C_14  and  C_15 
REMARK    4  A    between atoms: C_15  and  C_22 
REMARK    5  A    between atoms: C_22  and  O_24 
ROOT
HETATM    1  C   UNL     1     -42.133 -51.487  13.993  1.00  0.00     0.122 A 
HETATM    2  C   UNL     1     -43.186 -52.103  13.246  1.00  0.00     0.136 A 
HETATM    3  N   UNL     1     -40.042 -50.815  14.300  1.00  0.00    -0.326 N 
HETATM    4  C   UNL     1     -40.875 -51.438  13.397  1.00  0.00     0.140 A 
HETATM    5  N   UNL     1     -42.052 -50.924  15.261  1.00  0.00    -0.346 N 
ATOM      6  HN  UNL     1     -42.810 -50.814  15.934  1.00  0.00     0.167 HD
HETATM    7  C   UNL     1     -40.792 -50.560  15.415  1.00  0.00     0.185 A 
HETATM    8  N   UNL     1     -42.818 -52.672  12.068  1.00  0.00    -0.337 N 
ATOM      9  HN  UNL     1     -43.509 -53.176  11.513  1.00  0.00     0.168 HD
HETATM   10  N   UNL     1     -40.521 -51.939  12.208  1.00  0.00    -0.336 N 
ATOM     11  HN  UNL     1     -39.593 -51.848  11.795  1.00  0.00     0.168 HD
HETATM   12  C   UNL     1     -41.550 -52.577  11.630  1.00  0.00     0.183 A 
ENDROOT
BRANCH   3  13
HETATM   13  C   UNL     1     -38.645 -50.441  14.064  1.00  0.00     0.143 C 
BRANCH  13  14
HETATM   14  C   UNL     1     -38.386 -49.185  13.163  1.00  0.00     0.001 C 
HETATM   15  C   UNL     1     -37.432 -48.200  13.883  1.00  0.00     0.039 C 
HETATM   16  C   UNL     1     -38.147 -47.377  14.950  1.00  0.00     0.168 C 
HETATM   17  O   UNL     1     -39.187 -46.617  14.352  1.00  0.00    -0.391 OA
HETATM   18  C   UNL     1     -40.229 -47.444  13.852  1.00  0.00     0.168 C 
HETATM   19  C   UNL     1     -39.715 -48.434  12.817  1.00  0.00     0.039 C 
BRANCH  14  20
HETATM   20  C   UNL     1     -37.783 -49.607  11.798  1.00  0.00     0.175 C 
BRANCH  20  21
HETATM   21  O   UNL     1     -38.814 -49.904  10.860  1.00  0.00    -0.400 OA
HETATM   22  H   UNL     1     -38.433 -50.515  10.196  1.00  0.00     0.209 HD
ENDBRANCH  20  21
ENDBRANCH  14  20
ENDBRANCH  13  14
ENDBRANCH   3  13
BRANCH   2  23
HETATM   23  N   UNL     1     -44.501 -52.219  13.641  1.00  0.00    -0.354 N 
HETATM   24  C   UNL     1     -45.126 -53.302  14.452  1.00  0.00     0.057 C 
HETATM   25  C   UNL     1     -44.382 -53.670  15.731  1.00  0.00     0.059 C 
HETATM   26  C   UNL     1     -45.257 -54.659  13.724  1.00  0.00     0.198 C 
HETATM   27  C   UNL     1     -46.535 -52.697  14.760  1.00  0.00     0.035 C 
HETATM   28  C   UNL     1     -43.694 -54.986  15.417  1.00  0.00     0.170 C 
HETATM   29  O   UNL     1     -44.531 -55.654  14.468  1.00  0.00    -0.389 OA
HETATM   30  C   UNL     1     -46.616 -51.381  13.991  1.00  0.00     0.022 C 
HETATM   31  C   UNL     1     -45.544 -51.492  12.931  1.00  0.00     0.125 C 
ENDBRANCH   2  23
TORSDOF 5
ENDMDL
MODEL 5
REMARK VINA RESULT:      -6.7      3.014      4.902
REMARK  5 active torsions:
REMARK  status: ('A' for Active; 'I' for Inactive)
REMARK    1  A    between atoms: C_2  and  N_7 
REMARK    2  A    between atoms: N_3  and  C_14 
REMARK    3  A    between atoms: C_14  and  C_15 
REMARK    4  A    between atoms: C_15  and  C_22 
REMARK    5  A    between atoms: C_22  and  O_24 
ROOT
HETATM    1  C   UNL     1     -41.162 -50.971  13.704  1.00  0.00     0.122 A 
HETATM    2  C   UNL     1     -40.615 -49.650  13.649  1.00  0.00     0.136 A 
HETATM    3  N   UNL     1     -42.681 -52.515  13.230  1.00  0.00    -0.326 N 
HETATM    4  C   UNL     1     -42.359 -51.191  13.026  1.00  0.00     0.140 A 
HETATM    5  N   UNL     1     -40.781 -52.147  14.338  1.00  0.00    -0.346 N 
ATOM      6  HN  UNL     1     -39.947 -52.296  14.906  1.00  0.00     0.167 HD
HETATM    7  C   UNL     1     -41.719 -53.032  14.054  1.00  0.00     0.185 A 
HETATM    8  N   UNL     1     -41.383 -48.719  13.024  1.00  0.00    -0.337 N 
ATOM      9  HN  UNL     1     -41.077 -47.747  12.998  1.00  0.00     0.168 HD
HETATM   10  N   UNL     1     -43.087 -50.294  12.352  1.00  0.00    -0.336 N 
ATOM     11  HN  UNL     1     -43.942 -50.510  11.840  1.00  0.00     0.168 HD
HETATM   12  C   UNL     1     -42.542 -49.071  12.440  1.00  0.00     0.183 A 
ENDROOT
BRANCH   3  13
HETATM   13  C   UNL     1     -43.802 -53.231  12.616  1.00  0.00     0.143 C 
BRANCH  13  14
HETATM   14  C   UNL     1     -45.050 -53.515  13.524  1.00  0.00     0.001 C 
HETATM   15  C   UNL     1     -46.338 -53.002  12.834  1.00  0.00     0.039 C 
HETATM   16  C   UNL     1     -46.499 -51.490  12.961  1.00  0.00     0.168 C 
HETATM   17  O   UNL     1     -46.566 -51.128  14.332  1.00  0.00    -0.391 OA
HETATM   18  C   UNL     1     -45.335 -51.363  15.004  1.00  0.00     0.168 C 
HETATM   19  C   UNL     1     -44.919 -52.825  14.922  1.00  0.00     0.039 C 
BRANCH  14  20
HETATM   20  C   UNL     1     -45.174 -55.031  13.821  1.00  0.00     0.175 C 
BRANCH  20  21
HETATM   21  O   UNL     1     -46.490 -55.352  14.268  1.00  0.00    -0.400 OA
HETATM   22  H   UNL     1     -47.093 -55.219  13.508  1.00  0.00     0.209 HD
ENDBRANCH  20  21
ENDBRANCH  14  20
ENDBRANCH  13  14
ENDBRANCH   3  13
BRANCH   2  23
HETATM   23  N   UNL     1     -39.430 -49.238  14.219  1.00  0.00    -0.354 N 
HETATM   24  C   UNL     1     -38.045 -49.432  13.705  1.00  0.00     0.057 C 
HETATM   25  C   UNL     1     -37.835 -49.056  12.242  1.00  0.00     0.059 C 
HETATM   26  C   UNL     1     -37.532 -50.888  13.766  1.00  0.00     0.198 C 
HETATM   27  C   UNL     1     -37.218 -48.510  14.660  1.00  0.00     0.035 C 
HETATM   28  C   UNL     1     -37.759 -50.382  11.506  1.00  0.00     0.170 C 
HETATM   29  O   UNL     1     -37.201 -51.318  12.433  1.00  0.00    -0.389 OA
HETATM   30  C   UNL     1     -38.200 -47.976  15.700  1.00  0.00     0.022 C 
HETATM   31  C   UNL     1     -39.372 -48.929  15.642  1.00  0.00     0.125 C 
ENDBRANCH   2  23
TORSDOF 5
ENDMDL
MODEL 6
REMARK VINA RESULT:      -6.6      2.338      7.394
REMARK  5 active torsions:
REMARK  status: ('A' for Active; 'I' for Inactive)
REMARK    1  A    between atoms: C_2  and  N_7 
REMARK    2  A    between atoms: N_3  and  C_14 
REMARK    3  A    between atoms: C_14  and  C_15 
REMARK    4  A    between atoms: C_15  and  C_22 
REMARK    5  A    between atoms: C_22  and  O_24 
ROOT
HETATM    1  C   UNL     1     -43.431 -51.044  13.936  1.00  0.00     0.122 A 
HETATM    2  C   UNL     1     -43.527 -52.173  14.811  1.00  0.00     0.136 A 
HETATM    3  N   UNL     1     -42.513 -49.158  13.217  1.00  0.00    -0.326 N 
HETATM    4  C   UNL     1     -42.392 -50.147  14.169  1.00  0.00     0.140 A 
HETATM    5  N   UNL     1     -44.193 -50.585  12.869  1.00  0.00    -0.346 N 
ATOM      6  HN  UNL     1     -45.016 -51.030  12.465  1.00  0.00     0.167 HD
HETATM    7  C   UNL     1     -43.632 -49.453  12.486  1.00  0.00     0.185 A 
HETATM    8  N   UNL     1     -42.648 -52.191  15.848  1.00  0.00    -0.337 N 
ATOM      9  HN  UNL     1     -42.699 -52.938  16.540  1.00  0.00     0.168 HD
HETATM   10  N   UNL     1     -41.483 -50.194  15.149  1.00  0.00    -0.336 N 
ATOM     11  HN  UNL     1     -40.716 -49.531  15.259  1.00  0.00     0.168 HD
HETATM   12  C   UNL     1     -41.714 -51.231  15.969  1.00  0.00     0.183 A 
ENDROOT
BRANCH   3  13
HETATM   13  C   UNL     1     -41.575 -48.055  12.999  1.00  0.00     0.143 C 
BRANCH  13  14
HETATM   14  C   UNL     1     -40.830 -48.014  11.619  1.00  0.00     0.001 C 
HETATM   15  C   UNL     1     -39.838 -46.825  11.585  1.00  0.00     0.039 C 
HETATM   16  C   UNL     1     -40.539 -45.494  11.327  1.00  0.00     0.168 C 
HETATM   17  O   UNL     1     -41.209 -45.539  10.076  1.00  0.00    -0.391 OA
HETATM   18  C   UNL     1     -42.292 -46.459  10.087  1.00  0.00     0.168 C 
HETATM   19  C   UNL     1     -41.830 -47.870  10.424  1.00  0.00     0.039 C 
BRANCH  14  20
HETATM   20  C   UNL     1     -40.074 -49.344  11.368  1.00  0.00     0.175 C 
BRANCH  20  21
HETATM   21  O   UNL     1     -40.514 -49.954  10.156  1.00  0.00    -0.400 OA
HETATM   22  H   UNL     1     -41.096 -50.701  10.405  1.00  0.00     0.209 HD
ENDBRANCH  20  21
ENDBRANCH  14  20
ENDBRANCH  13  14
ENDBRANCH   3  13
BRANCH   2  23
HETATM   23  N   UNL     1     -44.454 -53.188  14.728  1.00  0.00    -0.354 N 
HETATM   24  C   UNL     1     -45.820 -53.237  15.323  1.00  0.00     0.057 C 
HETATM   25  C   UNL     1     -46.683 -52.004  15.077  1.00  0.00     0.059 C 
HETATM   26  C   UNL     1     -45.848 -53.380  16.861  1.00  0.00     0.198 C 
HETATM   27  C   UNL     1     -46.422 -54.507  14.636  1.00  0.00     0.035 C 
HETATM   28  C   UNL     1     -46.677 -51.255  16.398  1.00  0.00     0.170 C 
HETATM   29  O   UNL     1     -46.546 -52.250  17.417  1.00  0.00    -0.389 OA
HETATM   30  C   UNL     1     -45.296 -55.123  13.809  1.00  0.00     0.022 C 
HETATM   31  C   UNL     1     -44.030 -54.541  14.394  1.00  0.00     0.125 C 
ENDBRANCH   2  23
TORSDOF 5
ENDMDL
MODEL 7
REMARK VINA RESULT:      -6.5      1.758      2.910
REMARK  5 active torsions:
REMARK  status: ('A' for Active; 'I' for Inactive)
REMARK    1  A    between atoms: C_2  and  N_7 
REMARK    2  A    between atoms: N_3  and  C_14 
REMARK    3  A    between atoms: C_14  and  C_15 
REMARK    4  A    between atoms: C_15  and  C_22 
REMARK    5  A    between atoms: C_22  and  O_24 
ROOT
HETATM    1  C   UNL     1     -40.543 -48.782  11.970  1.00  0.00     0.122 A 
HETATM    2  C   UNL     1     -41.242 -47.539  11.855  1.00  0.00     0.136 A 
HETATM    3  N   UNL     1     -40.425 -50.982  12.212  1.00  0.00    -0.326 N 
HETATM    4  C   UNL     1     -41.313 -49.933  12.116  1.00  0.00     0.140 A 
HETATM    5  N   UNL     1     -39.198 -49.131  12.009  1.00  0.00    -0.346 N 
ATOM      6  HN  UNL     1     -38.398 -48.505  11.925  1.00  0.00     0.167 HD
HETATM    7  C   UNL     1     -39.170 -50.440  12.178  1.00  0.00     0.185 A 
HETATM    8  N   UNL     1     -42.591 -47.605  12.007  1.00  0.00    -0.337 N 
ATOM      9  HN  UNL     1     -43.144 -46.749  11.991  1.00  0.00     0.168 HD
HETATM   10  N   UNL     1     -42.645 -50.012  12.199  1.00  0.00    -0.336 N 
ATOM     11  HN  UNL     1     -43.169 -50.885  12.270  1.00  0.00     0.168 HD
HETATM   12  C   UNL     1     -43.202 -48.791  12.178  1.00  0.00     0.183 A 
ENDROOT
BRANCH   3  13
HETATM   13  C   UNL     1     -40.778 -52.403  12.266  1.00  0.00     0.143 C 
BRANCH  13  14
HETATM   14  C   UNL     1     -40.724 -53.098  13.672  1.00  0.00     0.001 C 
HETATM   15  C   UNL     1     -41.603 -54.373  13.669  1.00  0.00     0.039 C 
HETATM   16  C   UNL     1     -43.089 -54.052  13.805  1.00  0.00     0.168 C 
HETATM   17  O   UNL     1     -43.322 -53.364  15.025  1.00  0.00    -0.391 OA
HETATM   18  C   UNL     1     -42.727 -52.074  15.029  1.00  0.00     0.168 C 
HETATM   19  C   UNL     1     -41.222 -52.145  14.809  1.00  0.00     0.039 C 
BRANCH  14  20
HETATM   20  C   UNL     1     -39.264 -53.460  14.046  1.00  0.00     0.175 C 
BRANCH  20  21
HETATM   21  O   UNL     1     -38.848 -54.645  13.370  1.00  0.00    -0.400 OA
HETATM   22  H   UNL     1     -38.451 -54.366  12.519  1.00  0.00     0.209 HD
ENDBRANCH  20  21
ENDBRANCH  14  20
ENDBRANCH  13  14
ENDBRANCH   3  13
BRANCH   2  23
HETATM   23  N   UNL     1     -40.670 -46.299  11.670  1.00  0.00    -0.354 N 
HETATM   24  C   UNL     1     -40.203 -45.337  12.708  1.00  0.00     0.057 C 
HETATM   25  C   UNL     1     -39.315 -45.932  13.795  1.00  0.00     0.059 C 
HETATM   26  C   UNL     1     -41.334 -44.660  13.515  1.00  0.00     0.198 C 
HETATM   27  C   UNL     1     -39.430 -44.286  11.845  1.00  0.00     0.035 C 
HETATM   28  C   UNL     1     -40.213 -46.041  15.015  1.00  0.00     0.170 C 
HETATM   29  O   UNL     1     -41.159 -44.972  14.909  1.00  0.00    -0.389 OA
HETATM   30  C   UNL     1     -39.637 -44.691  10.387  1.00  0.00     0.022 C 
HETATM   31  C   UNL     1     -40.851 -45.592  10.410  1.00  0.00     0.125 C 
ENDBRANCH   2  23
TORSDOF 5
ENDMDL
MODEL 8
REMARK VINA RESULT:      -6.4      2.255      7.600
REMARK  5 active torsions:
REMARK  status: ('A' for Active; 'I' for Inactive)
REMARK    1  A    between atoms: C_2  and  N_7 
REMARK    2  A    between atoms: N_3  and  C_14 
REMARK    3  A    between atoms: C_14  and  C_15 
REMARK    4  A    between atoms: C_15  and  C_22 
REMARK    5  A    between atoms: C_22  and  O_24 
ROOT
HETATM    1  C   UNL     1     -42.758 -49.476  13.005  1.00  0.00     0.122 A 
HETATM    2  C   UNL     1     -43.088 -50.440  14.009  1.00  0.00     0.136 A 
HETATM    3  N   UNL     1     -42.319 -47.426  12.284  1.00  0.00    -0.326 N 
HETATM    4  C   UNL     1     -42.627 -48.152  13.414  1.00  0.00     0.140 A 
HETATM    5  N   UNL     1     -42.560 -49.545  11.631  1.00  0.00    -0.346 N 
ATOM      6  HN  UNL     1     -42.588 -50.380  11.047  1.00  0.00     0.167 HD
HETATM    7  C   UNL     1     -42.326 -48.307  11.237  1.00  0.00     0.185 A 
HETATM    8  N   UNL     1     -43.344 -49.939  15.246  1.00  0.00    -0.337 N 
ATOM      9  HN  UNL     1     -43.638 -50.565  15.994  1.00  0.00     0.168 HD
HETATM   10  N   UNL     1     -42.813 -47.661  14.645  1.00  0.00    -0.336 N 
ATOM     11  HN  UNL     1     -42.670 -46.685  14.905  1.00  0.00     0.168 HD
HETATM   12  C   UNL     1     -43.211 -48.623  15.491  1.00  0.00     0.183 A 
ENDROOT
BRANCH   3  13
HETATM   13  C   UNL     1     -41.980 -46.001  12.244  1.00  0.00     0.143 C 
BRANCH  13  14
HETATM   14  C   UNL     1     -40.464 -45.634  12.080  1.00  0.00     0.001 C 
HETATM   15  C   UNL     1     -39.608 -46.447  13.082  1.00  0.00     0.039 C 
HETATM   16  C   UNL     1     -39.668 -45.873  14.494  1.00  0.00     0.168 C 
HETATM   17  O   UNL     1     -39.183 -44.539  14.490  1.00  0.00    -0.391 OA
HETATM   18  C   UNL     1     -40.039 -43.665  13.767  1.00  0.00     0.168 C 
HETATM   19  C   UNL     1     -40.206 -44.109  12.321  1.00  0.00     0.039 C 
BRANCH  14  20
HETATM   20  C   UNL     1     -39.990 -45.909  10.630  1.00  0.00     0.175 C 
BRANCH  20  21
HETATM   21  O   UNL     1     -40.927 -45.396   9.685  1.00  0.00    -0.400 OA
HETATM   22  H   UNL     1     -40.551 -44.564   9.330  1.00  0.00     0.209 HD
ENDBRANCH  20  21
ENDBRANCH  14  20
ENDBRANCH  13  14
ENDBRANCH   3  13
BRANCH   2  23
HETATM   23  N   UNL     1     -43.227 -51.798  13.817  1.00  0.00    -0.354 N 
HETATM   24  C   UNL     1     -44.480 -52.604  13.819  1.00  0.00     0.057 C 
HETATM   25  C   UNL     1     -45.613 -52.050  12.961  1.00  0.00     0.059 C 
HETATM   26  C   UNL     1     -45.142 -52.764  15.206  1.00  0.00     0.198 C 
HETATM   27  C   UNL     1     -43.974 -53.983  13.282  1.00  0.00     0.035 C 
HETATM   28  C   UNL     1     -46.591 -51.445  13.952  1.00  0.00     0.170 C 
HETATM   29  O   UNL     1     -46.472 -52.218  15.150  1.00  0.00    -0.389 OA
HETATM   30  C   UNL     1     -42.458 -53.860  13.142  1.00  0.00     0.022 C 
HETATM   31  C   UNL     1     -42.089 -52.684  14.018  1.00  0.00     0.125 C 
ENDBRANCH   2  23
TORSDOF 5
ENDMDL
MODEL 9
REMARK VINA RESULT:      -6.3      3.397      4.877
REMARK  5 active torsions:
REMARK  status: ('A' for Active; 'I' for Inactive)
REMARK    1  A    between atoms: C_2  and  N_7 
REMARK    2  A    between atoms: N_3  and  C_14 
REMARK    3  A    between atoms: C_14  and  C_15 
REMARK    4  A    between atoms: C_15  and  C_22 
REMARK    5  A    between atoms: C_22  and  O_24 
ROOT
HETATM    1  C   UNL     1     -42.025 -51.234  12.977  1.00  0.00     0.122 A 
HETATM    2  C   UNL     1     -40.654 -51.610  12.822  1.00  0.00     0.136 A 
HETATM    3  N   UNL     1     -44.197 -51.652  13.127  1.00  0.00    -0.326 N 
HETATM    4  C   UNL     1     -42.969 -52.257  12.972  1.00  0.00     0.140 A 
HETATM    5  N   UNL     1     -42.682 -50.016  13.104  1.00  0.00    -0.346 N 
ATOM      6  HN  UNL     1     -42.257 -49.089  13.142  1.00  0.00     0.167 HD
HETATM    7  C   UNL     1     -43.969 -50.304  13.165  1.00  0.00     0.185 A 
HETATM    8  N   UNL     1     -40.428 -52.928  12.580  1.00  0.00    -0.337 N 
ATOM      9  HN  UNL     1     -39.478 -53.254  12.405  1.00  0.00     0.168 HD
HETATM   10  N   UNL     1     -42.747 -53.565  12.800  1.00  0.00    -0.336 N 
ATOM     11  HN  UNL     1     -43.469 -54.284  12.840  1.00  0.00     0.168 HD
HETATM   12  C   UNL     1     -41.447 -53.805  12.569  1.00  0.00     0.183 A 
ENDROOT
BRANCH   3  13
HETATM   13  C   UNL     1     -45.480 -52.341  13.291  1.00  0.00     0.143 C 
BRANCH  13  14
HETATM   14  C   UNL     1     -45.743 -53.038  14.671  1.00  0.00     0.001 C 
HETATM   15  C   UNL     1     -47.153 -52.667  15.194  1.00  0.00     0.039 C 
HETATM   16  C   UNL     1     -47.193 -51.271  15.810  1.00  0.00     0.168 C 
HETATM   17  O   UNL     1     -46.291 -51.203  16.903  1.00  0.00    -0.391 OA
HETATM   18  C   UNL     1     -44.938 -51.315  16.483  1.00  0.00     0.168 C 
HETATM   19  C   UNL     1     -44.683 -52.620  15.744  1.00  0.00     0.039 C 
BRANCH  14  20
HETATM   20  C   UNL     1     -45.614 -54.577  14.539  1.00  0.00     0.175 C 
BRANCH  20  21
HETATM   21  O   UNL     1     -45.541 -54.962  13.168  1.00  0.00    -0.400 OA
HETATM   22  H   UNL     1     -46.354 -54.633  12.732  1.00  0.00     0.209 HD
ENDBRANCH  20  21
ENDBRANCH  14  20
ENDBRANCH  13  14
ENDBRANCH   3  13
BRANCH   2  23
HETATM   23  N   UNL     1     -39.571 -50.757  12.836  1.00  0.00    -0.354 N 
HETATM   24  C   UNL     1     -38.840 -50.217  14.017  1.00  0.00     0.057 C 
HETATM   25  C   UNL     1     -38.436 -51.251  15.062  1.00  0.00     0.059 C 
HETATM   26  C   UNL     1     -39.629 -49.177  14.843  1.00  0.00     0.198 C 
HETATM   27  C   UNL     1     -37.590 -49.560  13.345  1.00  0.00     0.035 C 
HETATM   28  C   UNL     1     -39.416 -51.052  16.205  1.00  0.00     0.170 C 
HETATM   29  O   UNL     1     -39.766 -49.665  16.191  1.00  0.00    -0.389 OA
HETATM   30  C   UNL     1     -37.795 -49.686  11.837  1.00  0.00     0.022 C 
HETATM   31  C   UNL     1     -39.278 -49.930  11.673  1.00  0.00     0.125 C 
ENDBRANCH   2  23
TORSDOF 5
ENDMDL
