MODEL 1
REMARK VINA RESULT:      -5.5      0.000      0.000
REMARK  6 active torsions:
REMARK  status: ('A' for Active; 'I' for Inactive)
REMARK    1  A    between atoms: O_4  and  C_5 
REMARK    2  A    between atoms: C_5  and  C_6 
REMARK    3  A    between atoms: C_6  and  N_7 
REMARK       I    between atoms: C_9  and  N_10 
REMARK       I    between atoms: C_9  and  N_11 
REMARK    4  A    between atoms: N_11  and  C_12 
REMARK    5  A    between atoms: C_12  and  C_13 
REMARK    6  A    between atoms: C_13  and  C_14 
ROOT
HETATM    1  N   UNL     2     -42.677 -52.188  12.333  1.00  0.00    -0.225 N 
ATOM      2  HN  UNL     2     -43.095 -51.276  12.512  1.00  0.00     0.177 HD
HETATM    3  C   UNL     2     -41.524 -52.186  11.740  1.00  0.00     0.667 C 
HETATM    4  N   UNL     2     -40.803 -53.384  11.475  1.00  0.00    -0.235 N 
HETATM    5  N   UNL     2     -40.932 -50.941  11.375  1.00  0.00    -0.226 N 
HETATM    6  H   UNL     2     -41.117 -54.311  11.791  1.00  0.00     0.174 HD
HETATM    7  H   UNL     2     -39.869 -53.328  11.046  1.00  0.00     0.174 HD
HETATM    8  H   UNL     2     -40.111 -50.941  10.752  1.00  0.00     0.177 HD
ENDROOT
BRANCH   5   9
HETATM    9  C   UNL     2     -41.391 -49.674  11.908  1.00  0.00     0.144 C 
BRANCH   9  10
HETATM   10  C   UNL     2     -40.834 -48.525  11.050  1.00  0.00     0.085 C 
BRANCH  10  11
HETATM   11  C   UNL     2     -41.926 -47.691  10.468  1.00  0.00     0.052 A 
HETATM   12  N   UNL     2     -43.086 -48.197   9.993  1.00  0.00    -0.357 N 
HETATM   13  C   UNL     2     -43.892 -47.223   9.496  1.00  0.00     0.012 A 
ATOM     14  HN  UNL     2     -43.327 -49.189  10.006  1.00  0.00     0.166 HD
HETATM   15  C   UNL     2     -45.235 -47.526   8.919  1.00  0.00     0.068 C 
HETATM   16  C   UNL     2     -43.374 -45.934   9.569  1.00  0.00     0.076 A 
HETATM   17  S   UNL     2     -41.855 -46.021  10.282  1.00  0.00    -0.087 SA
ENDBRANCH  10  11
ENDBRANCH   9  10
ENDBRANCH   5   9
BRANCH   1  18
HETATM   18  C   UNL     2     -43.438 -53.341  12.771  1.00  0.00     0.164 C 
BRANCH  18  19
HETATM   19  C   UNL     2     -44.922 -53.044  12.609  1.00  0.00     0.187 C 
BRANCH  19  20
HETATM   20  O   UNL     2     -45.651 -54.209  12.936  1.00  0.00    -0.394 OA
HETATM   21  C   UNL     2     -44.961 -54.932  13.924  1.00  0.00     0.201 C 
ENDBRANCH  19  20
ENDBRANCH  18  19
ENDBRANCH   1  18
TORSDOF 6
ENDMDL
MODEL 2
REMARK VINA RESULT:      -5.5      4.310      6.187
REMARK  6 active torsions:
REMARK  status: ('A' for Active; 'I' for Inactive)
REMARK    1  A    between atoms: O_4  and  C_5 
REMARK    2  A    between atoms: C_5  and  C_6 
REMARK    3  A    between atoms: C_6  and  N_7 
REMARK       I    between atoms: C_9  and  N_10 
REMARK       I    between atoms: C_9  and  N_11 
REMARK    4  A    between atoms: N_11  and  C_12 
REMARK    5  A    between atoms: C_12  and  C_13 
REMARK    6  A    between atoms: C_13  and  C_14 
ROOT
HETATM    1  N   UNL     2     -44.202 -46.754   9.332  1.00  0.00    -0.225 N 
ATOM      2  HN  UNL     2     -43.930 -46.537  10.291  1.00  0.00     0.177 HD
HETATM    3  C   UNL     2     -43.436 -47.579   8.689  1.00  0.00     0.667 C 
HETATM    4  N   UNL     2     -43.725 -48.008   7.363  1.00  0.00    -0.235 N 
HETATM    5  N   UNL     2     -42.285 -48.111   9.341  1.00  0.00    -0.226 N 
HETATM    6  H   UNL     2     -44.583 -47.745   6.861  1.00  0.00     0.174 HD
HETATM    7  H   UNL     2     -43.114 -48.703   6.912  1.00  0.00     0.174 HD
HETATM    8  H   UNL     2     -41.585 -48.620   8.782  1.00  0.00     0.177 HD
ENDROOT
BRANCH   5   9
HETATM    9  C   UNL     2     -42.096 -48.033  10.775  1.00  0.00     0.144 C 
BRANCH   9  10
HETATM   10  C   UNL     2     -40.902 -47.113  11.085  1.00  0.00     0.085 C 
BRANCH  10  11
HETATM   11  C   UNL     2     -39.806 -47.848  11.781  1.00  0.00     0.052 A 
HETATM   12  N   UNL     2     -39.148 -48.901  11.245  1.00  0.00    -0.357 N 
HETATM   13  C   UNL     2     -38.218 -49.400  12.100  1.00  0.00     0.012 A 
ATOM     14  HN  UNL     2     -39.329 -49.275  10.313  1.00  0.00     0.166 HD
HETATM   15  C   UNL     2     -37.354 -50.561  11.738  1.00  0.00     0.068 C 
HETATM   16  C   UNL     2     -38.133 -48.748  13.326  1.00  0.00     0.076 A 
HETATM   17  S   UNL     2     -39.262 -47.503  13.335  1.00  0.00    -0.087 SA
ENDBRANCH  10  11
ENDBRANCH   9  10
ENDBRANCH   5   9
BRANCH   1  18
HETATM   18  C   UNL     2     -45.402 -46.104   8.843  1.00  0.00     0.164 C 
BRANCH  18  19
HETATM   19  C   UNL     2     -46.610 -46.951   9.216  1.00  0.00     0.187 C 
BRANCH  19  20
HETATM   20  O   UNL     2     -46.781 -47.948   8.231  1.00  0.00    -0.394 OA
HETATM   21  C   UNL     2     -46.885 -49.206   8.850  1.00  0.00     0.201 C 
ENDBRANCH  19  20
ENDBRANCH  18  19
ENDBRANCH   1  18
TORSDOF 6
ENDMDL
MODEL 3
REMARK VINA RESULT:      -5.3      1.737      2.306
REMARK  6 active torsions:
REMARK  status: ('A' for Active; 'I' for Inactive)
REMARK    1  A    between atoms: O_4  and  C_5 
REMARK    2  A    between atoms: C_5  and  C_6 
REMARK    3  A    between atoms: C_6  and  N_7 
REMARK       I    between atoms: C_9  and  N_10 
REMARK       I    between atoms: C_9  and  N_11 
REMARK    4  A    between atoms: N_11  and  C_12 
REMARK    5  A    between atoms: C_12  and  C_13 
REMARK    6  A    between atoms: C_13  and  C_14 
ROOT
HETATM    1  N   UNL     2     -42.431 -51.945  12.664  1.00  0.00    -0.225 N 
ATOM      2  HN  UNL     2     -42.715 -50.998  12.915  1.00  0.00     0.177 HD
HETATM    3  C   UNL     2     -41.419 -52.047  11.860  1.00  0.00     0.667 C 
HETATM    4  N   UNL     2     -40.884 -53.306  11.467  1.00  0.00    -0.235 N 
HETATM    5  N   UNL     2     -40.790 -50.860  11.380  1.00  0.00    -0.226 N 
HETATM    6  H   UNL     2     -41.221 -54.202  11.843  1.00  0.00     0.174 HD
HETATM    7  H   UNL     2     -40.049 -53.335  10.866  1.00  0.00     0.174 HD
HETATM    8  H   UNL     2     -40.108 -50.933  10.611  1.00  0.00     0.177 HD
ENDROOT
BRANCH   5   9
HETATM    9  C   UNL     2     -41.011 -49.562  11.985  1.00  0.00     0.144 C 
BRANCH   9  10
HETATM   10  C   UNL     2     -41.945 -48.732  11.087  1.00  0.00     0.085 C 
BRANCH  10  11
HETATM   11  C   UNL     2     -41.567 -47.289  11.084  1.00  0.00     0.052 A 
HETATM   12  N   UNL     2     -40.537 -46.783  10.368  1.00  0.00    -0.357 N 
HETATM   13  C   UNL     2     -40.396 -45.447  10.567  1.00  0.00     0.012 A 
ATOM     14  HN  UNL     2     -39.939 -47.337   9.754  1.00  0.00     0.166 HD
HETATM   15  C   UNL     2     -39.333 -44.654   9.882  1.00  0.00     0.068 C 
HETATM   16  C   UNL     2     -41.311 -44.881  11.449  1.00  0.00     0.076 A 
HETATM   17  S   UNL     2     -42.333 -46.099  11.994  1.00  0.00    -0.087 SA
ENDBRANCH  10  11
ENDBRANCH   9  10
ENDBRANCH   5   9
BRANCH   1  18
HETATM   18  C   UNL     2     -43.203 -53.024  13.247  1.00  0.00     0.164 C 
BRANCH  18  19
HETATM   19  C   UNL     2     -44.515 -53.160  12.488  1.00  0.00     0.187 C 
BRANCH  19  20
HETATM   20  O   UNL     2     -44.909 -54.515  12.511  1.00  0.00    -0.394 OA
HETATM   21  C   UNL     2     -45.149 -54.911  13.839  1.00  0.00     0.201 C 
ENDBRANCH  19  20
ENDBRANCH  18  19
ENDBRANCH   1  18
TORSDOF 6
ENDMDL
MODEL 4
REMARK VINA RESULT:      -5.3      2.871      6.056
REMARK  6 active torsions:
REMARK  status: ('A' for Active; 'I' for Inactive)
REMARK    1  A    between atoms: O_4  and  C_5 
REMARK    2  A    between atoms: C_5  and  C_6 
REMARK    3  A    between atoms: C_6  and  N_7 
REMARK       I    between atoms: C_9  and  N_10 
REMARK       I    between atoms: C_9  and  N_11 
REMARK    4  A    between atoms: N_11  and  C_12 
REMARK    5  A    between atoms: C_12  and  C_13 
REMARK    6  A    between atoms: C_13  and  C_14 
ROOT
HETATM    1  N   UNL     2     -44.047 -47.524   9.627  1.00  0.00    -0.225 N 
ATOM      2  HN  UNL     2     -43.974 -47.616  10.640  1.00  0.00     0.177 HD
HETATM    3  C   UNL     2     -42.990 -47.833   8.944  1.00  0.00     0.667 C 
HETATM    4  N   UNL     2     -42.967 -47.799   7.521  1.00  0.00    -0.235 N 
HETATM    5  N   UNL     2     -41.817 -48.262   9.633  1.00  0.00    -0.226 N 
HETATM    6  H   UNL     2     -43.797 -47.593   6.950  1.00  0.00     0.174 HD
HETATM    7  H   UNL     2     -42.119 -48.101   7.021  1.00  0.00     0.174 HD
HETATM    8  H   UNL     2     -40.931 -48.336   9.112  1.00  0.00     0.177 HD
ENDROOT
BRANCH   5   9
HETATM    9  C   UNL     2     -41.837 -48.674  11.021  1.00  0.00     0.144 C 
BRANCH   9  10
HETATM   10  C   UNL     2     -40.636 -49.596  11.299  1.00  0.00     0.085 C 
BRANCH  10  11
HETATM   11  C   UNL     2     -41.040 -50.813  12.061  1.00  0.00     0.052 A 
HETATM   12  N   UNL     2     -42.215 -51.458  11.881  1.00  0.00    -0.357 N 
HETATM   13  C   UNL     2     -42.340 -52.518  12.722  1.00  0.00     0.012 A 
ATOM     14  HN  UNL     2     -42.921 -51.183  11.197  1.00  0.00     0.166 HD
HETATM   15  C   UNL     2     -43.547 -53.395  12.713  1.00  0.00     0.068 C 
HETATM   16  C   UNL     2     -41.265 -52.719  13.582  1.00  0.00     0.076 A 
HETATM   17  S   UNL     2     -40.120 -51.528  13.274  1.00  0.00    -0.087 SA
ENDBRANCH  10  11
ENDBRANCH   9  10
ENDBRANCH   5   9
BRANCH   1  18
HETATM   18  C   UNL     2     -45.322 -47.062   9.114  1.00  0.00     0.164 C 
BRANCH  18  19
HETATM   19  C   UNL     2     -46.356 -48.163   9.294  1.00  0.00     0.187 C 
BRANCH  19  20
HETATM   20  O   UNL     2     -47.023 -48.357   8.065  1.00  0.00    -0.394 OA
HETATM   21  C   UNL     2     -46.277 -49.234   7.258  1.00  0.00     0.201 C 
ENDBRANCH  19  20
ENDBRANCH  18  19
ENDBRANCH   1  18
TORSDOF 6
ENDMDL
MODEL 5
REMARK VINA RESULT:      -5.0      3.121      3.997
REMARK  6 active torsions:
REMARK  status: ('A' for Active; 'I' for Inactive)
REMARK    1  A    between atoms: O_4  and  C_5 
REMARK    2  A    between atoms: C_5  and  C_6 
REMARK    3  A    between atoms: C_6  and  N_7 
REMARK       I    between atoms: C_9  and  N_10 
REMARK       I    between atoms: C_9  and  N_11 
REMARK    4  A    between atoms: N_11  and  C_12 
REMARK    5  A    between atoms: C_12  and  C_13 
REMARK    6  A    between atoms: C_13  and  C_14 
ROOT
HETATM    1  N   UNL     2     -40.220 -50.681  12.685  1.00  0.00    -0.225 N 
ATOM      2  HN  UNL     2     -40.429 -49.795  13.145  1.00  0.00     0.177 HD
HETATM    3  C   UNL     2     -41.192 -51.228  12.023  1.00  0.00     0.667 C 
HETATM    4  N   UNL     2     -41.026 -52.438  11.291  1.00  0.00    -0.235 N 
HETATM    5  N   UNL     2     -42.461 -50.580  11.989  1.00  0.00    -0.226 N 
HETATM    6  H   UNL     2     -40.121 -52.913  11.189  1.00  0.00     0.174 HD
HETATM    7  H   UNL     2     -41.814 -52.807  10.740  1.00  0.00     0.174 HD
HETATM    8  H   UNL     2     -43.274 -51.093  11.618  1.00  0.00     0.177 HD
ENDROOT
BRANCH   5   9
HETATM    9  C   UNL     2     -42.641 -49.197  12.382  1.00  0.00     0.144 C 
BRANCH   9  10
HETATM   10  C   UNL     2     -42.551 -48.295  11.139  1.00  0.00     0.085 C 
BRANCH  10  11
HETATM   11  C   UNL     2     -41.509 -47.239  11.299  1.00  0.00     0.052 A 
HETATM   12  N   UNL     2     -40.945 -46.576  10.264  1.00  0.00    -0.357 N 
HETATM   13  C   UNL     2     -40.008 -45.688  10.689  1.00  0.00     0.012 A 
ATOM     14  HN  UNL     2     -41.192 -46.724   9.286  1.00  0.00     0.166 HD
HETATM   15  C   UNL     2     -39.247 -44.828   9.736  1.00  0.00     0.068 C 
HETATM   16  C   UNL     2     -39.818 -45.643  12.066  1.00  0.00     0.076 A 
HETATM   17  S   UNL     2     -40.862 -46.753  12.774  1.00  0.00    -0.087 SA
ENDBRANCH  10  11
ENDBRANCH   9  10
ENDBRANCH   5   9
BRANCH   1  18
HETATM   18  C   UNL     2     -38.871 -51.186  12.845  1.00  0.00     0.164 C 
BRANCH  18  19
HETATM   19  C   UNL     2     -38.843 -52.164  14.010  1.00  0.00     0.187 C 
BRANCH  19  20
HETATM   20  O   UNL     2     -38.861 -53.478  13.493  1.00  0.00    -0.394 OA
HETATM   21  C   UNL     2     -39.786 -54.253  14.214  1.00  0.00     0.201 C 
ENDBRANCH  19  20
ENDBRANCH  18  19
ENDBRANCH   1  18
TORSDOF 6
ENDMDL
MODEL 6
REMARK VINA RESULT:      -4.9      3.000      6.331
REMARK  6 active torsions:
REMARK  status: ('A' for Active; 'I' for Inactive)
REMARK    1  A    between atoms: O_4  and  C_5 
REMARK    2  A    between atoms: C_5  and  C_6 
REMARK    3  A    between atoms: C_6  and  N_7 
REMARK       I    between atoms: C_9  and  N_10 
REMARK       I    between atoms: C_9  and  N_11 
REMARK    4  A    between atoms: N_11  and  C_12 
REMARK    5  A    between atoms: C_12  and  C_13 
REMARK    6  A    between atoms: C_13  and  C_14 
ROOT
HETATM    1  N   UNL     2     -42.850 -48.062   9.893  1.00  0.00    -0.225 N 
ATOM      2  HN  UNL     2     -43.392 -48.823  10.301  1.00  0.00     0.177 HD
HETATM    3  C   UNL     2     -41.826 -47.656  10.576  1.00  0.00     0.667 C 
HETATM    4  N   UNL     2     -40.952 -46.636  10.102  1.00  0.00    -0.235 N 
HETATM    5  N   UNL     2     -41.533 -48.274  11.827  1.00  0.00    -0.226 N 
HETATM    6  H   UNL     2     -41.040 -46.209   9.171  1.00  0.00     0.174 HD
HETATM    7  H   UNL     2     -40.123 -46.382  10.657  1.00  0.00     0.174 HD
HETATM    8  H   UNL     2     -40.835 -47.840  12.448  1.00  0.00     0.177 HD
ENDROOT
BRANCH   5   9
HETATM    9  C   UNL     2     -42.122 -49.536  12.228  1.00  0.00     0.144 C 
BRANCH   9  10
HETATM   10  C   UNL     2     -41.150 -50.682  11.899  1.00  0.00     0.085 C 
BRANCH  10  11
HETATM   11  C   UNL     2     -41.660 -51.995  12.392  1.00  0.00     0.052 A 
HETATM   12  N   UNL     2     -42.965 -52.349  12.376  1.00  0.00    -0.357 N 
HETATM   13  C   UNL     2     -43.156 -53.585  12.907  1.00  0.00     0.012 A 
ATOM     14  HN  UNL     2     -43.714 -51.761  12.011  1.00  0.00     0.166 HD
HETATM   15  C   UNL     2     -44.510 -54.206  12.996  1.00  0.00     0.068 C 
HETATM   16  C   UNL     2     -42.002 -54.221  13.353  1.00  0.00     0.076 A 
HETATM   17  S   UNL     2     -40.699 -53.198  13.070  1.00  0.00    -0.087 SA
ENDBRANCH  10  11
ENDBRANCH   9  10
ENDBRANCH   5   9
BRANCH   1  18
HETATM   18  C   UNL     2     -43.312 -47.557   8.616  1.00  0.00     0.164 C 
BRANCH  18  19
HETATM   19  C   UNL     2     -44.787 -47.200   8.730  1.00  0.00     0.187 C 
BRANCH  19  20
HETATM   20  O   UNL     2     -45.549 -48.262   8.195  1.00  0.00    -0.394 OA
HETATM   21  C   UNL     2     -46.776 -48.347   8.876  1.00  0.00     0.201 C 
ENDBRANCH  19  20
ENDBRANCH  18  19
ENDBRANCH   1  18
TORSDOF 6
ENDMDL
MODEL 7
REMARK VINA RESULT:      -4.9      4.090      6.505
REMARK  6 active torsions:
REMARK  status: ('A' for Active; 'I' for Inactive)
REMARK    1  A    between atoms: O_4  and  C_5 
REMARK    2  A    between atoms: C_5  and  C_6 
REMARK    3  A    between atoms: C_6  and  N_7 
REMARK       I    between atoms: C_9  and  N_10 
REMARK       I    between atoms: C_9  and  N_11 
REMARK    4  A    between atoms: N_11  and  C_12 
REMARK    5  A    between atoms: C_12  and  C_13 
REMARK    6  A    between atoms: C_13  and  C_14 
ROOT
HETATM    1  N   UNL     2     -39.952 -49.756  12.480  1.00  0.00    -0.225 N 
ATOM      2  HN  UNL     2     -39.998 -50.243  13.375  1.00  0.00     0.177 HD
HETATM    3  C   UNL     2     -40.462 -50.375  11.462  1.00  0.00     0.667 C 
HETATM    4  N   UNL     2     -40.513 -49.790  10.164  1.00  0.00    -0.235 N 
HETATM    5  N   UNL     2     -41.032 -51.669  11.648  1.00  0.00    -0.226 N 
HETATM    6  H   UNL     2     -40.211 -48.827   9.969  1.00  0.00     0.174 HD
HETATM    7  H   UNL     2     -40.973 -50.301   9.397  1.00  0.00     0.174 HD
HETATM    8  H   UNL     2     -41.274 -52.232  10.819  1.00  0.00     0.177 HD
ENDROOT
BRANCH   5   9
HETATM    9  C   UNL     2     -41.357 -52.196  12.957  1.00  0.00     0.144 C 
BRANCH   9  10
HETATM   10  C   UNL     2     -42.028 -53.572  12.804  1.00  0.00     0.085 C 
BRANCH  10  11
HETATM   11  C   UNL     2     -43.507 -53.487  12.982  1.00  0.00     0.052 A 
HETATM   12  N   UNL     2     -44.295 -52.608  12.322  1.00  0.00    -0.357 N 
HETATM   13  C   UNL     2     -45.597 -52.726  12.692  1.00  0.00     0.012 A 
ATOM     14  HN  UNL     2     -43.954 -51.938  11.633  1.00  0.00     0.166 HD
HETATM   15  C   UNL     2     -46.667 -51.870  12.100  1.00  0.00     0.068 C 
HETATM   16  C   UNL     2     -45.852 -53.699  13.653  1.00  0.00     0.076 A 
HETATM   17  S   UNL     2     -44.395 -54.436  14.050  1.00  0.00    -0.087 SA
ENDBRANCH  10  11
ENDBRANCH   9  10
ENDBRANCH   5   9
BRANCH   1  18
HETATM   18  C   UNL     2     -39.324 -48.450  12.492  1.00  0.00     0.164 C 
BRANCH  18  19
HETATM   19  C   UNL     2     -40.275 -47.449  13.131  1.00  0.00     0.187 C 
BRANCH  19  20
HETATM   20  O   UNL     2     -40.157 -46.219  12.448  1.00  0.00    -0.394 OA
HETATM   21  C   UNL     2     -40.580 -46.378  11.117  1.00  0.00     0.201 C 
ENDBRANCH  19  20
ENDBRANCH  18  19
ENDBRANCH   1  18
TORSDOF 6
ENDMDL
MODEL 8
REMARK VINA RESULT:      -4.9      3.370      6.082
REMARK  6 active torsions:
REMARK  status: ('A' for Active; 'I' for Inactive)
REMARK    1  A    between atoms: O_4  and  C_5 
REMARK    2  A    between atoms: C_5  and  C_6 
REMARK    3  A    between atoms: C_6  and  N_7 
REMARK       I    between atoms: C_9  and  N_10 
REMARK       I    between atoms: C_9  and  N_11 
REMARK    4  A    between atoms: N_11  and  C_12 
REMARK    5  A    between atoms: C_12  and  C_13 
REMARK    6  A    between atoms: C_13  and  C_14 
ROOT
HETATM    1  N   UNL     2     -41.474 -49.701  11.085  1.00  0.00    -0.225 N 
ATOM      2  HN  UNL     2     -42.293 -50.275  11.288  1.00  0.00     0.177 HD
HETATM    3  C   UNL     2     -40.320 -50.243  11.319  1.00  0.00     0.667 C 
HETATM    4  N   UNL     2     -39.096 -49.575  11.034  1.00  0.00    -0.235 N 
HETATM    5  N   UNL     2     -40.267 -51.568  11.842  1.00  0.00    -0.226 N 
HETATM    6  H   UNL     2     -39.050 -48.659  10.570  1.00  0.00     0.174 HD
HETATM    7  H   UNL     2     -38.204 -50.065  11.191  1.00  0.00     0.174 HD
HETATM    8  H   UNL     2     -39.368 -51.931  12.192  1.00  0.00     0.177 HD
ENDROOT
BRANCH   5   9
HETATM    9  C   UNL     2     -41.410 -52.458  11.828  1.00  0.00     0.144 C 
BRANCH   9  10
HETATM   10  C   UNL     2     -41.959 -52.609  13.258  1.00  0.00     0.085 C 
BRANCH  10  11
HETATM   11  C   UNL     2     -43.431 -52.852  13.261  1.00  0.00     0.052 A 
HETATM   12  N   UNL     2     -44.323 -52.073  12.609  1.00  0.00    -0.357 N 
HETATM   13  C   UNL     2     -45.598 -52.502  12.800  1.00  0.00     0.012 A 
ATOM     14  HN  UNL     2     -44.071 -51.262  12.043  1.00  0.00     0.166 HD
HETATM   15  C   UNL     2     -46.765 -51.812  12.177  1.00  0.00     0.068 C 
HETATM   16  C   UNL     2     -45.728 -53.625  13.610  1.00  0.00     0.076 A 
HETATM   17  S   UNL     2     -44.191 -54.095  14.102  1.00  0.00    -0.087 SA
ENDBRANCH  10  11
ENDBRANCH   9  10
ENDBRANCH   5   9
BRANCH   1  18
HETATM   18  C   UNL     2     -41.735 -48.373  10.568  1.00  0.00     0.164 C 
BRANCH  18  19
HETATM   19  C   UNL     2     -43.066 -47.881  11.115  1.00  0.00     0.187 C 
BRANCH  19  20
HETATM   20  O   UNL     2     -43.306 -46.583  10.613  1.00  0.00    -0.394 OA
HETATM   21  C   UNL     2     -43.205 -46.597   9.210  1.00  0.00     0.201 C 
ENDBRANCH  19  20
ENDBRANCH  18  19
ENDBRANCH   1  18
TORSDOF 6
ENDMDL
MODEL 9
REMARK VINA RESULT:      -4.8      4.321      6.416
REMARK  6 active torsions:
REMARK  status: ('A' for Active; 'I' for Inactive)
REMARK    1  A    between atoms: O_4  and  C_5 
REMARK    2  A    between atoms: C_5  and  C_6 
REMARK    3  A    between atoms: C_6  and  N_7 
REMARK       I    between atoms: C_9  and  N_10 
REMARK       I    between atoms: C_9  and  N_11 
REMARK    4  A    between atoms: N_11  and  C_12 
REMARK    5  A    between atoms: C_12  and  C_13 
REMARK    6  A    between atoms: C_13  and  C_14 
ROOT
HETATM    1  N   UNL     2     -39.494 -50.214  12.414  1.00  0.00    -0.225 N 
ATOM      2  HN  UNL     2     -39.461 -50.810  13.241  1.00  0.00     0.177 HD
HETATM    3  C   UNL     2     -40.301 -50.585  11.470  1.00  0.00     0.667 C 
HETATM    4  N   UNL     2     -40.485 -49.821  10.283  1.00  0.00    -0.235 N 
HETATM    5  N   UNL     2     -41.064 -51.779  11.636  1.00  0.00    -0.226 N 
HETATM    6  H   UNL     2     -40.045 -48.905  10.130  1.00  0.00     0.174 HD
HETATM    7  H   UNL     2     -41.174 -50.131   9.583  1.00  0.00     0.174 HD
HETATM    8  H   UNL     2     -41.566 -52.168  10.825  1.00  0.00     0.177 HD
ENDROOT
BRANCH   5   9
HETATM    9  C   UNL     2     -41.228 -52.425  12.922  1.00  0.00     0.144 C 
BRANCH   9  10
HETATM   10  C   UNL     2     -41.972 -53.759  12.734  1.00  0.00     0.085 C 
BRANCH  10  11
HETATM   11  C   UNL     2     -43.434 -53.616  12.998  1.00  0.00     0.052 A 
HETATM   12  N   UNL     2     -44.238 -52.755  12.334  1.00  0.00    -0.357 N 
HETATM   13  C   UNL     2     -45.516 -52.809  12.792  1.00  0.00     0.012 A 
ATOM     14  HN  UNL     2     -43.924 -52.141  11.583  1.00  0.00     0.166 HD
HETATM   15  C   UNL     2     -46.598 -51.959  12.214  1.00  0.00     0.068 C 
HETATM   16  C   UNL     2     -45.736 -53.712  13.827  1.00  0.00     0.076 A 
HETATM   17  S   UNL     2     -44.277 -54.468  14.178  1.00  0.00    -0.087 SA
ENDBRANCH  10  11
ENDBRANCH   9  10
ENDBRANCH   5   9
BRANCH   1  18
HETATM   18  C   UNL     2     -38.634 -49.047  12.428  1.00  0.00     0.164 C 
BRANCH  18  19
HETATM   19  C   UNL     2     -37.945 -48.958  13.782  1.00  0.00     0.187 C 
BRANCH  19  20
HETATM   20  O   UNL     2     -38.794 -49.526  14.757  1.00  0.00    -0.394 OA
HETATM   21  C   UNL     2     -38.121 -49.579  15.991  1.00  0.00     0.201 C 
ENDBRANCH  19  20
ENDBRANCH  18  19
ENDBRANCH   1  18
TORSDOF 6
ENDMDL
