MODEL 1
REMARK VINA RESULT:      -5.1      0.000      0.000
REMARK  6 active torsions:
REMARK  status: ('A' for Active; 'I' for Inactive)
REMARK    1  A    between atoms: C_9  and  C_10 
REMARK    2  A    between atoms: C_10  and  C_11 
REMARK       I    between atoms: C_11  and  N_13 
REMARK    3  A    between atoms: N_13  and  C_14 
REMARK    4  A    between atoms: C_14  and  C_15 
REMARK    5  A    between atoms: C_15  and  S_16 
REMARK    6  A    between atoms: S_16  and  C_17 
ROOT
HETATM    1  C   UNL     1     -41.765 -51.154  12.478  1.00  0.00     0.222 C 
HETATM    2  O   UNL     1     -42.122 -50.764  13.590  1.00  0.00    -0.273 OA
HETATM    3  N   UNL     1     -41.595 -50.288  11.407  1.00  0.00    -0.360 N 
HETATM    4  H   UNL     1     -41.656 -50.681  10.475  1.00  0.00     0.162 HD
ENDROOT
BRANCH   1   5
HETATM    5  C   UNL     1     -41.382 -52.605  12.216  1.00  0.00     0.145 C 
BRANCH   5   6
HETATM    6  C   UNL     1     -41.758 -53.572  13.297  1.00  0.00    -0.002 A 
HETATM    7  C   UNL     1     -43.027 -54.158  13.585  1.00  0.00     0.030 A 
HETATM    8  C   UNL     1     -44.323 -54.006  12.873  1.00  0.00     0.070 C 
HETATM    9  N   UNL     1     -42.986 -54.915  14.687  1.00  0.00    -0.303 N 
HETATM   10  N   UNL     1     -41.724 -54.811  15.122  1.00  0.00    -0.300 N 
ATOM     11  HN  UNL     1     -43.746 -55.452  15.103  1.00  0.00     0.186 HD
HETATM   12  C   UNL     1     -41.351 -55.497  16.337  1.00  0.00     0.177 C 
HETATM   13  C   UNL     1     -40.940 -54.008  14.335  1.00  0.00     0.033 A 
HETATM   14  C   UNL     1     -39.521 -53.691  14.636  1.00  0.00     0.070 C 
ENDBRANCH   5   6
ENDBRANCH   1   5
BRANCH   3  15
HETATM   15  C   UNL     1     -41.910 -48.874  11.570  1.00  0.00     0.132 C 
BRANCH  15  16
HETATM   16  C   UNL     1     -40.747 -47.905  11.292  1.00  0.00     0.094 C 
BRANCH  16  17
HETATM   17  S   UNL     1     -39.845 -47.544  12.840  1.00  0.00    -0.163 SA
BRANCH  17  18
HETATM   18  C   UNL     1     -38.512 -48.791  12.863  1.00  0.00     0.047 C 
HETATM   19  C   UNL     1     -38.188 -49.466  11.533  1.00  0.00     0.015 C 
HETATM   20  C   UNL     1     -37.362 -50.702  11.918  1.00  0.00     0.001 C 
HETATM   21  C   UNL     1     -37.449 -50.821  13.440  1.00  0.00     0.001 C 
HETATM   22  C   UNL     1     -38.653 -49.966  13.827  1.00  0.00     0.015 C 
ENDBRANCH  17  18
ENDBRANCH  16  17
ENDBRANCH  15  16
ENDBRANCH   3  15
TORSDOF 6
ENDMDL
MODEL 2
REMARK VINA RESULT:      -5.1      3.594      7.891
REMARK  6 active torsions:
REMARK  status: ('A' for Active; 'I' for Inactive)
REMARK    1  A    between atoms: C_9  and  C_10 
REMARK    2  A    between atoms: C_10  and  C_11 
REMARK       I    between atoms: C_11  and  N_13 
REMARK    3  A    between atoms: N_13  and  C_14 
REMARK    4  A    between atoms: C_14  and  C_15 
REMARK    5  A    between atoms: C_15  and  S_16 
REMARK    6  A    between atoms: S_16  and  C_17 
ROOT
HETATM    1  C   UNL     1     -42.066 -49.020  11.675  1.00  0.00     0.222 C 
HETATM    2  O   UNL     1     -42.688 -48.561  12.633  1.00  0.00    -0.273 OA
HETATM    3  N   UNL     1     -41.704 -50.358  11.597  1.00  0.00    -0.360 N 
HETATM    4  H   UNL     1     -40.920 -50.596  11.002  1.00  0.00     0.162 HD
ENDROOT
BRANCH   1   5
HETATM    5  C   UNL     1     -41.733 -48.179  10.450  1.00  0.00     0.145 C 
BRANCH   5   6
HETATM    6  C   UNL     1     -42.374 -46.825  10.410  1.00  0.00    -0.002 A 
HETATM    7  C   UNL     1     -43.509 -46.383   9.665  1.00  0.00     0.030 A 
HETATM    8  C   UNL     1     -44.397 -47.148   8.751  1.00  0.00     0.070 C 
HETATM    9  N   UNL     1     -43.732 -45.075   9.829  1.00  0.00    -0.303 N 
HETATM   10  N   UNL     1     -42.754 -44.664  10.647  1.00  0.00    -0.300 N 
ATOM     11  HN  UNL     1     -44.480 -44.514   9.423  1.00  0.00     0.186 HD
HETATM   12  C   UNL     1     -42.688 -43.266  11.002  1.00  0.00     0.177 C 
HETATM   13  C   UNL     1     -41.900 -45.668  11.022  1.00  0.00     0.033 A 
HETATM   14  C   UNL     1     -40.705 -45.458  11.878  1.00  0.00     0.070 C 
ENDBRANCH   5   6
ENDBRANCH   1   5
BRANCH   3  15
HETATM   15  C   UNL     1     -42.006 -51.249  12.711  1.00  0.00     0.132 C 
BRANCH  15  16
HETATM   16  C   UNL     1     -41.819 -52.749  12.423  1.00  0.00     0.094 C 
BRANCH  16  17
HETATM   17  S   UNL     1     -43.221 -53.701  13.106  1.00  0.00    -0.163 SA
BRANCH  17  18
HETATM   18  C   UNL     1     -44.555 -52.462  13.249  1.00  0.00     0.047 C 
HETATM   19  C   UNL     1     -45.109 -52.217  14.650  1.00  0.00     0.015 C 
HETATM   20  C   UNL     1     -46.433 -51.475  14.417  1.00  0.00     0.001 C 
HETATM   21  C   UNL     1     -46.702 -51.536  12.913  1.00  0.00     0.001 C 
HETATM   22  C   UNL     1     -45.810 -52.667  12.407  1.00  0.00     0.015 C 
ENDBRANCH  17  18
ENDBRANCH  16  17
ENDBRANCH  15  16
ENDBRANCH   3  15
TORSDOF 6
ENDMDL
MODEL 3
REMARK VINA RESULT:      -5.1      3.292      7.700
REMARK  6 active torsions:
REMARK  status: ('A' for Active; 'I' for Inactive)
REMARK    1  A    between atoms: C_9  and  C_10 
REMARK    2  A    between atoms: C_10  and  C_11 
REMARK       I    between atoms: C_11  and  N_13 
REMARK    3  A    between atoms: N_13  and  C_14 
REMARK    4  A    between atoms: C_14  and  C_15 
REMARK    5  A    between atoms: C_15  and  S_16 
REMARK    6  A    between atoms: S_16  and  C_17 
ROOT
HETATM    1  C   UNL     1     -42.069 -49.872  12.832  1.00  0.00     0.222 C 
HETATM    2  O   UNL     1     -41.199 -49.944  13.698  1.00  0.00    -0.273 OA
HETATM    3  N   UNL     1     -42.409 -50.952  12.028  1.00  0.00    -0.360 N 
HETATM    4  H   UNL     1     -42.844 -50.751  11.135  1.00  0.00     0.162 HD
ENDROOT
BRANCH   1   5
HETATM    5  C   UNL     1     -42.917 -48.621  12.640  1.00  0.00     0.145 C 
BRANCH   5   6
HETATM    6  C   UNL     1     -42.604 -47.817  11.415  1.00  0.00    -0.002 A 
HETATM    7  C   UNL     1     -41.408 -47.118  11.073  1.00  0.00     0.030 A 
HETATM    8  C   UNL     1     -40.123 -47.022  11.814  1.00  0.00     0.070 C 
HETATM    9  N   UNL     1     -41.538 -46.444   9.925  1.00  0.00    -0.303 N 
HETATM   10  N   UNL     1     -42.797 -46.679   9.535  1.00  0.00    -0.300 N 
ATOM     11  HN  UNL     1     -40.835 -45.877   9.452  1.00  0.00     0.186 HD
HETATM   12  C   UNL     1     -43.275 -46.055   8.323  1.00  0.00     0.177 C 
HETATM   13  C   UNL     1     -43.493 -47.489  10.395  1.00  0.00     0.033 A 
HETATM   14  C   UNL     1     -44.921 -47.851  10.213  1.00  0.00     0.070 C 
ENDBRANCH   5   6
ENDBRANCH   1   5
BRANCH   3  15
HETATM   15  C   UNL     1     -41.671 -52.203  12.158  1.00  0.00     0.132 C 
BRANCH  15  16
HETATM   16  C   UNL     1     -42.288 -53.233  13.121  1.00  0.00     0.094 C 
BRANCH  16  17
HETATM   17  S   UNL     1     -43.973 -53.679  12.570  1.00  0.00    -0.163 SA
BRANCH  17  18
HETATM   18  C   UNL     1     -45.056 -52.831  13.770  1.00  0.00     0.047 C 
HETATM   19  C   UNL     1     -46.129 -53.685  14.441  1.00  0.00     0.015 C 
HETATM   20  C   UNL     1     -47.107 -52.669  15.051  1.00  0.00     0.001 C 
HETATM   21  C   UNL     1     -46.697 -51.299  14.509  1.00  0.00     0.001 C 
HETATM   22  C   UNL     1     -45.831 -51.608  13.289  1.00  0.00     0.015 C 
ENDBRANCH  17  18
ENDBRANCH  16  17
ENDBRANCH  15  16
ENDBRANCH   3  15
TORSDOF 6
ENDMDL
MODEL 4
REMARK VINA RESULT:      -5.0      2.829      7.036
REMARK  6 active torsions:
REMARK  status: ('A' for Active; 'I' for Inactive)
REMARK    1  A    between atoms: C_9  and  C_10 
REMARK    2  A    between atoms: C_10  and  C_11 
REMARK       I    between atoms: C_11  and  N_13 
REMARK    3  A    between atoms: N_13  and  C_14 
REMARK    4  A    between atoms: C_14  and  C_15 
REMARK    5  A    between atoms: C_15  and  S_16 
REMARK    6  A    between atoms: S_16  and  C_17 
ROOT
HETATM    1  C   UNL     1     -40.114 -52.235  13.837  1.00  0.00     0.222 C 
HETATM    2  O   UNL     1     -39.140 -52.927  13.542  1.00  0.00    -0.273 OA
HETATM    3  N   UNL     1     -41.346 -52.786  14.160  1.00  0.00    -0.360 N 
HETATM    4  H   UNL     1     -42.165 -52.200  14.042  1.00  0.00     0.162 HD
ENDROOT
BRANCH   1   5
HETATM    5  C   UNL     1     -40.017 -50.721  13.973  1.00  0.00     0.145 C 
BRANCH   5   6
HETATM    6  C   UNL     1     -40.354 -49.944  12.736  1.00  0.00    -0.002 A 
HETATM    7  C   UNL     1     -39.487 -49.440  11.721  1.00  0.00     0.030 A 
HETATM    8  C   UNL     1     -38.013 -49.574  11.582  1.00  0.00     0.070 C 
HETATM    9  N   UNL     1     -40.154 -48.722  10.811  1.00  0.00    -0.303 N 
HETATM   10  N   UNL     1     -41.425 -48.739  11.230  1.00  0.00    -0.300 N 
ATOM     11  HN  UNL     1     -39.778 -48.263   9.981  1.00  0.00     0.186 HD
HETATM   12  C   UNL     1     -42.416 -48.013  10.471  1.00  0.00     0.177 C 
HETATM   13  C   UNL     1     -41.607 -49.449  12.389  1.00  0.00     0.033 A 
HETATM   14  C   UNL     1     -42.913 -49.570  13.085  1.00  0.00     0.070 C 
ENDBRANCH   5   6
ENDBRANCH   1   5
BRANCH   3  15
HETATM   15  C   UNL     1     -41.528 -54.231  14.087  1.00  0.00     0.132 C 
BRANCH  15  16
HETATM   16  C   UNL     1     -42.939 -54.735  14.439  1.00  0.00     0.094 C 
BRANCH  16  17
HETATM   17  S   UNL     1     -44.145 -54.149  13.197  1.00  0.00    -0.163 SA
BRANCH  17  18
HETATM   18  C   UNL     1     -45.172 -52.957  14.123  1.00  0.00     0.047 C 
HETATM   19  C   UNL     1     -46.200 -53.546  15.085  1.00  0.00     0.015 C 
HETATM   20  C   UNL     1     -47.153 -52.382  15.394  1.00  0.00     0.001 C 
HETATM   21  C   UNL     1     -46.785 -51.257  14.426  1.00  0.00     0.001 C 
HETATM   22  C   UNL     1     -45.982 -51.943  13.323  1.00  0.00     0.015 C 
ENDBRANCH  17  18
ENDBRANCH  16  17
ENDBRANCH  15  16
ENDBRANCH   3  15
TORSDOF 6
ENDMDL
MODEL 5
REMARK VINA RESULT:      -5.0      3.821      6.505
REMARK  6 active torsions:
REMARK  status: ('A' for Active; 'I' for Inactive)
REMARK    1  A    between atoms: C_9  and  C_10 
REMARK    2  A    between atoms: C_10  and  C_11 
REMARK       I    between atoms: C_11  and  N_13 
REMARK    3  A    between atoms: N_13  and  C_14 
REMARK    4  A    between atoms: C_14  and  C_15 
REMARK    5  A    between atoms: C_15  and  S_16 
REMARK    6  A    between atoms: S_16  and  C_17 
ROOT
HETATM    1  C   UNL     1     -42.741 -54.749  17.085  1.00  0.00     0.222 C 
HETATM    2  O   UNL     1     -41.748 -54.243  17.608  1.00  0.00    -0.273 OA
HETATM    3  N   UNL     1     -44.016 -54.603  17.615  1.00  0.00    -0.360 N 
HETATM    4  H   UNL     1     -44.706 -55.304  17.371  1.00  0.00     0.162 HD
ENDROOT
BRANCH   1   5
HETATM    5  C   UNL     1     -42.665 -55.490  15.757  1.00  0.00     0.145 C 
BRANCH   5   6
HETATM    6  C   UNL     1     -42.703 -54.622  14.536  1.00  0.00    -0.002 A 
HETATM    7  C   UNL     1     -43.780 -54.383  13.630  1.00  0.00     0.030 A 
HETATM    8  C   UNL     1     -45.175 -54.895  13.661  1.00  0.00     0.070 C 
HETATM    9  N   UNL     1     -43.405 -53.607  12.608  1.00  0.00    -0.303 N 
HETATM   10  N   UNL     1     -42.108 -53.358  12.828  1.00  0.00    -0.300 N 
ATOM     11  HN  UNL     1     -43.980 -53.276  11.832  1.00  0.00     0.186 HD
HETATM   12  C   UNL     1     -41.382 -52.559  11.869  1.00  0.00     0.177 C 
HETATM   13  C   UNL     1     -41.625 -53.951  13.966  1.00  0.00     0.033 A 
HETATM   14  C   UNL     1     -40.207 -53.873  14.399  1.00  0.00     0.070 C 
ENDBRANCH   5   6
ENDBRANCH   1   5
BRANCH   3  15
HETATM   15  C   UNL     1     -44.192 -53.884  18.871  1.00  0.00     0.132 C 
BRANCH  15  16
HETATM   16  C   UNL     1     -44.780 -52.467  18.740  1.00  0.00     0.094 C 
BRANCH  16  17
HETATM   17  S   UNL     1     -46.446 -52.542  17.993  1.00  0.00    -0.163 SA
BRANCH  17  18
HETATM   18  C   UNL     1     -46.134 -52.261  16.216  1.00  0.00     0.047 C 
HETATM   19  C   UNL     1     -44.871 -51.480  15.862  1.00  0.00     0.015 C 
HETATM   20  C   UNL     1     -45.076 -51.055  14.400  1.00  0.00     0.001 C 
HETATM   21  C   UNL     1     -46.527 -51.392  14.054  1.00  0.00     0.001 C 
HETATM   22  C   UNL     1     -47.219 -51.559  15.405  1.00  0.00     0.015 C 
ENDBRANCH  17  18
ENDBRANCH  16  17
ENDBRANCH  15  16
ENDBRANCH   3  15
TORSDOF 6
ENDMDL
MODEL 6
REMARK VINA RESULT:      -4.9      3.271      4.711
REMARK  6 active torsions:
REMARK  status: ('A' for Active; 'I' for Inactive)
REMARK    1  A    between atoms: C_9  and  C_10 
REMARK    2  A    between atoms: C_10  and  C_11 
REMARK       I    between atoms: C_11  and  N_13 
REMARK    3  A    between atoms: N_13  and  C_14 
REMARK    4  A    between atoms: C_14  and  C_15 
REMARK    5  A    between atoms: C_15  and  S_16 
REMARK    6  A    between atoms: S_16  and  C_17 
ROOT
HETATM    1  C   UNL     1     -43.932 -54.856  14.279  1.00  0.00     0.222 C 
HETATM    2  O   UNL     1     -43.476 -55.629  15.121  1.00  0.00    -0.273 OA
HETATM    3  N   UNL     1     -43.120 -54.120  13.428  1.00  0.00    -0.360 N 
HETATM    4  H   UNL     1     -43.507 -53.273  13.029  1.00  0.00     0.162 HD
ENDROOT
BRANCH   1   5
HETATM    5  C   UNL     1     -45.430 -54.722  14.034  1.00  0.00     0.145 C 
BRANCH   5   6
HETATM    6  C   UNL     1     -46.055 -53.467  14.564  1.00  0.00    -0.002 A 
HETATM    7  C   UNL     1     -46.483 -52.302  13.858  1.00  0.00     0.030 A 
HETATM    8  C   UNL     1     -46.465 -52.020  12.399  1.00  0.00     0.070 C 
HETATM    9  N   UNL     1     -46.920 -51.351  14.690  1.00  0.00    -0.303 N 
HETATM   10  N   UNL     1     -46.764 -51.871  15.913  1.00  0.00    -0.300 N 
ATOM     11  HN  UNL     1     -47.290 -50.432  14.447  1.00  0.00     0.186 HD
HETATM   12  C   UNL     1     -47.118 -51.068  17.060  1.00  0.00     0.177 C 
HETATM   13  C   UNL     1     -46.238 -53.137  15.904  1.00  0.00     0.033 A 
HETATM   14  C   UNL     1     -45.918 -53.907  17.132  1.00  0.00     0.070 C 
ENDBRANCH   5   6
ENDBRANCH   1   5
BRANCH   3  15
HETATM   15  C   UNL     1     -41.671 -54.205  13.567  1.00  0.00     0.132 C 
BRANCH  15  16
HETATM   16  C   UNL     1     -40.882 -53.028  12.966  1.00  0.00     0.094 C 
BRANCH  16  17
HETATM   17  S   UNL     1     -39.625 -52.440  14.155  1.00  0.00    -0.163 SA
BRANCH  17  18
HETATM   18  C   UNL     1     -39.027 -50.882  13.413  1.00  0.00     0.047 C 
HETATM   19  C   UNL     1     -40.026 -50.108  12.558  1.00  0.00     0.015 C 
HETATM   20  C   UNL     1     -39.166 -49.112  11.765  1.00  0.00     0.001 C 
HETATM   21  C   UNL     1     -37.710 -49.512  12.010  1.00  0.00     0.001 C 
HETATM   22  C   UNL     1     -37.784 -50.945  12.531  1.00  0.00     0.015 C 
ENDBRANCH  17  18
ENDBRANCH  16  17
ENDBRANCH  15  16
ENDBRANCH   3  15
TORSDOF 6
ENDMDL
MODEL 7
REMARK VINA RESULT:      -4.9      2.921      7.138
REMARK  6 active torsions:
REMARK  status: ('A' for Active; 'I' for Inactive)
REMARK    1  A    between atoms: C_9  and  C_10 
REMARK    2  A    between atoms: C_10  and  C_11 
REMARK       I    between atoms: C_11  and  N_13 
REMARK    3  A    between atoms: N_13  and  C_14 
REMARK    4  A    between atoms: C_14  and  C_15 
REMARK    5  A    between atoms: C_15  and  S_16 
REMARK    6  A    between atoms: S_16  and  C_17 
ROOT
HETATM    1  C   UNL     1     -39.635 -50.660  12.212  1.00  0.00     0.222 C 
HETATM    2  O   UNL     1     -39.304 -50.942  13.363  1.00  0.00    -0.273 OA
HETATM    3  N   UNL     1     -40.557 -51.414  11.499  1.00  0.00    -0.360 N 
HETATM    4  H   UNL     1     -40.521 -51.361  10.488  1.00  0.00     0.162 HD
ENDROOT
BRANCH   1   5
HETATM    5  C   UNL     1     -39.137 -49.402  11.514  1.00  0.00     0.145 C 
BRANCH   5   6
HETATM    6  C   UNL     1     -39.788 -48.125  11.953  1.00  0.00    -0.002 A 
HETATM    7  C   UNL     1     -39.449 -47.265  13.040  1.00  0.00     0.030 A 
HETATM    8  C   UNL     1     -38.335 -47.370  14.019  1.00  0.00     0.070 C 
HETATM    9  N   UNL     1     -40.319 -46.257  13.165  1.00  0.00    -0.303 N 
HETATM   10  N   UNL     1     -41.218 -46.463  12.194  1.00  0.00    -0.300 N 
ATOM     11  HN  UNL     1     -40.302 -45.499  13.847  1.00  0.00     0.186 HD
HETATM   12  C   UNL     1     -42.332 -45.551  12.075  1.00  0.00     0.177 C 
HETATM   13  C   UNL     1     -40.959 -47.577  11.439  1.00  0.00     0.033 A 
HETATM   14  C   UNL     1     -41.838 -48.051  10.339  1.00  0.00     0.070 C 
ENDBRANCH   5   6
ENDBRANCH   1   5
BRANCH   3  15
HETATM   15  C   UNL     1     -41.112 -52.623  12.097  1.00  0.00     0.132 C 
BRANCH  15  16
HETATM   16  C   UNL     1     -42.605 -52.548  12.465  1.00  0.00     0.094 C 
BRANCH  16  17
HETATM   17  S   UNL     1     -42.813 -51.736  14.089  1.00  0.00    -0.163 SA
BRANCH  17  18
HETATM   18  C   UNL     1     -44.583 -51.290  14.124  1.00  0.00     0.047 C 
HETATM   19  C   UNL     1     -45.319 -51.526  15.440  1.00  0.00     0.015 C 
HETATM   20  C   UNL     1     -46.807 -51.458  15.069  1.00  0.00     0.001 C 
HETATM   21  C   UNL     1     -46.868 -51.428  13.541  1.00  0.00     0.001 C 
HETATM   22  C   UNL     1     -45.500 -51.934  13.090  1.00  0.00     0.015 C 
ENDBRANCH  17  18
ENDBRANCH  16  17
ENDBRANCH  15  16
ENDBRANCH   3  15
TORSDOF 6
ENDMDL
MODEL 8
REMARK VINA RESULT:      -4.9      2.581      4.564
REMARK  6 active torsions:
REMARK  status: ('A' for Active; 'I' for Inactive)
REMARK    1  A    between atoms: C_9  and  C_10 
REMARK    2  A    between atoms: C_10  and  C_11 
REMARK       I    between atoms: C_11  and  N_13 
REMARK    3  A    between atoms: N_13  and  C_14 
REMARK    4  A    between atoms: C_14  and  C_15 
REMARK    5  A    between atoms: C_15  and  S_16 
REMARK    6  A    between atoms: S_16  and  C_17 
ROOT
HETATM    1  C   UNL     1     -40.848 -52.725  12.637  1.00  0.00     0.222 C 
HETATM    2  O   UNL     1     -39.705 -52.286  12.512  1.00  0.00    -0.273 OA
HETATM    3  N   UNL     1     -41.973 -51.931  12.457  1.00  0.00    -0.360 N 
HETATM    4  H   UNL     1     -42.831 -52.227  12.907  1.00  0.00     0.162 HD
ENDROOT
BRANCH   1   5
HETATM    5  C   UNL     1     -41.123 -54.200  12.899  1.00  0.00     0.145 C 
BRANCH   5   6
HETATM    6  C   UNL     1     -41.574 -54.530  14.289  1.00  0.00    -0.002 A 
HETATM    7  C   UNL     1     -42.898 -54.706  14.792  1.00  0.00     0.030 A 
HETATM    8  C   UNL     1     -44.199 -54.652  14.075  1.00  0.00     0.070 C 
HETATM    9  N   UNL     1     -42.903 -54.913  16.114  1.00  0.00    -0.303 N 
HETATM   10  N   UNL     1     -41.615 -54.854  16.472  1.00  0.00    -0.300 N 
ATOM     11  HN  UNL     1     -43.710 -55.080  16.716  1.00  0.00     0.186 HD
HETATM   12  C   UNL     1     -41.274 -55.007  17.867  1.00  0.00     0.177 C 
HETATM   13  C   UNL     1     -40.768 -54.614  15.421  1.00  0.00     0.033 A 
HETATM   14  C   UNL     1     -39.299 -54.449  15.565  1.00  0.00     0.070 C 
ENDBRANCH   5   6
ENDBRANCH   1   5
BRANCH   3  15
HETATM   15  C   UNL     1     -41.809 -50.509  12.173  1.00  0.00     0.132 C 
BRANCH  15  16
HETATM   16  C   UNL     1     -42.642 -49.563  13.057  1.00  0.00     0.094 C 
BRANCH  16  17
HETATM   17  S   UNL     1     -42.860 -50.285  14.721  1.00  0.00    -0.163 SA
BRANCH  17  18
HETATM   18  C   UNL     1     -44.654 -50.614  14.816  1.00  0.00     0.047 C 
HETATM   19  C   UNL     1     -45.120 -51.524  15.949  1.00  0.00     0.015 C 
HETATM   20  C   UNL     1     -46.544 -51.940  15.550  1.00  0.00     0.001 C 
HETATM   21  C   UNL     1     -46.746 -51.458  14.113  1.00  0.00     0.001 C 
HETATM   22  C   UNL     1     -45.334 -51.209  13.587  1.00  0.00     0.015 C 
ENDBRANCH  17  18
ENDBRANCH  16  17
ENDBRANCH  15  16
ENDBRANCH   3  15
TORSDOF 6
ENDMDL
MODEL 9
REMARK VINA RESULT:      -4.8      2.969      6.821
REMARK  6 active torsions:
REMARK  status: ('A' for Active; 'I' for Inactive)
REMARK    1  A    between atoms: C_9  and  C_10 
REMARK    2  A    between atoms: C_10  and  C_11 
REMARK       I    between atoms: C_11  and  N_13 
REMARK    3  A    between atoms: N_13  and  C_14 
REMARK    4  A    between atoms: C_14  and  C_15 
REMARK    5  A    between atoms: C_15  and  S_16 
REMARK    6  A    between atoms: S_16  and  C_17 
ROOT
HETATM    1  C   UNL     1     -39.104 -50.836  12.154  1.00  0.00     0.222 C 
HETATM    2  O   UNL     1     -38.449 -51.526  12.934  1.00  0.00    -0.273 OA
HETATM    3  N   UNL     1     -40.374 -51.198  11.727  1.00  0.00    -0.360 N 
HETATM    4  H   UNL     1     -40.702 -50.808  10.851  1.00  0.00     0.162 HD
ENDROOT
BRANCH   1   5
HETATM    5  C   UNL     1     -38.615 -49.475  11.674  1.00  0.00     0.145 C 
BRANCH   5   6
HETATM    6  C   UNL     1     -39.150 -48.299  12.433  1.00  0.00    -0.002 A 
HETATM    7  C   UNL     1     -40.205 -47.402  12.085  1.00  0.00     0.030 A 
HETATM    8  C   UNL     1     -41.093 -47.402  10.894  1.00  0.00     0.070 C 
HETATM    9  N   UNL     1     -40.338 -46.421  12.985  1.00  0.00    -0.303 N 
HETATM   10  N   UNL     1     -39.382 -46.658  13.891  1.00  0.00    -0.300 N 
ATOM     11  HN  UNL     1     -41.018 -45.661  12.982  1.00  0.00     0.186 HD
HETATM   12  C   UNL     1     -39.232 -45.743  14.999  1.00  0.00     0.177 C 
HETATM   13  C   UNL     1     -38.627 -47.767  13.608  1.00  0.00     0.033 A 
HETATM   14  C   UNL     1     -37.471 -48.209  14.429  1.00  0.00     0.070 C 
ENDBRANCH   5   6
ENDBRANCH   1   5
BRANCH   3  15
HETATM   15  C   UNL     1     -40.939 -52.472  12.157  1.00  0.00     0.132 C 
BRANCH  15  16
HETATM   16  C   UNL     1     -42.444 -52.449  12.480  1.00  0.00     0.094 C 
BRANCH  16  17
HETATM   17  S   UNL     1     -42.707 -51.953  14.219  1.00  0.00    -0.163 SA
BRANCH  17  18
HETATM   18  C   UNL     1     -44.521 -52.021  14.416  1.00  0.00     0.047 C 
HETATM   19  C   UNL     1     -45.353 -51.735  13.169  1.00  0.00     0.015 C 
HETATM   20  C   UNL     1     -46.767 -51.463  13.702  1.00  0.00     0.001 C 
HETATM   21  C   UNL     1     -46.643 -51.366  15.223  1.00  0.00     0.001 C 
HETATM   22  C   UNL     1     -45.156 -51.125  15.474  1.00  0.00     0.015 C 
ENDBRANCH  17  18
ENDBRANCH  16  17
ENDBRANCH  15  16
ENDBRANCH   3  15
TORSDOF 6
ENDMDL
