MODEL 1
REMARK VINA RESULT:      -5.4      0.000      0.000
REMARK  6 active torsions:
REMARK  status: ('A' for Active; 'I' for Inactive)
REMARK    1  A    between atoms: C_7  and  O_8 
REMARK    2  A    between atoms: O_8  and  C_9 
REMARK    3  A    between atoms: C_9  and  C_10 
REMARK    4  A    between atoms: C_10  and  O_11 
REMARK    5  A    between atoms: C_10  and  C_12 
REMARK    6  A    between atoms: C_12  and  N_13 
ROOT
HETATM    1  C   UNL     1     -40.690 -50.620  13.708  1.00  0.00     0.161 C 
ENDROOT
BRANCH   1   2
HETATM    2  C   UNL     1     -42.031 -50.082  13.172  1.00  0.00     0.209 C 
BRANCH   2   3
HETATM    3  O   UNL     1     -42.880 -49.817  14.296  1.00  0.00    -0.348 OA
BRANCH   3   4
HETATM    4  C   UNL     1     -44.120 -50.401  14.320  1.00  0.00     0.075 A 
HETATM    5  C   UNL     1     -44.691 -50.571  15.595  1.00  0.00    -0.029 A 
HETATM    6  C   UNL     1     -45.953 -51.172  15.712  1.00  0.00     0.010 A 
HETATM    7  C   UNL     1     -43.980 -50.091  16.830  1.00  0.00     0.051 C 
HETATM    8  C   UNL     1     -46.654 -51.579  14.578  1.00  0.00     0.007 A 
HETATM    9  C   UNL     1     -46.106 -51.389  13.308  1.00  0.00    -0.059 A 
HETATM   10  C   UNL     1     -46.864 -51.781  12.075  1.00  0.00     0.048 C 
HETATM   11  C   UNL     1     -44.829 -50.815  13.188  1.00  0.00     0.044 A 
ENDBRANCH   3   4
ENDBRANCH   2   3
ENDBRANCH   1   2
BRANCH   1  12
HETATM   12  O   UNL     1     -40.547 -50.328  15.110  1.00  0.00    -0.392 OA
HETATM   13  H   UNL     1     -40.011 -51.034  15.515  1.00  0.00     0.210 HD
ENDBRANCH   1  12
BRANCH   1  14
HETATM   14  C   UNL     1     -40.515 -52.140  13.544  1.00  0.00     0.166 C 
BRANCH  14  15
HETATM   15  N   UNL     1     -41.745 -52.906  13.696  1.00  0.00    -0.307 N 
HETATM   16  C   UNL     1     -42.446 -53.309  12.593  1.00  0.00     0.186 A 
HETATM   17  N   UNL     1     -43.526 -54.014  12.622  1.00  0.00    -0.355 N 
HETATM   18  C   UNL     1     -44.026 -54.361  13.852  1.00  0.00     0.017 A 
ATOM     19  HN  UNL     1     -43.991 -54.302  11.762  1.00  0.00     0.166 HD
HETATM   20  C   UNL     1     -45.306 -55.155  13.799  1.00  0.00     0.069 C 
HETATM   21  C   UNL     1     -43.447 -54.021  15.018  1.00  0.00     0.028 A 
HETATM   22  C   UNL     1     -43.963 -54.315  16.392  1.00  0.00     0.056 C 
HETATM   23  C   UNL     1     -42.172 -53.259  14.955  1.00  0.00     0.256 A 
HETATM   24  O   UNL     1     -41.568 -52.958  15.982  1.00  0.00    -0.267 OA
ENDBRANCH  14  15
ENDBRANCH   1  14
TORSDOF 6
ENDMDL
MODEL 2
REMARK VINA RESULT:      -5.4      2.345      4.459
REMARK  6 active torsions:
REMARK  status: ('A' for Active; 'I' for Inactive)
REMARK    1  A    between atoms: C_7  and  O_8 
REMARK    2  A    between atoms: O_8  and  C_9 
REMARK    3  A    between atoms: C_9  and  C_10 
REMARK    4  A    between atoms: C_10  and  O_11 
REMARK    5  A    between atoms: C_10  and  C_12 
REMARK    6  A    between atoms: C_12  and  N_13 
ROOT
HETATM    1  C   UNL     1     -41.021 -53.748  13.059  1.00  0.00     0.161 C 
ENDROOT
BRANCH   1   2
HETATM    2  C   UNL     1     -42.551 -53.912  13.131  1.00  0.00     0.209 C 
BRANCH   2   3
HETATM    3  O   UNL     1     -43.029 -53.111  14.219  1.00  0.00    -0.348 OA
BRANCH   3   4
HETATM    4  C   UNL     1     -44.281 -52.562  14.114  1.00  0.00     0.075 A 
HETATM    5  C   UNL     1     -44.828 -52.057  15.308  1.00  0.00    -0.029 A 
HETATM    6  C   UNL     1     -46.110 -51.488  15.295  1.00  0.00     0.010 A 
HETATM    7  C   UNL     1     -44.046 -52.092  16.593  1.00  0.00     0.051 C 
HETATM    8  C   UNL     1     -46.835 -51.399  14.107  1.00  0.00     0.007 A 
HETATM    9  C   UNL     1     -46.287 -51.873  12.913  1.00  0.00    -0.059 A 
HETATM   10  C   UNL     1     -47.034 -51.745  11.618  1.00  0.00     0.048 C 
HETATM   11  C   UNL     1     -45.016 -52.470  12.928  1.00  0.00     0.044 A 
ENDBRANCH   3   4
ENDBRANCH   2   3
ENDBRANCH   1   2
BRANCH   1  12
HETATM   12  O   UNL     1     -40.608 -53.389  11.727  1.00  0.00    -0.392 OA
HETATM   13  H   UNL     1     -40.325 -52.457  11.737  1.00  0.00     0.210 HD
ENDBRANCH   1  12
BRANCH   1  14
HETATM   14  C   UNL     1     -40.461 -52.675  14.009  1.00  0.00     0.166 C 
BRANCH  14  15
HETATM   15  N   UNL     1     -40.205 -51.387  13.376  1.00  0.00    -0.307 N 
HETATM   16  C   UNL     1     -41.175 -50.422  13.363  1.00  0.00     0.186 A 
HETATM   17  N   UNL     1     -41.036 -49.244  12.856  1.00  0.00    -0.355 N 
HETATM   18  C   UNL     1     -39.836 -48.945  12.259  1.00  0.00     0.017 A 
ATOM     19  HN  UNL     1     -41.790 -48.560  12.897  1.00  0.00     0.166 HD
HETATM   20  C   UNL     1     -39.768 -47.562  11.665  1.00  0.00     0.069 C 
HETATM   21  C   UNL     1     -38.803 -49.803  12.189  1.00  0.00     0.028 A 
HETATM   22  C   UNL     1     -37.490 -49.568  11.508  1.00  0.00     0.056 C 
HETATM   23  C   UNL     1     -38.968 -51.132  12.832  1.00  0.00     0.256 A 
HETATM   24  O   UNL     1     -38.046 -51.945  12.844  1.00  0.00    -0.267 OA
ENDBRANCH  14  15
ENDBRANCH   1  14
TORSDOF 6
ENDMDL
MODEL 3
REMARK VINA RESULT:      -5.4      2.219      4.115
REMARK  6 active torsions:
REMARK  status: ('A' for Active; 'I' for Inactive)
REMARK    1  A    between atoms: C_7  and  O_8 
REMARK    2  A    between atoms: O_8  and  C_9 
REMARK    3  A    between atoms: C_9  and  C_10 
REMARK    4  A    between atoms: C_10  and  O_11 
REMARK    5  A    between atoms: C_10  and  C_12 
REMARK    6  A    between atoms: C_12  and  N_13 
ROOT
HETATM    1  C   UNL     1     -46.427 -54.528  14.741  1.00  0.00     0.161 C 
ENDROOT
BRANCH   1   2
HETATM    2  C   UNL     1     -46.696 -53.024  14.545  1.00  0.00     0.209 C 
BRANCH   2   3
HETATM    3  O   UNL     1     -46.201 -52.334  15.700  1.00  0.00    -0.348 OA
BRANCH   3   4
HETATM    4  C   UNL     1     -44.998 -51.684  15.599  1.00  0.00     0.075 A 
HETATM    5  C   UNL     1     -44.044 -52.006  16.582  1.00  0.00    -0.029 A 
HETATM    6  C   UNL     1     -42.790 -51.378  16.560  1.00  0.00     0.010 A 
HETATM    7  C   UNL     1     -44.340 -53.035  17.638  1.00  0.00     0.051 C 
HETATM    8  C   UNL     1     -42.474 -50.458  15.562  1.00  0.00     0.007 A 
HETATM    9  C   UNL     1     -43.405 -50.154  14.567  1.00  0.00    -0.059 A 
HETATM   10  C   UNL     1     -43.067 -49.199  13.460  1.00  0.00     0.048 C 
HETATM   11  C   UNL     1     -44.673 -50.758  14.602  1.00  0.00     0.044 A 
ENDBRANCH   3   4
ENDBRANCH   2   3
ENDBRANCH   1   2
BRANCH   1  12
HETATM   12  O   UNL     1     -47.662 -55.268  14.761  1.00  0.00    -0.392 OA
HETATM   13  H   UNL     1     -48.210 -54.967  14.015  1.00  0.00     0.210 HD
ENDBRANCH   1  12
BRANCH   1  14
HETATM   14  C   UNL     1     -45.545 -55.154  13.647  1.00  0.00     0.166 C 
BRANCH  14  15
HETATM   15  N   UNL     1     -44.285 -54.459  13.420  1.00  0.00    -0.307 N 
HETATM   16  C   UNL     1     -44.161 -53.578  12.381  1.00  0.00     0.186 A 
HETATM   17  N   UNL     1     -43.100 -52.894  12.117  1.00  0.00    -0.355 N 
HETATM   18  C   UNL     1     -42.003 -53.084  12.920  1.00  0.00     0.017 A 
ATOM     19  HN  UNL     1     -43.077 -52.236  11.339  1.00  0.00     0.166 HD
HETATM   20  C   UNL     1     -40.797 -52.273  12.524  1.00  0.00     0.069 C 
HETATM   21  C   UNL     1     -41.981 -53.928  13.967  1.00  0.00     0.028 A 
HETATM   22  C   UNL     1     -40.810 -54.228  14.850  1.00  0.00     0.056 C 
HETATM   23  C   UNL     1     -43.235 -54.660  14.286  1.00  0.00     0.256 A 
HETATM   24  O   UNL     1     -43.295 -55.411  15.257  1.00  0.00    -0.267 OA
ENDBRANCH  14  15
ENDBRANCH   1  14
TORSDOF 6
ENDMDL
MODEL 4
REMARK VINA RESULT:      -5.3      2.367      4.698
REMARK  6 active torsions:
REMARK  status: ('A' for Active; 'I' for Inactive)
REMARK    1  A    between atoms: C_7  and  O_8 
REMARK    2  A    between atoms: O_8  and  C_9 
REMARK    3  A    between atoms: C_9  and  C_10 
REMARK    4  A    between atoms: C_10  and  O_11 
REMARK    5  A    between atoms: C_10  and  C_12 
REMARK    6  A    between atoms: C_12  and  N_13 
ROOT
HETATM    1  C   UNL     1     -39.910 -53.869  13.507  1.00  0.00     0.161 C 
ENDROOT
BRANCH   1   2
HETATM    2  C   UNL     1     -39.217 -52.701  14.233  1.00  0.00     0.209 C 
BRANCH   2   3
HETATM    3  O   UNL     1     -38.668 -51.828  13.238  1.00  0.00    -0.348 OA
BRANCH   3   4
HETATM    4  C   UNL     1     -39.273 -50.613  13.041  1.00  0.00     0.075 A 
HETATM    5  C   UNL     1     -38.641 -49.759  12.118  1.00  0.00    -0.029 A 
HETATM    6  C   UNL     1     -39.186 -48.491  11.865  1.00  0.00     0.010 A 
HETATM    7  C   UNL     1     -37.407 -50.196  11.379  1.00  0.00     0.051 C 
HETATM    8  C   UNL     1     -40.358 -48.081  12.500  1.00  0.00     0.007 A 
HETATM    9  C   UNL     1     -41.005 -48.935  13.397  1.00  0.00    -0.059 A 
HETATM   10  C   UNL     1     -42.290 -48.528  14.056  1.00  0.00     0.048 C 
HETATM   11  C   UNL     1     -40.446 -50.193  13.676  1.00  0.00     0.044 A 
ENDBRANCH   3   4
ENDBRANCH   2   3
ENDBRANCH   1   2
BRANCH   1  12
HETATM   12  O   UNL     1     -38.981 -54.940  13.259  1.00  0.00    -0.392 OA
HETATM   13  H   UNL     1     -38.810 -55.397  14.103  1.00  0.00     0.210 HD
ENDBRANCH   1  12
BRANCH   1  14
HETATM   14  C   UNL     1     -41.096 -54.472  14.282  1.00  0.00     0.166 C 
BRANCH  14  15
HETATM   15  N   UNL     1     -42.403 -54.020  13.826  1.00  0.00    -0.307 N 
HETATM   16  C   UNL     1     -42.501 -53.049  12.868  1.00  0.00     0.186 A 
HETATM   17  N   UNL     1     -43.609 -52.604  12.379  1.00  0.00    -0.355 N 
HETATM   18  C   UNL     1     -44.778 -53.122  12.877  1.00  0.00     0.017 A 
ATOM     19  HN  UNL     1     -43.615 -51.893  11.648  1.00  0.00     0.166 HD
HETATM   20  C   UNL     1     -46.025 -52.526  12.277  1.00  0.00     0.069 C 
HETATM   21  C   UNL     1     -44.829 -54.071  13.829  1.00  0.00     0.028 A 
HETATM   22  C   UNL     1     -46.062 -54.641  14.458  1.00  0.00     0.056 C 
HETATM   23  C   UNL     1     -43.539 -54.608  14.333  1.00  0.00     0.256 A 
HETATM   24  O   UNL     1     -43.516 -55.509  15.169  1.00  0.00    -0.267 OA
ENDBRANCH  14  15
ENDBRANCH   1  14
TORSDOF 6
ENDMDL
MODEL 5
REMARK VINA RESULT:      -5.3      2.630      5.463
REMARK  6 active torsions:
REMARK  status: ('A' for Active; 'I' for Inactive)
REMARK    1  A    between atoms: C_7  and  O_8 
REMARK    2  A    between atoms: O_8  and  C_9 
REMARK    3  A    between atoms: C_9  and  C_10 
REMARK    4  A    between atoms: C_10  and  O_11 
REMARK    5  A    between atoms: C_10  and  C_12 
REMARK    6  A    between atoms: C_12  and  N_13 
ROOT
HETATM    1  C   UNL     1     -40.647 -53.253  12.991  1.00  0.00     0.161 C 
ENDROOT
BRANCH   1   2
HETATM    2  C   UNL     1     -39.366 -53.399  13.833  1.00  0.00     0.209 C 
BRANCH   2   3
HETATM    3  O   UNL     1     -38.395 -52.476  13.322  1.00  0.00    -0.348 OA
BRANCH   3   4
HETATM    4  C   UNL     1     -38.350 -51.219  13.866  1.00  0.00     0.075 A 
HETATM    5  C   UNL     1     -37.848 -50.207  13.026  1.00  0.00    -0.029 A 
HETATM    6  C   UNL     1     -37.755 -48.893  13.507  1.00  0.00     0.010 A 
HETATM    7  C   UNL     1     -37.435 -50.510  11.612  1.00  0.00     0.051 C 
HETATM    8  C   UNL     1     -38.178 -48.576  14.797  1.00  0.00     0.007 A 
HETATM    9  C   UNL     1     -38.704 -49.570  15.627  1.00  0.00    -0.059 A 
HETATM   10  C   UNL     1     -39.204 -49.240  17.002  1.00  0.00     0.048 C 
HETATM   11  C   UNL     1     -38.770 -50.893  15.160  1.00  0.00     0.044 A 
ENDBRANCH   3   4
ENDBRANCH   2   3
ENDBRANCH   1   2
BRANCH   1  12
HETATM   12  O   UNL     1     -40.372 -53.487  11.597  1.00  0.00    -0.392 OA
HETATM   13  H   UNL     1     -39.840 -54.300  11.525  1.00  0.00     0.210 HD
ENDBRANCH   1  12
BRANCH   1  14
HETATM   14  C   UNL     1     -41.775 -54.218  13.395  1.00  0.00     0.166 C 
BRANCH  14  15
HETATM   15  N   UNL     1     -43.099 -53.612  13.434  1.00  0.00    -0.307 N 
HETATM   16  C   UNL     1     -43.325 -52.409  12.822  1.00  0.00     0.186 A 
HETATM   17  N   UNL     1     -44.465 -51.807  12.776  1.00  0.00    -0.355 N 
HETATM   18  C   UNL     1     -45.525 -52.403  13.412  1.00  0.00     0.017 A 
ATOM     19  HN  UNL     1     -44.574 -50.921  12.284  1.00  0.00     0.166 HD
HETATM   20  C   UNL     1     -46.811 -51.620  13.338  1.00  0.00     0.069 C 
HETATM   21  C   UNL     1     -45.442 -53.577  14.064  1.00  0.00     0.028 A 
HETATM   22  C   UNL     1     -46.538 -54.256  14.825  1.00  0.00     0.056 C 
HETATM   23  C   UNL     1     -44.132 -54.278  14.052  1.00  0.00     0.256 A 
HETATM   24  O   UNL     1     -44.002 -55.376  14.589  1.00  0.00    -0.267 OA
ENDBRANCH  14  15
ENDBRANCH   1  14
TORSDOF 6
ENDMDL
MODEL 6
REMARK VINA RESULT:      -5.3      2.123      4.301
REMARK  6 active torsions:
REMARK  status: ('A' for Active; 'I' for Inactive)
REMARK    1  A    between atoms: C_7  and  O_8 
REMARK    2  A    between atoms: O_8  and  C_9 
REMARK    3  A    between atoms: C_9  and  C_10 
REMARK    4  A    between atoms: C_10  and  O_11 
REMARK    5  A    between atoms: C_10  and  C_12 
REMARK    6  A    between atoms: C_12  and  N_13 
ROOT
HETATM    1  C   UNL     1     -40.593 -50.811  11.791  1.00  0.00     0.161 C 
ENDROOT
BRANCH   1   2
HETATM    2  C   UNL     1     -41.284 -52.168  11.554  1.00  0.00     0.209 C 
BRANCH   2   3
HETATM    3  O   UNL     1     -40.648 -53.138  12.395  1.00  0.00    -0.348 OA
BRANCH   3   4
HETATM    4  C   UNL     1     -41.411 -53.770  13.343  1.00  0.00     0.075 A 
HETATM    5  C   UNL     1     -40.736 -54.146  14.519  1.00  0.00    -0.029 A 
HETATM    6  C   UNL     1     -41.437 -54.808  15.537  1.00  0.00     0.010 A 
HETATM    7  C   UNL     1     -39.279 -53.822  14.712  1.00  0.00     0.051 C 
HETATM    8  C   UNL     1     -42.799 -55.076  15.404  1.00  0.00     0.007 A 
HETATM    9  C   UNL     1     -43.482 -54.681  14.251  1.00  0.00    -0.059 A 
HETATM   10  C   UNL     1     -44.956 -54.921  14.108  1.00  0.00     0.048 C 
HETATM   11  C   UNL     1     -42.776 -54.044  13.216  1.00  0.00     0.044 A 
ENDBRANCH   3   4
ENDBRANCH   2   3
ENDBRANCH   1   2
BRANCH   1  12
HETATM   12  O   UNL     1     -40.233 -50.196  10.540  1.00  0.00    -0.392 OA
HETATM   13  H   UNL     1     -40.117 -49.241  10.692  1.00  0.00     0.210 HD
ENDBRANCH   1  12
BRANCH   1  14
HETATM   14  C   UNL     1     -41.455 -49.795  12.560  1.00  0.00     0.166 C 
BRANCH  14  15
HETATM   15  N   UNL     1     -42.016 -50.304  13.804  1.00  0.00    -0.307 N 
HETATM   16  C   UNL     1     -41.206 -50.535  14.882  1.00  0.00     0.186 A 
HETATM   17  N   UNL     1     -41.611 -50.956  16.032  1.00  0.00    -0.355 N 
HETATM   18  C   UNL     1     -42.950 -51.219  16.179  1.00  0.00     0.017 A 
ATOM     19  HN  UNL     1     -40.959 -51.088  16.805  1.00  0.00     0.166 HD
HETATM   20  C   UNL     1     -43.334 -51.737  17.541  1.00  0.00     0.069 C 
HETATM   21  C   UNL     1     -43.856 -51.049  15.199  1.00  0.00     0.028 A 
HETATM   22  C   UNL     1     -45.317 -51.368  15.268  1.00  0.00     0.056 C 
HETATM   23  C   UNL     1     -43.373 -50.508  13.903  1.00  0.00     0.256 A 
HETATM   24  O   UNL     1     -44.157 -50.286  12.983  1.00  0.00    -0.267 OA
ENDBRANCH  14  15
ENDBRANCH   1  14
TORSDOF 6
ENDMDL
MODEL 7
REMARK VINA RESULT:      -5.2      2.625      4.956
REMARK  6 active torsions:
REMARK  status: ('A' for Active; 'I' for Inactive)
REMARK    1  A    between atoms: C_7  and  O_8 
REMARK    2  A    between atoms: O_8  and  C_9 
REMARK    3  A    between atoms: C_9  and  C_10 
REMARK    4  A    between atoms: C_10  and  O_11 
REMARK    5  A    between atoms: C_10  and  C_12 
REMARK    6  A    between atoms: C_12  and  N_13 
ROOT
HETATM    1  C   UNL     1     -41.046 -52.627  12.459  1.00  0.00     0.161 C 
ENDROOT
BRANCH   1   2
HETATM    2  C   UNL     1     -42.278 -53.273  13.121  1.00  0.00     0.209 C 
BRANCH   2   3
HETATM    3  O   UNL     1     -42.781 -52.359  14.103  1.00  0.00    -0.348 OA
BRANCH   3   4
HETATM    4  C   UNL     1     -44.115 -52.042  14.067  1.00  0.00     0.075 A 
HETATM    5  C   UNL     1     -44.684 -51.654  15.294  1.00  0.00    -0.029 A 
HETATM    6  C   UNL     1     -46.047 -51.325  15.350  1.00  0.00     0.010 A 
HETATM    7  C   UNL     1     -43.846 -51.559  16.539  1.00  0.00     0.051 C 
HETATM    8  C   UNL     1     -46.834 -51.357  14.200  1.00  0.00     0.007 A 
HETATM    9  C   UNL     1     -46.269 -51.715  12.973  1.00  0.00    -0.059 A 
HETATM   10  C   UNL     1     -47.090 -51.712  11.718  1.00  0.00     0.048 C 
HETATM   11  C   UNL     1     -44.912 -52.074  12.918  1.00  0.00     0.044 A 
ENDBRANCH   3   4
ENDBRANCH   2   3
ENDBRANCH   1   2
BRANCH   1  12
HETATM   12  O   UNL     1     -40.495 -53.493  11.450  1.00  0.00    -0.392 OA
HETATM   13  H   UNL     1     -40.030 -52.941  10.796  1.00  0.00     0.210 HD
ENDBRANCH   1  12
BRANCH   1  14
HETATM   14  C   UNL     1     -41.335 -51.275  11.784  1.00  0.00     0.166 C 
BRANCH  14  15
HETATM   15  N   UNL     1     -40.592 -50.153  12.343  1.00  0.00    -0.307 N 
HETATM   16  C   UNL     1     -39.842 -50.319  13.475  1.00  0.00     0.186 A 
HETATM   17  N   UNL     1     -39.128 -49.398  14.028  1.00  0.00    -0.355 N 
HETATM   18  C   UNL     1     -39.144 -48.151  13.456  1.00  0.00     0.017 A 
ATOM     19  HN  UNL     1     -38.572 -49.591  14.861  1.00  0.00     0.166 HD
HETATM   20  C   UNL     1     -38.310 -47.126  14.182  1.00  0.00     0.069 C 
HETATM   21  C   UNL     1     -39.847 -47.844  12.351  1.00  0.00     0.028 A 
HETATM   22  C   UNL     1     -39.956 -46.498  11.705  1.00  0.00     0.056 C 
HETATM   23  C   UNL     1     -40.614 -48.938  11.700  1.00  0.00     0.256 A 
HETATM   24  O   UNL     1     -41.239 -48.735  10.661  1.00  0.00    -0.267 OA
ENDBRANCH  14  15
ENDBRANCH   1  14
TORSDOF 6
ENDMDL
MODEL 8
REMARK VINA RESULT:      -5.1      2.059      4.477
REMARK  6 active torsions:
REMARK  status: ('A' for Active; 'I' for Inactive)
REMARK    1  A    between atoms: C_7  and  O_8 
REMARK    2  A    between atoms: O_8  and  C_9 
REMARK    3  A    between atoms: C_9  and  C_10 
REMARK    4  A    between atoms: C_10  and  O_11 
REMARK    5  A    between atoms: C_10  and  C_12 
REMARK    6  A    between atoms: C_12  and  N_13 
ROOT
HETATM    1  C   UNL     1     -42.877 -53.874  14.356  1.00  0.00     0.161 C 
ENDROOT
BRANCH   1   2
HETATM    2  C   UNL     1     -43.929 -54.999  14.403  1.00  0.00     0.209 C 
BRANCH   2   3
HETATM    3  O   UNL     1     -45.167 -54.464  13.920  1.00  0.00    -0.348 OA
BRANCH   3   4
HETATM    4  C   UNL     1     -45.776 -53.480  14.656  1.00  0.00     0.075 A 
HETATM    5  C   UNL     1     -46.267 -52.384  13.924  1.00  0.00    -0.029 A 
HETATM    6  C   UNL     1     -46.894 -51.326  14.599  1.00  0.00     0.010 A 
HETATM    7  C   UNL     1     -46.155 -52.343  12.424  1.00  0.00     0.051 C 
HETATM    8  C   UNL     1     -47.055 -51.364  15.984  1.00  0.00     0.007 A 
HETATM    9  C   UNL     1     -46.595 -52.461  16.714  1.00  0.00    -0.059 A 
HETATM   10  C   UNL     1     -46.798 -52.539  18.198  1.00  0.00     0.048 C 
HETATM   11  C   UNL     1     -45.940 -53.509  16.045  1.00  0.00     0.044 A 
ENDBRANCH   3   4
ENDBRANCH   2   3
ENDBRANCH   1   2
BRANCH   1  12
HETATM   12  O   UNL     1     -42.341 -53.622  15.668  1.00  0.00    -0.392 OA
HETATM   13  H   UNL     1     -41.371 -53.569  15.596  1.00  0.00     0.210 HD
ENDBRANCH   1  12
BRANCH   1  14
HETATM   14  C   UNL     1     -41.683 -54.172  13.432  1.00  0.00     0.166 C 
BRANCH  14  15
HETATM   15  N   UNL     1     -40.953 -52.989  12.995  1.00  0.00    -0.307 N 
HETATM   16  C   UNL     1     -41.371 -52.287  11.898  1.00  0.00     0.186 A 
HETATM   17  N   UNL     1     -40.811 -51.214  11.452  1.00  0.00    -0.355 N 
HETATM   18  C   UNL     1     -39.694 -50.758  12.108  1.00  0.00     0.017 A 
ATOM     19  HN  UNL     1     -41.184 -50.723  10.640  1.00  0.00     0.166 HD
HETATM   20  C   UNL     1     -39.083 -49.521  11.503  1.00  0.00     0.069 C 
HETATM   21  C   UNL     1     -39.167 -51.358  13.190  1.00  0.00     0.028 A 
HETATM   22  C   UNL     1     -37.925 -50.952  13.921  1.00  0.00     0.056 C 
HETATM   23  C   UNL     1     -39.866 -52.558  13.719  1.00  0.00     0.256 A 
HETATM   24  O   UNL     1     -39.462 -53.125  14.733  1.00  0.00    -0.267 OA
ENDBRANCH  14  15
ENDBRANCH   1  14
TORSDOF 6
ENDMDL
MODEL 9
REMARK VINA RESULT:      -5.1      3.632      6.859
REMARK  6 active torsions:
REMARK  status: ('A' for Active; 'I' for Inactive)
REMARK    1  A    between atoms: C_7  and  O_8 
REMARK    2  A    between atoms: O_8  and  C_9 
REMARK    3  A    between atoms: C_9  and  C_10 
REMARK    4  A    between atoms: C_10  and  O_11 
REMARK    5  A    between atoms: C_10  and  C_12 
REMARK    6  A    between atoms: C_12  and  N_13 
ROOT
HETATM    1  C   UNL     1     -40.791 -51.340  11.776  1.00  0.00     0.161 C 
ENDROOT
BRANCH   1   2
HETATM    2  C   UNL     1     -40.027 -52.018  12.929  1.00  0.00     0.209 C 
BRANCH   2   3
HETATM    3  O   UNL     1     -40.285 -53.426  12.860  1.00  0.00    -0.348 OA
BRANCH   3   4
HETATM    4  C   UNL     1     -40.255 -54.145  14.027  1.00  0.00     0.075 A 
HETATM    5  C   UNL     1     -41.509 -54.470  14.577  1.00  0.00    -0.029 A 
HETATM    6  C   UNL     1     -41.571 -55.194  15.777  1.00  0.00     0.010 A 
HETATM    7  C   UNL     1     -42.783 -54.077  13.882  1.00  0.00     0.051 C 
HETATM    8  C   UNL     1     -40.404 -55.613  16.415  1.00  0.00     0.007 A 
HETATM    9  C   UNL     1     -39.156 -55.318  15.861  1.00  0.00    -0.059 A 
HETATM   10  C   UNL     1     -37.892 -55.798  16.510  1.00  0.00     0.048 C 
HETATM   11  C   UNL     1     -39.090 -54.567  14.675  1.00  0.00     0.044 A 
ENDBRANCH   3   4
ENDBRANCH   2   3
ENDBRANCH   1   2
BRANCH   1  12
HETATM   12  O   UNL     1     -41.610 -52.294  11.075  1.00  0.00    -0.392 OA
HETATM   13  H   UNL     1     -41.063 -52.720  10.390  1.00  0.00     0.210 HD
ENDBRANCH   1  12
BRANCH   1  14
HETATM   14  C   UNL     1     -41.717 -50.196  12.225  1.00  0.00     0.166 C 
BRANCH  14  15
HETATM   15  N   UNL     1     -41.241 -48.865  11.874  1.00  0.00    -0.307 N 
HETATM   16  C   UNL     1     -41.499 -48.345  10.635  1.00  0.00     0.186 A 
HETATM   17  N   UNL     1     -41.146 -47.169  10.241  1.00  0.00    -0.355 N 
HETATM   18  C   UNL     1     -40.435 -46.389  11.119  1.00  0.00     0.017 A 
ATOM     19  HN  UNL     1     -41.387 -46.830   9.310  1.00  0.00     0.166 HD
HETATM   20  C   UNL     1     -40.035 -45.044  10.570  1.00  0.00     0.069 C 
HETATM   21  C   UNL     1     -40.102 -46.779  12.363  1.00  0.00     0.028 A 
HETATM   22  C   UNL     1     -39.283 -46.009  13.352  1.00  0.00     0.056 C 
HETATM   23  C   UNL     1     -40.570 -48.115  12.813  1.00  0.00     0.256 A 
HETATM   24  O   UNL     1     -40.339 -48.512  13.953  1.00  0.00    -0.267 OA
ENDBRANCH  14  15
ENDBRANCH   1  14
TORSDOF 6
ENDMDL
