MODEL 1
REMARK VINA RESULT:      -6.3      0.000      0.000
REMARK  5 active torsions:
REMARK  status: ('A' for Active; 'I' for Inactive)
REMARK    1  A    between atoms: C_2  and  C_3 
REMARK       I    between atoms: C_2  and  N_13 
REMARK    2  A    between atoms: C_3  and  N_4 
REMARK    3  A    between atoms: N_13  and  C_14 
REMARK    4  A    between atoms: C_14  and  C_15 
REMARK    5  A    between atoms: C_15  and  C_16 
ROOT
HETATM    1  N   UNL     1     -42.637 -47.323  10.099  1.00  0.00    -0.277 N 
HETATM    2  C   UNL     1     -42.795 -45.987   9.888  1.00  0.00     0.203 A 
HETATM    3  N   UNL     1     -44.035 -45.740   9.529  1.00  0.00    -0.327 N 
ATOM      4  HN  UNL     1     -44.462 -44.843   9.298  1.00  0.00     0.169 HD
HETATM    5  C   UNL     1     -44.613 -46.984   9.539  1.00  0.00     0.204 A 
HETATM    6  C   UNL     1     -45.992 -47.202   9.201  1.00  0.00     0.138 C 
HETATM    7  N   UNL     1     -47.107 -47.383   8.929  1.00  0.00    -0.188 NA
HETATM    8  N   UNL     1     -43.796 -47.987   9.896  1.00  0.00    -0.273 N 
ATOM      9  HN  UNL     1     -43.996 -48.984   9.990  1.00  0.00     0.189 HD
ENDROOT
BRANCH   1  10
HETATM   10  C   UNL     1     -41.467 -48.019  10.588  1.00  0.00     0.252 C 
BRANCH  10  11
HETATM   11  C   UNL     1     -41.823 -49.072  11.611  1.00  0.00     0.237 C 
HETATM   12  O   UNL     1     -42.778 -48.944  12.374  1.00  0.00    -0.272 OA
HETATM   13  N   UNL     1     -41.016 -50.193  11.601  1.00  0.00    -0.359 N 
HETATM   14  H   UNL     1     -40.162 -50.191  11.056  1.00  0.00     0.162 HD
BRANCH  13  15
HETATM   15  C   UNL     1     -41.229 -51.279  12.545  1.00  0.00     0.127 C 
BRANCH  15  16
HETATM   16  C   UNL     1     -41.830 -52.512  11.864  1.00  0.00     0.053 C 
BRANCH  16  17
HETATM   17  C   UNL     1     -42.633 -53.370  12.815  1.00  0.00    -0.082 A 
HETATM   18  C   UNL     1     -42.059 -53.942  13.883  1.00  0.00    -0.024 A 
HETATM   19  C   UNL     1     -42.765 -54.803  14.871  1.00  0.00     0.027 A 
HETATM   20  C   UNL     1     -44.256 -55.031  14.654  1.00  0.00     0.004 A 
HETATM   21  C   UNL     1     -44.923 -54.407  13.431  1.00  0.00     0.005 A 
HETATM   22  C   UNL     1     -44.080 -53.565  12.476  1.00  0.00     0.034 A 
ENDBRANCH  16  17
ENDBRANCH  15  16
ENDBRANCH  13  15
ENDBRANCH  10  11
ENDBRANCH   1  10
TORSDOF 5
ENDMDL
MODEL 2
REMARK VINA RESULT:      -6.2      1.233      1.763
REMARK  5 active torsions:
REMARK  status: ('A' for Active; 'I' for Inactive)
REMARK    1  A    between atoms: C_2  and  C_3 
REMARK       I    between atoms: C_2  and  N_13 
REMARK    2  A    between atoms: C_3  and  N_4 
REMARK    3  A    between atoms: N_13  and  C_14 
REMARK    4  A    between atoms: C_14  and  C_15 
REMARK    5  A    between atoms: C_15  and  C_16 
ROOT
HETATM    1  N   UNL     1     -42.636 -47.572  10.097  1.00  0.00    -0.277 N 
HETATM    2  C   UNL     1     -42.708 -46.224   9.916  1.00  0.00     0.203 A 
HETATM    3  N   UNL     1     -43.925 -45.893   9.545  1.00  0.00    -0.327 N 
ATOM      4  HN  UNL     1     -44.293 -44.967   9.331  1.00  0.00     0.169 HD
HETATM    5  C   UNL     1     -44.578 -47.100   9.519  1.00  0.00     0.204 A 
HETATM    6  C   UNL     1     -45.963 -47.224   9.157  1.00  0.00     0.138 C 
HETATM    7  N   UNL     1     -47.083 -47.330   8.865  1.00  0.00    -0.188 NA
HETATM    8  N   UNL     1     -43.830 -48.159   9.863  1.00  0.00    -0.273 N 
ATOM      9  HN  UNL     1     -44.092 -49.143   9.930  1.00  0.00     0.189 HD
ENDROOT
BRANCH   1  10
HETATM   10  C   UNL     1     -41.518 -48.350  10.585  1.00  0.00     0.252 C 
BRANCH  10  11
HETATM   11  C   UNL     1     -41.862 -49.102  11.849  1.00  0.00     0.237 C 
HETATM   12  O   UNL     1     -42.108 -48.523  12.906  1.00  0.00    -0.272 OA
HETATM   13  N   UNL     1     -41.908 -50.475  11.719  1.00  0.00    -0.359 N 
HETATM   14  H   UNL     1     -41.561 -50.910  10.872  1.00  0.00     0.162 HD
BRANCH  13  15
HETATM   15  C   UNL     1     -42.207 -51.328  12.858  1.00  0.00     0.127 C 
BRANCH  15  16
HETATM   16  C   UNL     1     -42.958 -52.594  12.437  1.00  0.00     0.053 C 
BRANCH  16  17
HETATM   17  C   UNL     1     -44.278 -52.755  13.156  1.00  0.00    -0.082 A 
HETATM   18  C   UNL     1     -45.045 -51.693  13.441  1.00  0.00    -0.024 A 
HETATM   19  C   UNL     1     -46.355 -51.752  14.145  1.00  0.00     0.027 A 
HETATM   20  C   UNL     1     -46.863 -53.130  14.554  1.00  0.00     0.004 A 
HETATM   21  C   UNL     1     -45.994 -54.350  14.258  1.00  0.00     0.005 A 
HETATM   22  C   UNL     1     -44.654 -54.151  13.553  1.00  0.00     0.034 A 
ENDBRANCH  16  17
ENDBRANCH  15  16
ENDBRANCH  13  15
ENDBRANCH  10  11
ENDBRANCH   1  10
TORSDOF 5
ENDMDL
MODEL 3
REMARK VINA RESULT:      -6.1      1.987      2.977
REMARK  5 active torsions:
REMARK  status: ('A' for Active; 'I' for Inactive)
REMARK    1  A    between atoms: C_2  and  C_3 
REMARK       I    between atoms: C_2  and  N_13 
REMARK    2  A    between atoms: C_3  and  N_4 
REMARK    3  A    between atoms: N_13  and  C_14 
REMARK    4  A    between atoms: C_14  and  C_15 
REMARK    5  A    between atoms: C_15  and  C_16 
ROOT
HETATM    1  N   UNL     1     -41.533 -49.093  11.217  1.00  0.00    -0.277 N 
HETATM    2  C   UNL     1     -42.500 -48.635  12.060  1.00  0.00     0.203 A 
HETATM    3  N   UNL     1     -43.190 -47.687  11.467  1.00  0.00    -0.327 N 
ATOM      4  HN  UNL     1     -43.974 -47.147  11.835  1.00  0.00     0.169 HD
HETATM    5  C   UNL     1     -42.600 -47.602  10.232  1.00  0.00     0.204 A 
HETATM    6  C   UNL     1     -43.036 -46.674   9.225  1.00  0.00     0.138 C 
HETATM    7  N   UNL     1     -43.386 -45.925   8.408  1.00  0.00    -0.188 NA
HETATM    8  N   UNL     1     -41.585 -48.455  10.027  1.00  0.00    -0.273 N 
ATOM      9  HN  UNL     1     -41.007 -48.588   9.196  1.00  0.00     0.189 HD
ENDROOT
BRANCH   1  10
HETATM   10  C   UNL     1     -40.609 -50.186  11.426  1.00  0.00     0.252 C 
BRANCH  10  11
HETATM   11  C   UNL     1     -41.157 -51.213  12.388  1.00  0.00     0.237 C 
HETATM   12  O   UNL     1     -40.792 -51.269  13.560  1.00  0.00    -0.272 OA
HETATM   13  N   UNL     1     -42.113 -52.056  11.860  1.00  0.00    -0.359 N 
HETATM   14  H   UNL     1     -42.277 -52.066  10.860  1.00  0.00     0.162 HD
BRANCH  13  15
HETATM   15  C   UNL     1     -42.714 -53.108  12.666  1.00  0.00     0.127 C 
BRANCH  15  16
HETATM   16  C   UNL     1     -44.184 -53.332  12.301  1.00  0.00     0.053 C 
BRANCH  16  17
HETATM   17  C   UNL     1     -45.125 -53.005  13.438  1.00  0.00    -0.082 A 
HETATM   18  C   UNL     1     -45.270 -53.840  14.476  1.00  0.00    -0.024 A 
HETATM   19  C   UNL     1     -46.171 -53.607  15.638  1.00  0.00     0.027 A 
HETATM   20  C   UNL     1     -46.971 -52.310  15.647  1.00  0.00     0.004 A 
HETATM   21  C   UNL     1     -46.836 -51.356  14.463  1.00  0.00     0.005 A 
HETATM   22  C   UNL     1     -45.896 -51.726  13.318  1.00  0.00     0.034 A 
ENDBRANCH  16  17
ENDBRANCH  15  16
ENDBRANCH  13  15
ENDBRANCH  10  11
ENDBRANCH   1  10
TORSDOF 5
ENDMDL
MODEL 4
REMARK VINA RESULT:      -5.8      2.536      2.855
REMARK  5 active torsions:
REMARK  status: ('A' for Active; 'I' for Inactive)
REMARK    1  A    between atoms: C_2  and  C_3 
REMARK       I    between atoms: C_2  and  N_13 
REMARK    2  A    between atoms: C_3  and  N_4 
REMARK    3  A    between atoms: N_13  and  C_14 
REMARK    4  A    between atoms: C_14  and  C_15 
REMARK    5  A    between atoms: C_15  and  C_16 
ROOT
HETATM    1  N   UNL     1     -43.049 -46.693   9.804  1.00  0.00    -0.277 N 
HETATM    2  C   UNL     1     -43.763 -45.595   9.432  1.00  0.00     0.203 A 
HETATM    3  N   UNL     1     -44.866 -45.970   8.824  1.00  0.00    -0.327 N 
ATOM      4  HN  UNL     1     -45.603 -45.387   8.427  1.00  0.00     0.169 HD
HETATM    5  C   UNL     1     -44.783 -47.340   8.853  1.00  0.00     0.204 A 
HETATM    6  C   UNL     1     -45.794 -48.190   8.286  1.00  0.00     0.138 C 
HETATM    7  N   UNL     1     -46.608 -48.882   7.830  1.00  0.00    -0.188 NA
HETATM    8  N   UNL     1     -43.690 -47.830   9.457  1.00  0.00    -0.273 N 
ATOM      9  HN  UNL     1     -43.417 -48.801   9.612  1.00  0.00     0.189 HD
ENDROOT
BRANCH   1  10
HETATM   10  C   UNL     1     -41.824 -46.746  10.571  1.00  0.00     0.252 C 
BRANCH  10  11
HETATM   11  C   UNL     1     -41.625 -48.093  11.226  1.00  0.00     0.237 C 
HETATM   12  O   UNL     1     -41.156 -49.051  10.616  1.00  0.00    -0.272 OA
HETATM   13  N   UNL     1     -41.981 -48.153  12.558  1.00  0.00    -0.359 N 
HETATM   14  H   UNL     1     -42.492 -47.385  12.977  1.00  0.00     0.162 HD
BRANCH  13  15
HETATM   15  C   UNL     1     -41.862 -49.392  13.311  1.00  0.00     0.127 C 
BRANCH  15  16
HETATM   16  C   UNL     1     -42.692 -49.355  14.597  1.00  0.00     0.053 C 
BRANCH  16  17
HETATM   17  C   UNL     1     -43.965 -50.164  14.494  1.00  0.00    -0.082 A 
HETATM   18  C   UNL     1     -44.402 -50.617  13.311  1.00  0.00    -0.024 A 
HETATM   19  C   UNL     1     -45.641 -51.418  13.109  1.00  0.00     0.027 A 
HETATM   20  C   UNL     1     -46.459 -51.757  14.350  1.00  0.00     0.004 A 
HETATM   21  C   UNL     1     -45.990 -51.231  15.704  1.00  0.00     0.005 A 
HETATM   22  C   UNL     1     -44.713 -50.395  15.772  1.00  0.00     0.034 A 
ENDBRANCH  16  17
ENDBRANCH  15  16
ENDBRANCH  13  15
ENDBRANCH  10  11
ENDBRANCH   1  10
TORSDOF 5
ENDMDL
MODEL 5
REMARK VINA RESULT:      -5.8      2.124      3.744
REMARK  5 active torsions:
REMARK  status: ('A' for Active; 'I' for Inactive)
REMARK    1  A    between atoms: C_2  and  C_3 
REMARK       I    between atoms: C_2  and  N_13 
REMARK    2  A    between atoms: C_3  and  N_4 
REMARK    3  A    between atoms: N_13  and  C_14 
REMARK    4  A    between atoms: C_14  and  C_15 
REMARK    5  A    between atoms: C_15  and  C_16 
ROOT
HETATM    1  N   UNL     1     -40.497 -50.215  11.731  1.00  0.00    -0.277 N 
HETATM    2  C   UNL     1     -39.674 -49.148  11.530  1.00  0.00     0.203 A 
HETATM    3  N   UNL     1     -40.367 -48.139  11.053  1.00  0.00    -0.327 N 
ATOM      4  HN  UNL     1     -40.039 -47.207  10.798  1.00  0.00     0.169 HD
HETATM    5  C   UNL     1     -41.641 -48.645  10.983  1.00  0.00     0.204 A 
HETATM    6  C   UNL     1     -42.756 -47.876  10.505  1.00  0.00     0.138 C 
HETATM    7  N   UNL     1     -43.662 -47.258  10.119  1.00  0.00    -0.188 NA
HETATM    8  N   UNL     1     -41.772 -49.913  11.401  1.00  0.00    -0.273 N 
ATOM      9  HN  UNL     1     -42.609 -50.494  11.456  1.00  0.00     0.189 HD
ENDROOT
BRANCH   1  10
HETATM   10  C   UNL     1     -40.174 -51.495  12.321  1.00  0.00     0.252 C 
BRANCH  10  11
HETATM   11  C   UNL     1     -41.361 -52.108  13.026  1.00  0.00     0.237 C 
HETATM   12  O   UNL     1     -41.944 -51.532  13.942  1.00  0.00    -0.272 OA
HETATM   13  N   UNL     1     -41.755 -53.340  12.545  1.00  0.00    -0.359 N 
HETATM   14  H   UNL     1     -41.162 -53.835  11.889  1.00  0.00     0.162 HD
BRANCH  13  15
HETATM   15  C   UNL     1     -42.871 -54.058  13.141  1.00  0.00     0.127 C 
BRANCH  15  16
HETATM   16  C   UNL     1     -44.208 -53.638  12.525  1.00  0.00     0.053 C 
BRANCH  16  17
HETATM   17  C   UNL     1     -45.165 -53.063  13.544  1.00  0.00    -0.082 A 
HETATM   18  C   UNL     1     -45.910 -51.986  13.262  1.00  0.00    -0.024 A 
HETATM   19  C   UNL     1     -46.877 -51.347  14.197  1.00  0.00     0.027 A 
HETATM   20  C   UNL     1     -47.036 -51.986  15.573  1.00  0.00     0.004 A 
HETATM   21  C   UNL     1     -46.180 -53.201  15.922  1.00  0.00     0.005 A 
HETATM   22  C   UNL     1     -45.204 -53.743  14.879  1.00  0.00     0.034 A 
ENDBRANCH  16  17
ENDBRANCH  15  16
ENDBRANCH  13  15
ENDBRANCH  10  11
ENDBRANCH   1  10
TORSDOF 5
ENDMDL
MODEL 6
REMARK VINA RESULT:      -5.7      2.247      3.517
REMARK  5 active torsions:
REMARK  status: ('A' for Active; 'I' for Inactive)
REMARK    1  A    between atoms: C_2  and  C_3 
REMARK       I    between atoms: C_2  and  N_13 
REMARK    2  A    between atoms: C_3  and  N_4 
REMARK    3  A    between atoms: N_13  and  C_14 
REMARK    4  A    between atoms: C_14  and  C_15 
REMARK    5  A    between atoms: C_15  and  C_16 
ROOT
HETATM    1  N   UNL     1     -40.935 -48.421  10.919  1.00  0.00    -0.277 N 
HETATM    2  C   UNL     1     -42.247 -48.096  10.746  1.00  0.00     0.203 A 
HETATM    3  N   UNL     1     -42.365 -46.794  10.614  1.00  0.00    -0.327 N 
ATOM      4  HN  UNL     1     -43.214 -46.245  10.474  1.00  0.00     0.169 HD
HETATM    5  C   UNL     1     -41.069 -46.355  10.710  1.00  0.00     0.204 A 
HETATM    6  C   UNL     1     -40.712 -44.966  10.623  1.00  0.00     0.138 C 
HETATM    7  N   UNL     1     -40.418 -43.843  10.552  1.00  0.00    -0.188 NA
HETATM    8  N   UNL     1     -40.153 -47.320  10.885  1.00  0.00    -0.273 N 
ATOM      9  HN  UNL     1     -39.140 -47.243  10.970  1.00  0.00     0.189 HD
ENDROOT
BRANCH   1  10
HETATM   10  C   UNL     1     -40.346 -49.738  11.016  1.00  0.00     0.252 C 
BRANCH  10  11
HETATM   11  C   UNL     1     -40.922 -50.531  12.166  1.00  0.00     0.237 C 
HETATM   12  O   UNL     1     -40.620 -50.298  13.335  1.00  0.00    -0.272 OA
HETATM   13  N   UNL     1     -41.828 -51.508  11.806  1.00  0.00    -0.359 N 
HETATM   14  H   UNL     1     -41.936 -51.757  10.830  1.00  0.00     0.162 HD
BRANCH  13  15
HETATM   15  C   UNL     1     -42.447 -52.362  12.807  1.00  0.00     0.127 C 
BRANCH  15  16
HETATM   16  C   UNL     1     -43.720 -53.028  12.275  1.00  0.00     0.053 C 
BRANCH  16  17
HETATM   17  C   UNL     1     -44.893 -52.879  13.217  1.00  0.00    -0.082 A 
HETATM   18  C   UNL     1     -45.431 -51.677  13.467  1.00  0.00    -0.024 A 
HETATM   19  C   UNL     1     -46.583 -51.431  14.377  1.00  0.00     0.027 A 
HETATM   20  C   UNL     1     -47.202 -52.646  15.059  1.00  0.00     0.004 A 
HETATM   21  C   UNL     1     -46.590 -54.021  14.804  1.00  0.00     0.005 A 
HETATM   22  C   UNL     1     -45.389 -54.135  13.867  1.00  0.00     0.034 A 
ENDBRANCH  16  17
ENDBRANCH  15  16
ENDBRANCH  13  15
ENDBRANCH  10  11
ENDBRANCH   1  10
TORSDOF 5
ENDMDL
MODEL 7
REMARK VINA RESULT:      -5.7      1.989      2.596
REMARK  5 active torsions:
REMARK  status: ('A' for Active; 'I' for Inactive)
REMARK    1  A    between atoms: C_2  and  C_3 
REMARK       I    between atoms: C_2  and  N_13 
REMARK    2  A    between atoms: C_3  and  N_4 
REMARK    3  A    between atoms: N_13  and  C_14 
REMARK    4  A    between atoms: C_14  and  C_15 
REMARK    5  A    between atoms: C_15  and  C_16 
ROOT
HETATM    1  N   UNL     1     -41.284 -48.178  10.959  1.00  0.00    -0.277 N 
HETATM    2  C   UNL     1     -41.061 -46.873  10.638  1.00  0.00     0.203 A 
HETATM    3  N   UNL     1     -42.097 -46.396   9.985  1.00  0.00    -0.327 N 
ATOM      4  HN  UNL     1     -42.233 -45.458   9.608  1.00  0.00     0.169 HD
HETATM    5  C   UNL     1     -42.950 -47.469   9.933  1.00  0.00     0.204 A 
HETATM    6  C   UNL     1     -44.236 -47.408   9.295  1.00  0.00     0.138 C 
HETATM    7  N   UNL     1     -45.278 -47.363   8.781  1.00  0.00    -0.188 NA
HETATM    8  N   UNL     1     -42.500 -48.583  10.530  1.00  0.00    -0.273 N 
ATOM      9  HN  UNL     1     -42.952 -49.492  10.633  1.00  0.00     0.189 HD
ENDROOT
BRANCH   1  10
HETATM   10  C   UNL     1     -40.452 -49.060  11.748  1.00  0.00     0.252 C 
BRANCH  10  11
HETATM   11  C   UNL     1     -41.272 -49.954  12.648  1.00  0.00     0.237 C 
HETATM   12  O   UNL     1     -42.022 -49.500  13.510  1.00  0.00    -0.272 OA
HETATM   13  N   UNL     1     -41.135 -51.307  12.410  1.00  0.00    -0.359 N 
HETATM   14  H   UNL     1     -40.404 -51.636  11.790  1.00  0.00     0.162 HD
BRANCH  13  15
HETATM   15  C   UNL     1     -41.849 -52.286  13.214  1.00  0.00     0.127 C 
BRANCH  15  16
HETATM   16  C   UNL     1     -43.120 -52.775  12.515  1.00  0.00     0.053 C 
BRANCH  16  17
HETATM   17  C   UNL     1     -44.382 -52.305  13.202  1.00  0.00    -0.082 A 
HETATM   18  C   UNL     1     -45.536 -52.197  12.529  1.00  0.00    -0.024 A 
HETATM   19  C   UNL     1     -46.826 -51.742  13.117  1.00  0.00     0.027 A 
HETATM   20  C   UNL     1     -46.829 -51.392  14.600  1.00  0.00     0.004 A 
HETATM   21  C   UNL     1     -45.519 -51.487  15.379  1.00  0.00     0.005 A 
HETATM   22  C   UNL     1     -44.256 -51.942  14.651  1.00  0.00     0.034 A 
ENDBRANCH  16  17
ENDBRANCH  15  16
ENDBRANCH  13  15
ENDBRANCH  10  11
ENDBRANCH   1  10
TORSDOF 5
ENDMDL
MODEL 8
REMARK VINA RESULT:      -5.6      1.573      2.067
REMARK  5 active torsions:
REMARK  status: ('A' for Active; 'I' for Inactive)
REMARK    1  A    between atoms: C_2  and  C_3 
REMARK       I    between atoms: C_2  and  N_13 
REMARK    2  A    between atoms: C_3  and  N_4 
REMARK    3  A    between atoms: N_13  and  C_14 
REMARK    4  A    between atoms: C_14  and  C_15 
REMARK    5  A    between atoms: C_15  and  C_16 
ROOT
HETATM    1  N   UNL     1     -40.998 -47.661  11.717  1.00  0.00    -0.277 N 
HETATM    2  C   UNL     1     -40.093 -46.795  11.180  1.00  0.00     0.203 A 
HETATM    3  N   UNL     1     -40.690 -46.019  10.304  1.00  0.00    -0.327 N 
ATOM      4  HN  UNL     1     -40.286 -45.276   9.735  1.00  0.00     0.169 HD
HETATM    5  C   UNL     1     -41.991 -46.453  10.343  1.00  0.00     0.204 A 
HETATM    6  C   UNL     1     -43.026 -45.878   9.528  1.00  0.00     0.138 C 
HETATM    7  N   UNL     1     -43.866 -45.417   8.871  1.00  0.00    -0.188 NA
HETATM    8  N   UNL     1     -42.232 -47.452  11.206  1.00  0.00    -0.273 N 
ATOM      9  HN  UNL     1     -43.109 -47.927  11.420  1.00  0.00     0.189 HD
ENDROOT
BRANCH   1  10
HETATM   10  C   UNL     1     -40.795 -48.626  12.774  1.00  0.00     0.252 C 
BRANCH  10  11
HETATM   11  C   UNL     1     -41.466 -49.945  12.472  1.00  0.00     0.237 C 
HETATM   12  O   UNL     1     -42.677 -50.106  12.603  1.00  0.00    -0.272 OA
HETATM   13  N   UNL     1     -40.624 -50.938  12.013  1.00  0.00    -0.359 N 
HETATM   14  H   UNL     1     -39.620 -50.804  12.057  1.00  0.00     0.162 HD
BRANCH  13  15
HETATM   15  C   UNL     1     -41.128 -52.266  11.701  1.00  0.00     0.127 C 
BRANCH  15  16
HETATM   16  C   UNL     1     -40.957 -53.228  12.879  1.00  0.00     0.053 C 
BRANCH  16  17
HETATM   17  C   UNL     1     -42.269 -53.810  13.354  1.00  0.00    -0.082 A 
HETATM   18  C   UNL     1     -42.327 -54.585  14.446  1.00  0.00    -0.024 A 
HETATM   19  C   UNL     1     -43.568 -55.202  14.988  1.00  0.00     0.027 A 
HETATM   20  C   UNL     1     -44.870 -54.911  14.249  1.00  0.00     0.004 A 
HETATM   21  C   UNL     1     -44.821 -54.048  12.991  1.00  0.00     0.005 A 
HETATM   22  C   UNL     1     -43.476 -53.496  12.522  1.00  0.00     0.034 A 
ENDBRANCH  16  17
ENDBRANCH  15  16
ENDBRANCH  13  15
ENDBRANCH  10  11
ENDBRANCH   1  10
TORSDOF 5
ENDMDL
MODEL 9
REMARK VINA RESULT:      -5.5      2.458      4.184
REMARK  5 active torsions:
REMARK  status: ('A' for Active; 'I' for Inactive)
REMARK    1  A    between atoms: C_2  and  C_3 
REMARK       I    between atoms: C_2  and  N_13 
REMARK    2  A    between atoms: C_3  and  N_4 
REMARK    3  A    between atoms: N_13  and  C_14 
REMARK    4  A    between atoms: C_14  and  C_15 
REMARK    5  A    between atoms: C_15  and  C_16 
ROOT
HETATM    1  N   UNL     1     -40.758 -50.855  11.697  1.00  0.00    -0.277 N 
HETATM    2  C   UNL     1     -39.557 -50.332  12.069  1.00  0.00     0.203 A 
HETATM    3  N   UNL     1     -39.538 -49.043  11.815  1.00  0.00    -0.327 N 
ATOM      4  HN  UNL     1     -38.784 -48.375  11.976  1.00  0.00     0.169 HD
HETATM    5  C   UNL     1     -40.781 -48.816  11.279  1.00  0.00     0.204 A 
HETATM    6  C   UNL     1     -41.212 -47.517  10.843  1.00  0.00     0.138 C 
HETATM    7  N   UNL     1     -41.565 -46.468  10.489  1.00  0.00    -0.188 NA
HETATM    8  N   UNL     1     -41.571 -49.897  11.199  1.00  0.00    -0.273 N 
ATOM      9  HN  UNL     1     -42.528 -49.976  10.854  1.00  0.00     0.189 HD
ENDROOT
BRANCH   1  10
HETATM   10  C   UNL     1     -41.239 -52.207  11.875  1.00  0.00     0.252 C 
BRANCH  10  11
HETATM   11  C   UNL     1     -42.571 -52.244  12.587  1.00  0.00     0.237 C 
HETATM   12  O   UNL     1     -42.803 -51.546  13.572  1.00  0.00    -0.272 OA
HETATM   13  N   UNL     1     -43.508 -53.091  12.032  1.00  0.00    -0.359 N 
HETATM   14  H   UNL     1     -43.227 -53.747  11.311  1.00  0.00     0.162 HD
BRANCH  13  15
HETATM   15  C   UNL     1     -44.827 -53.243  12.624  1.00  0.00     0.127 C 
BRANCH  15  16
HETATM   16  C   UNL     1     -44.975 -54.587  13.342  1.00  0.00     0.053 C 
BRANCH  16  17
HETATM   17  C   UNL     1     -44.448 -54.553  14.759  1.00  0.00    -0.082 A 
HETATM   18  C   UNL     1     -45.139 -53.955  15.739  1.00  0.00    -0.024 A 
HETATM   19  C   UNL     1     -44.703 -53.869  17.160  1.00  0.00     0.027 A 
HETATM   20  C   UNL     1     -43.376 -54.528  17.521  1.00  0.00     0.004 A 
HETATM   21  C   UNL     1     -42.564 -55.195  16.413  1.00  0.00     0.005 A 
HETATM   22  C   UNL     1     -43.111 -55.191  14.987  1.00  0.00     0.034 A 
ENDBRANCH  16  17
ENDBRANCH  15  16
ENDBRANCH  13  15
ENDBRANCH  10  11
ENDBRANCH   1  10
TORSDOF 5
ENDMDL
