MODEL 1
REMARK VINA RESULT:      -6.5      0.000      0.000
REMARK  2 active torsions:
REMARK  status: ('A' for Active; 'I' for Inactive)
REMARK       I    between atoms: C_2  and  N_3 
REMARK       I    between atoms: C_2  and  N_11 
REMARK    1  A    between atoms: N_3  and  C_4 
REMARK    2  A    between atoms: N_11  and  C_12 
ROOT
HETATM    1  O   UNL     1     -42.320 -47.730  11.563  1.00  0.00    -0.247 OA
HETATM    2  C   UNL     1     -41.989 -48.253  10.508  1.00  0.00     0.321 C 
HETATM    3  N   UNL     1     -40.914 -49.113  10.429  1.00  0.00    -0.337 N 
HETATM    4  N   UNL     1     -42.640 -48.118   9.308  1.00  0.00    -0.306 N 
HETATM    5  H   UNL     1     -40.433 -49.150   9.540  1.00  0.00     0.164 HD
HETATM    6  H   UNL     1     -42.463 -48.800   8.587  1.00  0.00     0.171 HD
ENDROOT
BRANCH   3   7
HETATM    7  C   UNL     1     -40.174 -49.508  11.624  1.00  0.00     0.101 C 
HETATM    8  C   UNL     1     -38.645 -49.500  11.390  1.00  0.00     0.041 C 
HETATM    9  C   UNL     1     -37.983 -50.624  12.178  1.00  0.00     0.142 C 
HETATM   10  S   UNL     1     -39.227 -51.312  13.235  1.00  0.00     0.146 S 
HETATM   11  O   UNL     1     -39.100 -52.753  13.264  1.00  0.00    -0.228 OA
HETATM   12  O   UNL     1     -39.285 -50.520  14.447  1.00  0.00    -0.228 OA
HETATM   13  C   UNL     1     -40.597 -50.854  12.212  1.00  0.00     0.165 C 
ENDBRANCH   3   7
BRANCH   4  14
HETATM   14  C   UNL     1     -43.730 -47.284   9.140  1.00  0.00     0.070 A 
HETATM   15  C   UNL     1     -45.112 -47.572   9.066  1.00  0.00     0.138 A 
HETATM   16  N   UNL     1     -45.854 -46.475   8.893  1.00  0.00    -0.310 N 
HETATM   17  N   UNL     1     -44.947 -45.488   8.845  1.00  0.00    -0.310 N 
ATOM     18  HN  UNL     1     -46.869 -46.404   8.816  1.00  0.00     0.186 HD
HETATM   19  C   UNL     1     -43.660 -45.918   9.004  1.00  0.00     0.138 A 
HETATM   20  H   UNL     1     -45.282 -44.542   8.699  1.00  0.00     0.186 HD
ENDBRANCH   4  14
TORSDOF 2
ENDMDL
MODEL 2
REMARK VINA RESULT:      -5.8      4.325      5.469
REMARK  2 active torsions:
REMARK  status: ('A' for Active; 'I' for Inactive)
REMARK       I    between atoms: C_2  and  N_3 
REMARK       I    between atoms: C_2  and  N_11 
REMARK    1  A    between atoms: N_3  and  C_4 
REMARK    2  A    between atoms: N_11  and  C_12 
ROOT
HETATM    1  O   UNL     1     -42.764 -51.771  14.029  1.00  0.00    -0.247 OA
HETATM    2  C   UNL     1     -42.852 -51.968  12.824  1.00  0.00     0.321 C 
HETATM    3  N   UNL     1     -41.899 -51.506  11.941  1.00  0.00    -0.337 N 
HETATM    4  N   UNL     1     -43.836 -52.691  12.201  1.00  0.00    -0.306 N 
HETATM    5  H   UNL     1     -42.218 -51.299  11.004  1.00  0.00     0.164 HD
HETATM    6  H   UNL     1     -43.664 -53.028  11.266  1.00  0.00     0.171 HD
ENDROOT
BRANCH   3   7
HETATM    7  C   UNL     1     -40.691 -50.838  12.417  1.00  0.00     0.101 C 
HETATM    8  C   UNL     1     -40.151 -49.815  11.389  1.00  0.00     0.041 C 
HETATM    9  C   UNL     1     -38.627 -49.785  11.422  1.00  0.00     0.142 C 
HETATM   10  S   UNL     1     -38.125 -50.762  12.812  1.00  0.00     0.146 S 
HETATM   11  O   UNL     1     -36.968 -51.556  12.458  1.00  0.00    -0.228 OA
HETATM   12  O   UNL     1     -38.149 -49.922  13.993  1.00  0.00    -0.228 OA
HETATM   13  C   UNL     1     -39.568 -51.786  12.836  1.00  0.00     0.165 C 
ENDBRANCH   3   7
BRANCH   4  14
HETATM   14  C   UNL     1     -44.913 -53.229  12.881  1.00  0.00     0.070 A 
HETATM   15  C   UNL     1     -46.151 -52.656  13.253  1.00  0.00     0.138 A 
HETATM   16  N   UNL     1     -46.933 -53.515  13.914  1.00  0.00    -0.310 N 
HETATM   17  N   UNL     1     -46.191 -54.631  13.974  1.00  0.00    -0.310 N 
ATOM     18  HN  UNL     1     -47.871 -53.360  14.283  1.00  0.00     0.186 HD
HETATM   19  C   UNL     1     -44.977 -54.516  13.357  1.00  0.00     0.138 A 
HETATM   20  H   UNL     1     -46.580 -55.434  14.457  1.00  0.00     0.186 HD
ENDBRANCH   4  14
TORSDOF 2
ENDMDL
MODEL 3
REMARK VINA RESULT:      -5.6      4.161      5.438
REMARK  2 active torsions:
REMARK  status: ('A' for Active; 'I' for Inactive)
REMARK       I    between atoms: C_2  and  N_3 
REMARK       I    between atoms: C_2  and  N_11 
REMARK    1  A    between atoms: N_3  and  C_4 
REMARK    2  A    between atoms: N_11  and  C_12 
ROOT
HETATM    1  O   UNL     1     -42.515 -50.218  13.366  1.00  0.00    -0.247 OA
HETATM    2  C   UNL     1     -42.128 -50.967  12.479  1.00  0.00     0.321 C 
HETATM    3  N   UNL     1     -42.420 -52.314  12.487  1.00  0.00    -0.337 N 
HETATM    4  N   UNL     1     -41.425 -50.591  11.363  1.00  0.00    -0.306 N 
HETATM    5  H   UNL     1     -41.751 -52.922  12.033  1.00  0.00     0.164 HD
HETATM    6  H   UNL     1     -41.406 -51.218  10.574  1.00  0.00     0.171 HD
ENDROOT
BRANCH   3   7
HETATM    7  C   UNL     1     -43.285 -52.892  13.512  1.00  0.00     0.101 C 
HETATM    8  C   UNL     1     -42.522 -53.882  14.425  1.00  0.00     0.041 C 
HETATM    9  C   UNL     1     -43.433 -55.032  14.838  1.00  0.00     0.142 C 
HETATM   10  S   UNL     1     -45.067 -54.612  14.296  1.00  0.00     0.146 S 
HETATM   11  O   UNL     1     -45.721 -55.787  13.763  1.00  0.00    -0.228 OA
HETATM   12  O   UNL     1     -45.685 -53.782  15.310  1.00  0.00    -0.228 OA
HETATM   13  C   UNL     1     -44.546 -53.564  12.968  1.00  0.00     0.165 C 
ENDBRANCH   3   7
BRANCH   4  14
HETATM   14  C   UNL     1     -40.996 -49.293  11.153  1.00  0.00     0.070 A 
HETATM   15  C   UNL     1     -41.606 -48.216  10.470  1.00  0.00     0.138 A 
HETATM   16  N   UNL     1     -40.858 -47.110  10.488  1.00  0.00    -0.310 N 
HETATM   17  N   UNL     1     -39.765 -47.482  11.171  1.00  0.00    -0.310 N 
ATOM     18  HN  UNL     1     -41.067 -46.199  10.080  1.00  0.00     0.186 HD
HETATM   19  C   UNL     1     -39.805 -48.778  11.605  1.00  0.00     0.138 A 
HETATM   20  H   UNL     1     -39.029 -46.796  11.300  1.00  0.00     0.186 HD
ENDBRANCH   4  14
TORSDOF 2
ENDMDL
MODEL 4
REMARK VINA RESULT:      -5.6      1.229      2.078
REMARK  2 active torsions:
REMARK  status: ('A' for Active; 'I' for Inactive)
REMARK       I    between atoms: C_2  and  N_3 
REMARK       I    between atoms: C_2  and  N_11 
REMARK    1  A    between atoms: N_3  and  C_4 
REMARK    2  A    between atoms: N_11  and  C_12 
ROOT
HETATM    1  O   UNL     1     -41.890 -47.688  11.473  1.00  0.00    -0.247 OA
HETATM    2  C   UNL     1     -41.768 -48.322  10.434  1.00  0.00     0.321 C 
HETATM    3  N   UNL     1     -40.838 -49.331  10.303  1.00  0.00    -0.337 N 
HETATM    4  N   UNL     1     -42.538 -48.172   9.309  1.00  0.00    -0.306 N 
HETATM    5  H   UNL     1     -40.481 -49.496   9.372  1.00  0.00     0.164 HD
HETATM    6  H   UNL     1     -42.547 -48.919   8.631  1.00  0.00     0.171 HD
ENDROOT
BRANCH   3   7
HETATM    7  C   UNL     1     -40.016 -49.750  11.436  1.00  0.00     0.101 C 
HETATM    8  C   UNL     1     -40.871 -50.292  12.605  1.00  0.00     0.041 C 
HETATM    9  C   UNL     1     -40.238 -49.919  13.941  1.00  0.00     0.142 C 
HETATM   10  S   UNL     1     -38.645 -49.234  13.580  1.00  0.00     0.146 S 
HETATM   11  O   UNL     1     -38.397 -48.096  14.439  1.00  0.00    -0.228 OA
HETATM   12  O   UNL     1     -37.697 -50.324  13.455  1.00  0.00    -0.228 OA
HETATM   13  C   UNL     1     -39.059 -48.676  11.953  1.00  0.00     0.165 C 
ENDBRANCH   3   7
BRANCH   4  14
HETATM   14  C   UNL     1     -43.518 -47.202   9.198  1.00  0.00     0.070 A 
HETATM   15  C   UNL     1     -43.441 -45.794   9.303  1.00  0.00     0.138 A 
HETATM   16  N   UNL     1     -44.628 -45.204   9.135  1.00  0.00    -0.310 N 
HETATM   17  N   UNL     1     -45.464 -46.234   8.935  1.00  0.00    -0.310 N 
ATOM     18  HN  UNL     1     -44.846 -44.208   9.153  1.00  0.00     0.186 HD
HETATM   19  C   UNL     1     -44.845 -47.453   8.949  1.00  0.00     0.138 A 
HETATM   20  H   UNL     1     -46.447 -46.027   8.798  1.00  0.00     0.186 HD
ENDBRANCH   4  14
TORSDOF 2
ENDMDL
MODEL 5
REMARK VINA RESULT:      -5.4      4.861      6.843
REMARK  2 active torsions:
REMARK  status: ('A' for Active; 'I' for Inactive)
REMARK       I    between atoms: C_2  and  N_3 
REMARK       I    between atoms: C_2  and  N_11 
REMARK    1  A    between atoms: N_3  and  C_4 
REMARK    2  A    between atoms: N_11  and  C_12 
ROOT
HETATM    1  O   UNL     1     -42.366 -52.565  12.255  1.00  0.00    -0.247 OA
HETATM    2  C   UNL     1     -42.589 -51.534  12.876  1.00  0.00     0.321 C 
HETATM    3  N   UNL     1     -43.731 -51.375  13.631  1.00  0.00    -0.337 N 
HETATM    4  N   UNL     1     -41.752 -50.452  12.958  1.00  0.00    -0.306 N 
HETATM    5  H   UNL     1     -44.072 -50.428  13.736  1.00  0.00     0.164 HD
HETATM    6  H   UNL     1     -41.894 -49.791  13.707  1.00  0.00     0.171 HD
ENDROOT
BRANCH   3   7
HETATM    7  C   UNL     1     -44.685 -52.468  13.797  1.00  0.00     0.101 C 
HETATM    8  C   UNL     1     -46.142 -51.957  13.903  1.00  0.00     0.041 C 
HETATM    9  C   UNL     1     -46.941 -52.831  14.863  1.00  0.00     0.142 C 
HETATM   10  S   UNL     1     -45.920 -54.223  15.261  1.00  0.00     0.146 S 
HETATM   11  O   UNL     1     -46.050 -54.537  16.667  1.00  0.00    -0.228 OA
HETATM   12  O   UNL     1     -46.096 -55.226  14.230  1.00  0.00    -0.228 OA
HETATM   13  C   UNL     1     -44.381 -53.399  14.971  1.00  0.00     0.165 C 
ENDBRANCH   3   7
BRANCH   4  14
HETATM   14  C   UNL     1     -40.560 -50.374  12.262  1.00  0.00     0.070 A 
HETATM   15  C   UNL     1     -39.284 -50.908  12.551  1.00  0.00     0.138 A 
HETATM   16  N   UNL     1     -38.379 -50.603  11.616  1.00  0.00    -0.310 N 
HETATM   17  N   UNL     1     -39.073 -49.865  10.737  1.00  0.00    -0.310 N 
ATOM     18  HN  UNL     1     -37.395 -50.868  11.579  1.00  0.00     0.186 HD
HETATM   19  C   UNL     1     -40.390 -49.711  11.070  1.00  0.00     0.138 A 
HETATM   20  H   UNL     1     -38.579 -49.498   9.931  1.00  0.00     0.186 HD
ENDBRANCH   4  14
TORSDOF 2
ENDMDL
MODEL 6
REMARK VINA RESULT:      -5.3      5.245      6.317
REMARK  2 active torsions:
REMARK  status: ('A' for Active; 'I' for Inactive)
REMARK       I    between atoms: C_2  and  N_3 
REMARK       I    between atoms: C_2  and  N_11 
REMARK    1  A    between atoms: N_3  and  C_4 
REMARK    2  A    between atoms: N_11  and  C_12 
ROOT
HETATM    1  O   UNL     1     -42.662 -53.079  14.183  1.00  0.00    -0.247 OA
HETATM    2  C   UNL     1     -42.837 -53.423  13.022  1.00  0.00     0.321 C 
HETATM    3  N   UNL     1     -41.820 -53.382  12.091  1.00  0.00    -0.337 N 
HETATM    4  N   UNL     1     -44.000 -53.931  12.503  1.00  0.00    -0.306 N 
HETATM    5  H   UNL     1     -42.097 -53.238  11.129  1.00  0.00     0.164 HD
HETATM    6  H   UNL     1     -43.956 -54.439  11.634  1.00  0.00     0.171 HD
ENDROOT
BRANCH   3   7
HETATM    7  C   UNL     1     -40.461 -53.010  12.475  1.00  0.00     0.101 C 
HETATM    8  C   UNL     1     -39.925 -53.886  13.633  1.00  0.00     0.041 C 
HETATM    9  C   UNL     1     -39.028 -53.061  14.549  1.00  0.00     0.142 C 
HETATM   10  S   UNL     1     -38.778 -51.499  13.752  1.00  0.00     0.146 S 
HETATM   11  O   UNL     1     -38.830 -50.437  14.733  1.00  0.00    -0.228 OA
HETATM   12  O   UNL     1     -37.674 -51.633  12.822  1.00  0.00    -0.228 OA
HETATM   13  C   UNL     1     -40.285 -51.533  12.825  1.00  0.00     0.165 C 
ENDBRANCH   3   7
BRANCH   4  14
HETATM   14  C   UNL     1     -45.163 -54.040  13.244  1.00  0.00     0.070 A 
HETATM   15  C   UNL     1     -46.137 -53.074  13.584  1.00  0.00     0.138 A 
HETATM   16  N   UNL     1     -47.124 -53.583  14.328  1.00  0.00    -0.310 N 
HETATM   17  N   UNL     1     -46.775 -54.870  14.472  1.00  0.00    -0.310 N 
ATOM     18  HN  UNL     1     -47.946 -53.107  14.697  1.00  0.00     0.186 HD
HETATM   19  C   UNL     1     -45.615 -55.199  13.829  1.00  0.00     0.138 A 
HETATM   20  H   UNL     1     -47.379 -55.466  15.028  1.00  0.00     0.186 HD
ENDBRANCH   4  14
TORSDOF 2
ENDMDL
MODEL 7
REMARK VINA RESULT:      -5.2      4.446      5.481
REMARK  2 active torsions:
REMARK  status: ('A' for Active; 'I' for Inactive)
REMARK       I    between atoms: C_2  and  N_3 
REMARK       I    between atoms: C_2  and  N_11 
REMARK    1  A    between atoms: N_3  and  C_4 
REMARK    2  A    between atoms: N_11  and  C_12 
ROOT
HETATM    1  O   UNL     1     -43.109 -48.542  13.321  1.00  0.00    -0.247 OA
HETATM    2  C   UNL     1     -42.962 -49.457  12.521  1.00  0.00     0.321 C 
HETATM    3  N   UNL     1     -43.571 -50.681  12.699  1.00  0.00    -0.337 N 
HETATM    4  N   UNL     1     -42.249 -49.391  11.352  1.00  0.00    -0.306 N 
HETATM    5  H   UNL     1     -43.094 -51.481  12.305  1.00  0.00     0.164 HD
HETATM    6  H   UNL     1     -42.425 -50.087  10.644  1.00  0.00     0.171 HD
ENDROOT
BRANCH   3   7
HETATM    7  C   UNL     1     -44.494 -50.911  13.806  1.00  0.00     0.101 C 
HETATM    8  C   UNL     1     -43.847 -51.744  14.939  1.00  0.00     0.041 C 
HETATM    9  C   UNL     1     -44.882 -52.662  15.579  1.00  0.00     0.142 C 
HETATM   10  S   UNL     1     -46.458 -52.199  14.916  1.00  0.00     0.146 S 
HETATM   11  O   UNL     1     -47.242 -53.385  14.647  1.00  0.00    -0.228 OA
HETATM   12  O   UNL     1     -46.977 -51.096  15.700  1.00  0.00    -0.228 OA
HETATM   13  C   UNL     1     -45.824 -51.545  13.399  1.00  0.00     0.165 C 
ENDBRANCH   3   7
BRANCH   4  14
HETATM   14  C   UNL     1     -41.531 -48.271  10.977  1.00  0.00     0.070 A 
HETATM   15  C   UNL     1     -40.213 -47.869  11.292  1.00  0.00     0.138 A 
HETATM   16  N   UNL     1     -39.886 -46.703  10.728  1.00  0.00    -0.310 N 
HETATM   17  N   UNL     1     -40.997 -46.354  10.063  1.00  0.00    -0.310 N 
ATOM     18  HN  UNL     1     -39.002 -46.198  10.789  1.00  0.00     0.186 HD
HETATM   19  C   UNL     1     -42.008 -47.268  10.168  1.00  0.00     0.138 A 
HETATM   20  H   UNL     1     -40.992 -45.473   9.560  1.00  0.00     0.186 HD
ENDBRANCH   4  14
TORSDOF 2
ENDMDL
MODEL 8
REMARK VINA RESULT:      -5.2      3.783      5.469
REMARK  2 active torsions:
REMARK  status: ('A' for Active; 'I' for Inactive)
REMARK       I    between atoms: C_2  and  N_3 
REMARK       I    between atoms: C_2  and  N_11 
REMARK    1  A    between atoms: N_3  and  C_4 
REMARK    2  A    between atoms: N_11  and  C_12 
ROOT
HETATM    1  O   UNL     1     -42.271 -51.037  13.010  1.00  0.00    -0.247 OA
HETATM    2  C   UNL     1     -41.614 -51.650  12.178  1.00  0.00     0.321 C 
HETATM    3  N   UNL     1     -41.696 -53.020  12.054  1.00  0.00    -0.337 N 
HETATM    4  N   UNL     1     -40.779 -51.089  11.246  1.00  0.00    -0.306 N 
HETATM    5  H   UNL     1     -40.869 -53.490  11.710  1.00  0.00     0.164 HD
HETATM    6  H   UNL     1     -40.518 -51.640  10.443  1.00  0.00     0.171 HD
ENDROOT
BRANCH   3   7
HETATM    7  C   UNL     1     -42.641 -53.795  12.854  1.00  0.00     0.101 C 
HETATM    8  C   UNL     1     -44.110 -53.482  12.483  1.00  0.00     0.041 C 
HETATM    9  C   UNL     1     -44.994 -53.545  13.722  1.00  0.00     0.142 C 
HETATM   10  S   UNL     1     -43.997 -54.203  15.031  1.00  0.00     0.146 S 
HETATM   11  O   UNL     1     -44.278 -53.494  16.261  1.00  0.00    -0.228 OA
HETATM   12  O   UNL     1     -44.037 -55.649  14.951  1.00  0.00    -0.228 OA
HETATM   13  C   UNL     1     -42.452 -53.656  14.365  1.00  0.00     0.165 C 
ENDBRANCH   3   7
BRANCH   4  14
HETATM   14  C   UNL     1     -40.519 -49.732  11.196  1.00  0.00     0.070 A 
HETATM   15  C   UNL     1     -41.280 -48.663  10.669  1.00  0.00     0.138 A 
HETATM   16  N   UNL     1     -40.672 -47.482  10.815  1.00  0.00    -0.310 N 
HETATM   17  N   UNL     1     -39.519 -47.797  11.424  1.00  0.00    -0.310 N 
ATOM     18  HN  UNL     1     -41.005 -46.561  10.531  1.00  0.00     0.186 HD
HETATM   19  C   UNL     1     -39.385 -49.132  11.688  1.00  0.00     0.138 A 
HETATM   20  H   UNL     1     -38.868 -47.046  11.626  1.00  0.00     0.186 HD
ENDBRANCH   4  14
TORSDOF 2
ENDMDL
MODEL 9
REMARK VINA RESULT:      -5.1      3.503      6.592
REMARK  2 active torsions:
REMARK  status: ('A' for Active; 'I' for Inactive)
REMARK       I    between atoms: C_2  and  N_3 
REMARK       I    between atoms: C_2  and  N_11 
REMARK    1  A    between atoms: N_3  and  C_4 
REMARK    2  A    between atoms: N_11  and  C_12 
ROOT
HETATM    1  O   UNL     1     -41.925 -49.851  13.288  1.00  0.00    -0.247 OA
HETATM    2  C   UNL     1     -41.896 -50.199  12.115  1.00  0.00     0.321 C 
HETATM    3  N   UNL     1     -41.968 -49.287  11.085  1.00  0.00    -0.337 N 
HETATM    4  N   UNL     1     -41.738 -51.485  11.666  1.00  0.00    -0.306 N 
HETATM    5  H   UNL     1     -42.377 -49.616  10.220  1.00  0.00     0.164 HD
HETATM    6  H   UNL     1     -41.445 -51.626  10.711  1.00  0.00     0.171 HD
ENDROOT
BRANCH   3   7
HETATM    7  C   UNL     1     -41.991 -47.850  11.349  1.00  0.00     0.101 C 
HETATM    8  C   UNL     1     -43.179 -47.150  10.648  1.00  0.00     0.041 C 
HETATM    9  C   UNL     1     -42.776 -45.753  10.191  1.00  0.00     0.142 C 
HETATM   10  S   UNL     1     -41.179 -45.427  10.886  1.00  0.00     0.146 S 
HETATM   11  O   UNL     1     -40.352 -44.748   9.912  1.00  0.00    -0.228 OA
HETATM   12  O   UNL     1     -41.362 -44.916  12.230  1.00  0.00    -0.228 OA
HETATM   13  C   UNL     1     -40.691 -47.124  11.005  1.00  0.00     0.165 C 
ENDBRANCH   3   7
BRANCH   4  14
HETATM   14  C   UNL     1     -41.671 -52.572  12.518  1.00  0.00     0.070 A 
HETATM   15  C   UNL     1     -40.565 -53.191  13.142  1.00  0.00     0.138 A 
HETATM   16  N   UNL     1     -40.922 -54.232  13.900  1.00  0.00    -0.310 N 
HETATM   17  N   UNL     1     -42.254 -54.285  13.751  1.00  0.00    -0.310 N 
ATOM     18  HN  UNL     1     -40.324 -54.841  14.458  1.00  0.00     0.186 HD
HETATM   19  C   UNL     1     -42.755 -53.302  12.944  1.00  0.00     0.138 A 
HETATM   20  H   UNL     1     -42.756 -55.025  14.230  1.00  0.00     0.186 HD
ENDBRANCH   4  14
TORSDOF 2
ENDMDL
