MODEL 1
REMARK VINA RESULT:      -6.5      0.000      0.000
REMARK  5 active torsions:
REMARK  status: ('A' for Active; 'I' for Inactive)
REMARK    1  A    between atoms: C_5  and  C_6 
REMARK    2  A    between atoms: C_6  and  C_7 
REMARK    3  A    between atoms: C_7  and  N_8 
REMARK       I    between atoms: N_8  and  C_9 
REMARK       I    between atoms: C_9  and  N_11 
REMARK    4  A    between atoms: C_15  and  C_16 
REMARK    5  A    between atoms: C_16  and  N_17 
ROOT
HETATM    1  N   UNL     1     -40.333 -53.230  13.494  1.00  0.00    -0.343 N 
HETATM    2  C   UNL     1     -40.409 -52.222  12.568  1.00  0.00     0.318 C 
HETATM    3  O   UNL     1     -41.281 -52.210  11.703  1.00  0.00    -0.247 OA
HETATM    4  N   UNL     1     -39.449 -51.226  12.680  1.00  0.00    -0.334 N 
HETATM    5  C   UNL     1     -38.224 -51.283  13.482  1.00  0.00     0.127 C 
HETATM    6  C   UNL     1     -37.983 -49.967  14.224  1.00  0.00     0.020 C 
HETATM    7  C   UNL     1     -38.046 -48.766  13.277  1.00  0.00     0.009 C 
HETATM    8  C   UNL     1     -39.395 -48.771  12.541  1.00  0.00     0.032 C 
HETATM    9  C   UNL     1     -39.522 -50.086  11.755  1.00  0.00     0.134 C 
HETATM   10  H   UNL     1     -39.968 -52.961  14.393  1.00  0.00     0.164 HD
ENDROOT
BRANCH   1  11
HETATM   11  C   UNL     1     -41.330 -54.295  13.508  1.00  0.00     0.129 C 
BRANCH  11  12
HETATM   12  C   UNL     1     -42.425 -54.037  14.546  1.00  0.00     0.060 C 
BRANCH  12  13
HETATM   13  C   UNL     1     -43.654 -53.382  13.977  1.00  0.00    -0.041 A 
HETATM   14  C   UNL     1     -43.849 -52.003  14.073  1.00  0.00     0.010 A 
HETATM   15  C   UNL     1     -44.960 -51.415  13.470  1.00  0.00     0.025 A 
HETATM   16  C   UNL     1     -45.867 -52.227  12.795  1.00  0.00     0.005 A 
HETATM   17  C   UNL     1     -47.030 -51.631  12.060  1.00  0.00     0.068 C 
HETATM   18  N   UNL     1     -45.722 -53.571  12.722  1.00  0.00    -0.369 N 
HETATM   19  C   UNL     1     -44.631 -54.112  13.310  1.00  0.00     0.095 A 
ATOM     20  HN  UNL     1     -46.409 -54.153  12.242  1.00  0.00     0.165 HD
ENDBRANCH  12  13
ENDBRANCH  11  12
ENDBRANCH   1  11
BRANCH   8  21
HETATM   21  C   UNL     1     -39.602 -47.540  11.636  1.00  0.00     0.278 C 
BRANCH  21  22
HETATM   22  N   UNL     1     -40.399 -46.462  12.250  1.00  0.00     0.092 N 
HETATM   23  C   UNL     1     -41.792 -46.371  11.751  1.00  0.00     0.298 C 
HETATM   24  C   UNL     1     -41.903 -45.853  10.309  1.00  0.00     0.198 C 
HETATM   25  O   UNL     1     -41.296 -44.562  10.180  1.00  0.00    -0.388 OA
HETATM   26  C   UNL     1     -39.923 -44.601  10.589  1.00  0.00     0.198 C 
HETATM   27  C   UNL     1     -39.769 -45.136  12.027  1.00  0.00     0.298 C 
ENDBRANCH  21  22
ENDBRANCH   8  21
TORSDOF 5
ENDMDL
MODEL 2
REMARK VINA RESULT:      -6.4      2.375      6.581
REMARK  5 active torsions:
REMARK  status: ('A' for Active; 'I' for Inactive)
REMARK    1  A    between atoms: C_5  and  C_6 
REMARK    2  A    between atoms: C_6  and  C_7 
REMARK    3  A    between atoms: C_7  and  N_8 
REMARK       I    between atoms: N_8  and  C_9 
REMARK       I    between atoms: C_9  and  N_11 
REMARK    4  A    between atoms: C_15  and  C_16 
REMARK    5  A    between atoms: C_16  and  N_17 
ROOT
HETATM    1  N   UNL     1     -40.151 -46.844  12.244  1.00  0.00    -0.343 N 
HETATM    2  C   UNL     1     -40.462 -47.867  13.102  1.00  0.00     0.318 C 
HETATM    3  O   UNL     1     -41.560 -47.933  13.651  1.00  0.00    -0.247 OA
HETATM    4  N   UNL     1     -39.468 -48.815  13.299  1.00  0.00    -0.334 N 
HETATM    5  C   UNL     1     -38.057 -48.687  12.920  1.00  0.00     0.127 C 
HETATM    6  C   UNL     1     -37.530 -49.980  12.294  1.00  0.00     0.020 C 
HETATM    7  C   UNL     1     -37.827 -51.195  13.176  1.00  0.00     0.009 C 
HETATM    8  C   UNL     1     -39.337 -51.266  13.452  1.00  0.00     0.032 C 
HETATM    9  C   UNL     1     -39.769 -49.969  14.157  1.00  0.00     0.134 C 
HETATM   10  H   UNL     1     -39.509 -47.082  11.506  1.00  0.00     0.164 HD
ENDROOT
BRANCH   1  11
HETATM   11  C   UNL     1     -41.145 -45.828  11.916  1.00  0.00     0.129 C 
BRANCH  11  12
HETATM   12  C   UNL     1     -41.460 -45.801  10.419  1.00  0.00     0.060 C 
BRANCH  12  13
HETATM   13  C   UNL     1     -42.825 -46.335  10.079  1.00  0.00    -0.041 A 
HETATM   14  C   UNL     1     -43.656 -45.671   9.175  1.00  0.00     0.010 A 
HETATM   15  C   UNL     1     -44.884 -46.230   8.821  1.00  0.00     0.025 A 
HETATM   16  C   UNL     1     -45.263 -47.438   9.397  1.00  0.00     0.005 A 
HETATM   17  C   UNL     1     -46.534 -48.118   8.985  1.00  0.00     0.068 C 
HETATM   18  N   UNL     1     -44.494 -48.081  10.306  1.00  0.00    -0.369 N 
HETATM   19  C   UNL     1     -43.305 -47.519  10.624  1.00  0.00     0.095 A 
ATOM     20  HN  UNL     1     -44.799 -48.955  10.735  1.00  0.00     0.165 HD
ENDBRANCH  12  13
ENDBRANCH  11  12
ENDBRANCH   1  11
BRANCH   8  21
HETATM   21  C   UNL     1     -39.755 -52.517  14.249  1.00  0.00     0.278 C 
BRANCH  21  22
HETATM   22  N   UNL     1     -40.382 -53.575  13.434  1.00  0.00     0.092 N 
HETATM   23  C   UNL     1     -41.257 -53.072  12.349  1.00  0.00     0.298 C 
HETATM   24  C   UNL     1     -42.572 -52.452  12.847  1.00  0.00     0.198 C 
HETATM   25  O   UNL     1     -43.319 -53.393  13.626  1.00  0.00    -0.388 OA
HETATM   26  C   UNL     1     -42.544 -53.870  14.733  1.00  0.00     0.198 C 
HETATM   27  C   UNL     1     -41.205 -54.482  14.273  1.00  0.00     0.298 C 
ENDBRANCH  21  22
ENDBRANCH   8  21
TORSDOF 5
ENDMDL
MODEL 3
REMARK VINA RESULT:      -6.2      1.620      2.045
REMARK  5 active torsions:
REMARK  status: ('A' for Active; 'I' for Inactive)
REMARK    1  A    between atoms: C_5  and  C_6 
REMARK    2  A    between atoms: C_6  and  C_7 
REMARK    3  A    between atoms: C_7  and  N_8 
REMARK       I    between atoms: N_8  and  C_9 
REMARK       I    between atoms: C_9  and  N_11 
REMARK    4  A    between atoms: C_15  and  C_16 
REMARK    5  A    between atoms: C_16  and  N_17 
ROOT
HETATM    1  N   UNL     1     -39.947 -52.918  13.580  1.00  0.00    -0.343 N 
HETATM    2  C   UNL     1     -40.436 -52.224  12.502  1.00  0.00     0.318 C 
HETATM    3  O   UNL     1     -41.294 -52.704  11.766  1.00  0.00    -0.247 OA
HETATM    4  N   UNL     1     -39.906 -50.956  12.310  1.00  0.00    -0.334 N 
HETATM    5  C   UNL     1     -38.706 -50.408  12.950  1.00  0.00     0.127 C 
HETATM    6  C   UNL     1     -38.928 -48.964  13.404  1.00  0.00     0.020 C 
HETATM    7  C   UNL     1     -39.477 -48.095  12.270  1.00  0.00     0.009 C 
HETATM    8  C   UNL     1     -40.765 -48.728  11.723  1.00  0.00     0.032 C 
HETATM    9  C   UNL     1     -40.439 -50.141  11.210  1.00  0.00     0.134 C 
HETATM   10  H   UNL     1     -39.661 -52.352  14.361  1.00  0.00     0.164 HD
ENDROOT
BRANCH   1  11
HETATM   11  C   UNL     1     -40.481 -54.235  13.912  1.00  0.00     0.129 C 
BRANCH  11  12
HETATM   12  C   UNL     1     -41.377 -54.190  15.152  1.00  0.00     0.060 C 
BRANCH  12  13
HETATM   13  C   UNL     1     -42.793 -53.774  14.859  1.00  0.00    -0.041 A 
HETATM   14  C   UNL     1     -43.738 -54.695  14.406  1.00  0.00     0.010 A 
HETATM   15  C   UNL     1     -45.061 -54.297  14.216  1.00  0.00     0.025 A 
HETATM   16  C   UNL     1     -45.407 -52.973  14.468  1.00  0.00     0.005 A 
HETATM   17  C   UNL     1     -46.832 -52.519  14.359  1.00  0.00     0.068 C 
HETATM   18  N   UNL     1     -44.501 -52.051  14.869  1.00  0.00    -0.369 N 
HETATM   19  C   UNL     1     -43.227 -52.468  15.052  1.00  0.00     0.095 A 
ATOM     20  HN  UNL     1     -44.769 -51.079  15.027  1.00  0.00     0.165 HD
ENDBRANCH  12  13
ENDBRANCH  11  12
ENDBRANCH   1  11
BRANCH   8  21
HETATM   21  C   UNL     1     -41.456 -47.873  10.642  1.00  0.00     0.278 C 
BRANCH  21  22
HETATM   22  N   UNL     1     -42.790 -47.373  11.025  1.00  0.00     0.092 N 
HETATM   23  C   UNL     1     -43.762 -47.309   9.907  1.00  0.00     0.298 C 
HETATM   24  C   UNL     1     -43.462 -46.202   8.885  1.00  0.00     0.198 C 
HETATM   25  O   UNL     1     -43.421 -44.917   9.518  1.00  0.00    -0.388 OA
HETATM   26  C   UNL     1     -42.449 -44.898  10.571  1.00  0.00     0.198 C 
HETATM   27  C   UNL     1     -42.706 -46.010  11.608  1.00  0.00     0.298 C 
ENDBRANCH  21  22
ENDBRANCH   8  21
TORSDOF 5
ENDMDL
MODEL 4
REMARK VINA RESULT:      -6.1      5.702      8.204
REMARK  5 active torsions:
REMARK  status: ('A' for Active; 'I' for Inactive)
REMARK    1  A    between atoms: C_5  and  C_6 
REMARK    2  A    between atoms: C_6  and  C_7 
REMARK    3  A    between atoms: C_7  and  N_8 
REMARK       I    between atoms: N_8  and  C_9 
REMARK       I    between atoms: C_9  and  N_11 
REMARK    4  A    between atoms: C_15  and  C_16 
REMARK    5  A    between atoms: C_16  and  N_17 
ROOT
HETATM    1  N   UNL     1     -46.292 -54.639  17.813  1.00  0.00    -0.343 N 
HETATM    2  C   UNL     1     -45.560 -53.643  17.219  1.00  0.00     0.318 C 
HETATM    3  O   UNL     1     -45.000 -52.775  17.883  1.00  0.00    -0.247 OA
HETATM    4  N   UNL     1     -45.492 -53.688  15.834  1.00  0.00    -0.334 N 
HETATM    5  C   UNL     1     -46.332 -54.498  14.947  1.00  0.00     0.127 C 
HETATM    6  C   UNL     1     -45.503 -55.147  13.835  1.00  0.00     0.020 C 
HETATM    7  C   UNL     1     -44.642 -54.116  13.101  1.00  0.00     0.009 C 
HETATM    8  C   UNL     1     -43.759 -53.376  14.117  1.00  0.00     0.032 C 
HETATM    9  C   UNL     1     -44.667 -52.684  15.147  1.00  0.00     0.134 C 
HETATM   10  H   UNL     1     -46.299 -55.518  17.323  1.00  0.00     0.164 HD
ENDROOT
BRANCH   1  11
HETATM   11  C   UNL     1     -46.377 -54.724  19.267  1.00  0.00     0.129 C 
BRANCH  11  12
HETATM   12  C   UNL     1     -46.523 -56.170  19.746  1.00  0.00     0.060 C 
BRANCH  12  13
HETATM   13  C   UNL     1     -47.948 -56.580  20.004  1.00  0.00    -0.041 A 
HETATM   14  C   UNL     1     -48.901 -55.652  20.428  1.00  0.00     0.010 A 
HETATM   15  C   UNL     1     -50.230 -56.045  20.585  1.00  0.00     0.025 A 
HETATM   16  C   UNL     1     -50.575 -57.369  20.330  1.00  0.00     0.005 A 
HETATM   17  C   UNL     1     -52.003 -57.818  20.404  1.00  0.00     0.068 C 
HETATM   18  N   UNL     1     -49.662 -58.297  19.957  1.00  0.00    -0.369 N 
HETATM   19  C   UNL     1     -48.382 -57.885  19.806  1.00  0.00     0.095 A 
ATOM     20  HN  UNL     1     -49.929 -59.268  19.797  1.00  0.00     0.165 HD
ENDBRANCH  12  13
ENDBRANCH  11  12
ENDBRANCH   1  11
BRANCH   8  21
HETATM   21  C   UNL     1     -42.775 -52.385  13.464  1.00  0.00     0.278 C 
BRANCH  21  22
HETATM   22  N   UNL     1     -41.858 -52.996  12.483  1.00  0.00     0.092 N 
HETATM   23  C   UNL     1     -40.993 -54.064  13.039  1.00  0.00     0.298 C 
HETATM   24  C   UNL     1     -39.898 -53.547  13.984  1.00  0.00     0.198 C 
HETATM   25  O   UNL     1     -39.061 -52.590  13.324  1.00  0.00    -0.388 OA
HETATM   26  C   UNL     1     -39.837 -51.496  12.819  1.00  0.00     0.198 C 
HETATM   27  C   UNL     1     -40.962 -51.978  11.880  1.00  0.00     0.298 C 
ENDBRANCH  21  22
ENDBRANCH   8  21
TORSDOF 5
ENDMDL
MODEL 5
REMARK VINA RESULT:      -6.1      2.615      8.573
REMARK  5 active torsions:
REMARK  status: ('A' for Active; 'I' for Inactive)
REMARK    1  A    between atoms: C_5  and  C_6 
REMARK    2  A    between atoms: C_6  and  C_7 
REMARK    3  A    between atoms: C_7  and  N_8 
REMARK       I    between atoms: N_8  and  C_9 
REMARK       I    between atoms: C_9  and  N_11 
REMARK    4  A    between atoms: C_15  and  C_16 
REMARK    5  A    between atoms: C_16  and  N_17 
ROOT
HETATM    1  N   UNL     1     -41.662 -51.023  11.738  1.00  0.00    -0.343 N 
HETATM    2  C   UNL     1     -41.258 -52.187  12.341  1.00  0.00     0.318 C 
HETATM    3  O   UNL     1     -40.068 -52.458  12.480  1.00  0.00    -0.247 OA
HETATM    4  N   UNL     1     -42.275 -53.022  12.783  1.00  0.00    -0.334 N 
HETATM    5  C   UNL     1     -43.694 -52.929  12.429  1.00  0.00     0.127 C 
HETATM    6  C   UNL     1     -44.588 -53.140  13.653  1.00  0.00     0.020 C 
HETATM    7  C   UNL     1     -44.221 -54.421  14.405  1.00  0.00     0.009 C 
HETATM    8  C   UNL     1     -42.732 -54.379  14.783  1.00  0.00     0.032 C 
HETATM    9  C   UNL     1     -41.901 -54.252  13.495  1.00  0.00     0.134 C 
HETATM   10  H   UNL     1     -42.534 -50.646  12.073  1.00  0.00     0.164 HD
ENDROOT
BRANCH   1  11
HETATM   11  C   UNL     1     -40.677 -50.043  11.293  1.00  0.00     0.129 C 
BRANCH  11  12
HETATM   12  C   UNL     1     -41.339 -48.764  10.776  1.00  0.00     0.060 C 
BRANCH  12  13
HETATM   13  C   UNL     1     -40.789 -47.507  11.393  1.00  0.00    -0.041 A 
HETATM   14  C   UNL     1     -40.075 -47.543  12.593  1.00  0.00     0.010 A 
HETATM   15  C   UNL     1     -39.511 -46.373  13.101  1.00  0.00     0.025 A 
HETATM   16  C   UNL     1     -39.691 -45.183  12.404  1.00  0.00     0.005 A 
HETATM   17  C   UNL     1     -39.035 -43.916  12.866  1.00  0.00     0.068 C 
HETATM   18  N   UNL     1     -40.413 -45.113  11.261  1.00  0.00    -0.369 N 
HETATM   19  C   UNL     1     -40.941 -46.266  10.787  1.00  0.00     0.095 A 
ATOM     20  HN  UNL     1     -40.554 -44.227  10.775  1.00  0.00     0.165 HD
ENDBRANCH  12  13
ENDBRANCH  11  12
ENDBRANCH   1  11
BRANCH   8  21
HETATM   21  C   UNL     1     -42.284 -55.581  15.637  1.00  0.00     0.278 C 
BRANCH  21  22
HETATM   22  N   UNL     1     -41.487 -55.218  16.825  1.00  0.00     0.092 N 
HETATM   23  C   UNL     1     -40.171 -54.610  16.515  1.00  0.00     0.298 C 
HETATM   24  C   UNL     1     -39.151 -55.599  15.932  1.00  0.00     0.198 C 
HETATM   25  O   UNL     1     -38.937 -56.700  16.824  1.00  0.00    -0.388 OA
HETATM   26  C   UNL     1     -40.171 -57.371  17.111  1.00  0.00     0.198 C 
HETATM   27  C   UNL     1     -41.229 -56.404  17.680  1.00  0.00     0.298 C 
ENDBRANCH  21  22
ENDBRANCH   8  21
TORSDOF 5
ENDMDL
MODEL 6
REMARK VINA RESULT:      -6.0      2.914      4.351
REMARK  5 active torsions:
REMARK  status: ('A' for Active; 'I' for Inactive)
REMARK    1  A    between atoms: C_5  and  C_6 
REMARK    2  A    between atoms: C_6  and  C_7 
REMARK    3  A    between atoms: C_7  and  N_8 
REMARK       I    between atoms: N_8  and  C_9 
REMARK       I    between atoms: C_9  and  N_11 
REMARK    4  A    between atoms: C_15  and  C_16 
REMARK    5  A    between atoms: C_16  and  N_17 
ROOT
HETATM    1  N   UNL     1     -42.589 -49.920  11.829  1.00  0.00    -0.343 N 
HETATM    2  C   UNL     1     -42.507 -48.660  12.365  1.00  0.00     0.318 C 
HETATM    3  O   UNL     1     -42.005 -48.465  13.469  1.00  0.00    -0.247 OA
HETATM    4  N   UNL     1     -43.016 -47.636  11.580  1.00  0.00    -0.334 N 
HETATM    5  C   UNL     1     -43.868 -47.787  10.396  1.00  0.00     0.127 C 
HETATM    6  C   UNL     1     -43.431 -46.844   9.273  1.00  0.00     0.020 C 
HETATM    7  C   UNL     1     -43.307 -45.400   9.766  1.00  0.00     0.009 C 
HETATM    8  C   UNL     1     -42.343 -45.353  10.961  1.00  0.00     0.032 C 
HETATM    9  C   UNL     1     -42.896 -46.258  12.075  1.00  0.00     0.134 C 
HETATM   10  H   UNL     1     -42.540 -49.964  10.824  1.00  0.00     0.164 HD
ENDROOT
BRANCH   1  11
HETATM   11  C   UNL     1     -42.027 -51.063  12.541  1.00  0.00     0.129 C 
BRANCH  11  12
HETATM   12  C   UNL     1     -43.043 -52.196  12.693  1.00  0.00     0.060 C 
BRANCH  12  13
HETATM   13  C   UNL     1     -44.198 -51.856  13.596  1.00  0.00    -0.041 A 
HETATM   14  C   UNL     1     -45.491 -51.706  13.092  1.00  0.00     0.010 A 
HETATM   15  C   UNL     1     -46.553 -51.466  13.963  1.00  0.00     0.025 A 
HETATM   16  C   UNL     1     -46.294 -51.362  15.326  1.00  0.00     0.005 A 
HETATM   17  C   UNL     1     -47.412 -51.189  16.309  1.00  0.00     0.068 C 
HETATM   18  N   UNL     1     -45.043 -51.463  15.836  1.00  0.00    -0.369 N 
HETATM   19  C   UNL     1     -44.034 -51.704  14.968  1.00  0.00     0.095 A 
ATOM     20  HN  UNL     1     -44.869 -51.361  16.836  1.00  0.00     0.165 HD
ENDBRANCH  12  13
ENDBRANCH  11  12
ENDBRANCH   1  11
BRANCH   8  21
HETATM   21  C   UNL     1     -42.068 -43.923  11.468  1.00  0.00     0.278 C 
BRANCH  21  22
HETATM   22  N   UNL     1     -40.677 -43.469  11.279  1.00  0.00     0.092 N 
HETATM   23  C   UNL     1     -39.653 -44.396  11.818  1.00  0.00     0.298 C 
HETATM   24  C   UNL     1     -39.601 -44.440  13.353  1.00  0.00     0.198 C 
HETATM   25  O   UNL     1     -39.357 -43.137  13.895  1.00  0.00    -0.388 OA
HETATM   26  C   UNL     1     -40.356 -42.206  13.459  1.00  0.00     0.198 C 
HETATM   27  C   UNL     1     -40.452 -42.150  11.920  1.00  0.00     0.298 C 
ENDBRANCH  21  22
ENDBRANCH   8  21
TORSDOF 5
ENDMDL
MODEL 7
REMARK VINA RESULT:      -5.9      1.312      1.615
REMARK  5 active torsions:
REMARK  status: ('A' for Active; 'I' for Inactive)
REMARK    1  A    between atoms: C_5  and  C_6 
REMARK    2  A    between atoms: C_6  and  C_7 
REMARK    3  A    between atoms: C_7  and  N_8 
REMARK       I    between atoms: N_8  and  C_9 
REMARK       I    between atoms: C_9  and  N_11 
REMARK    4  A    between atoms: C_15  and  C_16 
REMARK    5  A    between atoms: C_16  and  N_17 
ROOT
HETATM    1  N   UNL     1     -40.339 -52.851  12.959  1.00  0.00    -0.343 N 
HETATM    2  C   UNL     1     -40.738 -51.647  12.435  1.00  0.00     0.318 C 
HETATM    3  O   UNL     1     -41.844 -51.507  11.921  1.00  0.00    -0.247 OA
HETATM    4  N   UNL     1     -39.818 -50.613  12.531  1.00  0.00    -0.334 N 
HETATM    5  C   UNL     1     -38.397 -50.739  12.867  1.00  0.00     0.127 C 
HETATM    6  C   UNL     1     -37.958 -49.650  13.848  1.00  0.00     0.020 C 
HETATM    7  C   UNL     1     -38.356 -48.256  13.356  1.00  0.00     0.009 C 
HETATM    8  C   UNL     1     -39.870 -48.221  13.101  1.00  0.00     0.032 C 
HETATM    9  C   UNL     1     -40.216 -49.284  12.045  1.00  0.00     0.134 C 
HETATM   10  H   UNL     1     -39.707 -52.790  13.740  1.00  0.00     0.164 HD
ENDROOT
BRANCH   1  11
HETATM   11  C   UNL     1     -41.252 -53.989  12.968  1.00  0.00     0.129 C 
BRANCH  11  12
HETATM   12  C   UNL     1     -41.742 -54.315  14.381  1.00  0.00     0.060 C 
BRANCH  12  13
HETATM   13  C   UNL     1     -43.114 -53.776  14.683  1.00  0.00    -0.041 A 
HETATM   14  C   UNL     1     -43.306 -52.436  15.024  1.00  0.00     0.010 A 
HETATM   15  C   UNL     1     -44.596 -51.947  15.224  1.00  0.00     0.025 A 
HETATM   16  C   UNL     1     -45.673 -52.819  15.095  1.00  0.00     0.005 A 
HETATM   17  C   UNL     1     -47.082 -52.323  15.218  1.00  0.00     0.068 C 
HETATM   18  N   UNL     1     -45.511 -54.132  14.806  1.00  0.00    -0.369 N 
HETATM   19  C   UNL     1     -44.248 -54.576  14.609  1.00  0.00     0.095 A 
ATOM     20  HN  UNL     1     -46.311 -54.762  14.738  1.00  0.00     0.165 HD
ENDBRANCH  12  13
ENDBRANCH  11  12
ENDBRANCH   1  11
BRANCH   8  21
HETATM   21  C   UNL     1     -40.390 -46.826  12.700  1.00  0.00     0.278 C 
BRANCH  21  22
HETATM   22  N   UNL     1     -40.720 -46.690  11.269  1.00  0.00     0.092 N 
HETATM   23  C   UNL     1     -39.837 -45.762  10.524  1.00  0.00     0.298 C 
HETATM   24  C   UNL     1     -40.049 -44.282  10.880  1.00  0.00     0.198 C 
HETATM   25  O   UNL     1     -41.408 -43.890  10.651  1.00  0.00    -0.388 OA
HETATM   26  C   UNL     1     -42.310 -44.715  11.398  1.00  0.00     0.198 C 
HETATM   27  C   UNL     1     -42.113 -46.211  11.083  1.00  0.00     0.298 C 
ENDBRANCH  21  22
ENDBRANCH   8  21
TORSDOF 5
ENDMDL
MODEL 8
REMARK VINA RESULT:      -5.8      6.293      8.725
REMARK  5 active torsions:
REMARK  status: ('A' for Active; 'I' for Inactive)
REMARK    1  A    between atoms: C_5  and  C_6 
REMARK    2  A    between atoms: C_6  and  C_7 
REMARK    3  A    between atoms: C_7  and  N_8 
REMARK       I    between atoms: N_8  and  C_9 
REMARK       I    between atoms: C_9  and  N_11 
REMARK    4  A    between atoms: C_15  and  C_16 
REMARK    5  A    between atoms: C_16  and  N_17 
ROOT
HETATM    1  N   UNL     1     -46.837 -54.049  18.777  1.00  0.00    -0.343 N 
HETATM    2  C   UNL     1     -45.715 -54.060  17.988  1.00  0.00     0.318 C 
HETATM    3  O   UNL     1     -44.848 -54.920  18.119  1.00  0.00    -0.247 OA
HETATM    4  N   UNL     1     -45.633 -53.050  17.040  1.00  0.00    -0.334 N 
HETATM    5  C   UNL     1     -46.457 -51.839  16.985  1.00  0.00     0.127 C 
HETATM    6  C   UNL     1     -46.906 -51.537  15.554  1.00  0.00     0.020 C 
HETATM    7  C   UNL     1     -45.723 -51.525  14.583  1.00  0.00     0.009 C 
HETATM    8  C   UNL     1     -44.975 -52.863  14.678  1.00  0.00     0.032 C 
HETATM    9  C   UNL     1     -44.484 -53.051  16.124  1.00  0.00     0.134 C 
HETATM   10  H   UNL     1     -47.665 -53.680  18.340  1.00  0.00     0.164 HD
ENDROOT
BRANCH   1  11
HETATM   11  C   UNL     1     -47.055 -55.102  19.763  1.00  0.00     0.129 C 
BRANCH  11  12
HETATM   12  C   UNL     1     -48.231 -54.780  20.689  1.00  0.00     0.060 C 
BRANCH  12  13
HETATM   13  C   UNL     1     -49.404 -55.707  20.520  1.00  0.00    -0.041 A 
HETATM   14  C   UNL     1     -49.223 -57.085  20.383  1.00  0.00     0.010 A 
HETATM   15  C   UNL     1     -50.332 -57.927  20.305  1.00  0.00     0.025 A 
HETATM   16  C   UNL     1     -51.605 -57.367  20.347  1.00  0.00     0.005 A 
HETATM   17  C   UNL     1     -52.826 -58.237  20.351  1.00  0.00     0.068 C 
HETATM   18  N   UNL     1     -51.808 -56.031  20.439  1.00  0.00    -0.369 N 
HETATM   19  C   UNL     1     -50.713 -55.240  20.521  1.00  0.00     0.095 A 
ATOM     20  HN  UNL     1     -52.748 -55.637  20.446  1.00  0.00     0.165 HD
ENDBRANCH  12  13
ENDBRANCH  11  12
ENDBRANCH   1  11
BRANCH   8  21
HETATM   21  C   UNL     1     -43.823 -52.993  13.662  1.00  0.00     0.278 C 
BRANCH  21  22
HETATM   22  N   UNL     1     -42.522 -52.500  14.153  1.00  0.00     0.092 N 
HETATM   23  C   UNL     1     -41.902 -51.458  13.300  1.00  0.00     0.298 C 
HETATM   24  C   UNL     1     -41.377 -51.987  11.956  1.00  0.00     0.198 C 
HETATM   25  O   UNL     1     -40.418 -53.032  12.156  1.00  0.00    -0.388 OA
HETATM   26  C   UNL     1     -40.982 -54.103  12.925  1.00  0.00     0.198 C 
HETATM   27  C   UNL     1     -41.539 -53.606  14.274  1.00  0.00     0.298 C 
ENDBRANCH  21  22
ENDBRANCH   8  21
TORSDOF 5
ENDMDL
MODEL 9
REMARK VINA RESULT:      -5.7      2.516      4.926
REMARK  5 active torsions:
REMARK  status: ('A' for Active; 'I' for Inactive)
REMARK    1  A    between atoms: C_5  and  C_6 
REMARK    2  A    between atoms: C_6  and  C_7 
REMARK    3  A    between atoms: C_7  and  N_8 
REMARK       I    between atoms: N_8  and  C_9 
REMARK       I    between atoms: C_9  and  N_11 
REMARK    4  A    between atoms: C_15  and  C_16 
REMARK    5  A    between atoms: C_16  and  N_17 
ROOT
HETATM    1  N   UNL     1     -44.361 -50.668  12.715  1.00  0.00    -0.343 N 
HETATM    2  C   UNL     1     -43.499 -50.021  13.564  1.00  0.00     0.318 C 
HETATM    3  O   UNL     1     -43.388 -50.354  14.741  1.00  0.00    -0.247 OA
HETATM    4  N   UNL     1     -42.768 -48.983  13.005  1.00  0.00    -0.334 N 
HETATM    5  C   UNL     1     -43.020 -48.337  11.714  1.00  0.00     0.127 C 
HETATM    6  C   UNL     1     -41.717 -48.103  10.946  1.00  0.00     0.020 C 
HETATM    7  C   UNL     1     -40.678 -47.381  11.807  1.00  0.00     0.009 C 
HETATM    8  C   UNL     1     -40.445 -48.180  13.098  1.00  0.00     0.032 C 
HETATM    9  C   UNL     1     -41.781 -48.297  13.851  1.00  0.00     0.134 C 
HETATM   10  H   UNL     1     -44.073 -50.698  11.751  1.00  0.00     0.164 HD
ENDROOT
BRANCH   1  11
HETATM   11  C   UNL     1     -45.133 -51.816  13.182  1.00  0.00     0.129 C 
BRANCH  11  12
HETATM   12  C   UNL     1     -44.619 -53.128  12.585  1.00  0.00     0.060 C 
BRANCH  12  13
HETATM   13  C   UNL     1     -43.216 -53.474  13.005  1.00  0.00    -0.041 A 
HETATM   14  C   UNL     1     -42.950 -54.009  14.267  1.00  0.00     0.010 A 
HETATM   15  C   UNL     1     -41.651 -54.391  14.599  1.00  0.00     0.025 A 
HETATM   16  C   UNL     1     -40.637 -54.212  13.664  1.00  0.00     0.005 A 
HETATM   17  C   UNL     1     -39.242 -54.684  13.944  1.00  0.00     0.068 C 
HETATM   18  N   UNL     1     -40.861 -53.658  12.449  1.00  0.00    -0.369 N 
HETATM   19  C   UNL     1     -42.133 -53.304  12.151  1.00  0.00     0.095 A 
ATOM     20  HN  UNL     1     -40.101 -53.513  11.784  1.00  0.00     0.165 HD
ENDBRANCH  12  13
ENDBRANCH  11  12
ENDBRANCH   1  11
BRANCH   8  21
HETATM   21  C   UNL     1     -39.336 -47.589  13.991  1.00  0.00     0.278 C 
BRANCH  21  22
HETATM   22  N   UNL     1     -37.976 -48.057  13.659  1.00  0.00     0.092 N 
HETATM   23  C   UNL     1     -37.864 -49.523  13.468  1.00  0.00     0.298 C 
HETATM   24  C   UNL     1     -38.001 -50.331  14.768  1.00  0.00     0.198 C 
HETATM   25  O   UNL     1     -37.017 -49.928  15.728  1.00  0.00    -0.388 OA
HETATM   26  C   UNL     1     -37.118 -48.524  16.003  1.00  0.00     0.198 C 
HETATM   27  C   UNL     1     -37.006 -47.680  14.717  1.00  0.00     0.298 C 
ENDBRANCH  21  22
ENDBRANCH   8  21
TORSDOF 5
ENDMDL
