MODEL 1
REMARK VINA RESULT:      -6.4      0.000      0.000
REMARK  5 active torsions:
REMARK  status: ('A' for Active; 'I' for Inactive)
REMARK    1  A    between atoms: C_2  and  C_3 
REMARK    2  A    between atoms: C_2  and  N_11 
REMARK    3  A    between atoms: C_3  and  C_4 
REMARK       I    between atoms: N_11  and  C_12 
REMARK    4  A    between atoms: C_12  and  C_14 
REMARK    5  A    between atoms: C_14  and  N_16 
ROOT
HETATM    1  N   UNL     1     -42.145 -50.657  12.284  1.00  0.00    -0.355 N 
HETATM    2  C   UNL     1     -42.435 -51.736  13.091  1.00  0.00     0.240 C 
HETATM    3  O   UNL     1     -41.651 -52.122  13.955  1.00  0.00    -0.271 OA
HETATM    4  H   UNL     1     -42.836 -50.354  11.609  1.00  0.00     0.162 HD
ENDROOT
BRANCH   1   5
HETATM    5  C   UNL     1     -40.985 -49.795  12.533  1.00  0.00     0.086 C 
HETATM    6  C   UNL     1     -39.819 -50.290  11.686  1.00  0.00     0.032 C 
BRANCH   5   7
HETATM    7  C   UNL     1     -41.344 -48.315  12.274  1.00  0.00     0.083 C 
BRANCH   7   8
HETATM    8  C   UNL     1     -42.207 -48.124  11.072  1.00  0.00     0.029 A 
HETATM    9  C   UNL     1     -43.555 -47.696  11.027  1.00  0.00     0.052 A 
HETATM   10  C   UNL     1     -43.864 -47.628   9.686  1.00  0.00     0.024 A 
HETATM   11  C   UNL     1     -45.092 -47.217   8.971  1.00  0.00     0.070 C 
HETATM   12  N   UNL     1     -42.737 -48.032   9.028  1.00  0.00    -0.305 N 
HETATM   13  N   UNL     1     -41.720 -48.350   9.845  1.00  0.00    -0.305 N 
HETATM   14  H   UNL     1     -42.588 -48.105   8.027  1.00  0.00     0.186 HD
ATOM     15  HN  UNL     1     -40.791 -48.686   9.590  1.00  0.00     0.186 HD
ENDBRANCH   7   8
ENDBRANCH   5   7
ENDBRANCH   1   5
BRANCH   2  16
HETATM   16  C   UNL     1     -43.796 -52.419  12.804  1.00  0.00     0.168 C 
HETATM   17  C   UNL     1     -43.568 -53.929  12.642  1.00  0.00     0.042 C 
BRANCH  16  18
HETATM   18  N   UNL     1     -44.849 -52.115  13.799  1.00  0.00    -0.392 N 
HETATM   19  C   UNL     1     -45.282 -53.181  14.710  1.00  0.00     0.076 C 
HETATM   20  C   UNL     1     -44.328 -53.351  15.890  1.00  0.00     0.032 C 
HETATM   21  C   UNL     1     -46.675 -52.764  15.193  1.00  0.00     0.026 C 
HETATM   22  C   UNL     1     -46.868 -51.356  14.664  1.00  0.00     0.026 C 
HETATM   23  C   UNL     1     -46.015 -51.318  13.396  1.00  0.00     0.076 C 
HETATM   24  C   UNL     1     -46.820 -51.831  12.203  1.00  0.00     0.032 C 
ENDBRANCH  16  18
ENDBRANCH   2  16
TORSDOF 5
ENDMDL
MODEL 2
REMARK VINA RESULT:      -6.4      1.344      1.954
REMARK  5 active torsions:
REMARK  status: ('A' for Active; 'I' for Inactive)
REMARK    1  A    between atoms: C_2  and  C_3 
REMARK    2  A    between atoms: C_2  and  N_11 
REMARK    3  A    between atoms: C_3  and  C_4 
REMARK       I    between atoms: N_11  and  C_12 
REMARK    4  A    between atoms: C_12  and  C_14 
REMARK    5  A    between atoms: C_14  and  N_16 
ROOT
HETATM    1  N   UNL     1     -41.127 -51.933  13.153  1.00  0.00    -0.355 N 
HETATM    2  C   UNL     1     -42.254 -51.682  13.904  1.00  0.00     0.240 C 
HETATM    3  O   UNL     1     -42.198 -51.059  14.962  1.00  0.00    -0.271 OA
HETATM    4  H   UNL     1     -41.226 -52.421  12.271  1.00  0.00     0.162 HD
ENDROOT
BRANCH   1   5
HETATM    5  C   UNL     1     -39.835 -51.315  13.468  1.00  0.00     0.086 C 
HETATM    6  C   UNL     1     -38.938 -52.359  14.121  1.00  0.00     0.032 C 
BRANCH   5   7
HETATM    7  C   UNL     1     -39.214 -50.683  12.202  1.00  0.00     0.083 C 
BRANCH   7   8
HETATM    8  C   UNL     1     -40.113 -49.693  11.541  1.00  0.00     0.029 A 
HETATM    9  C   UNL     1     -40.613 -48.480  12.071  1.00  0.00     0.052 A 
HETATM   10  C   UNL     1     -41.340 -47.915  11.047  1.00  0.00     0.024 A 
HETATM   11  C   UNL     1     -42.082 -46.638  10.944  1.00  0.00     0.070 C 
HETATM   12  N   UNL     1     -41.264 -48.799  10.009  1.00  0.00    -0.305 N 
HETATM   13  N   UNL     1     -40.534 -49.892  10.286  1.00  0.00    -0.305 N 
HETATM   14  H   UNL     1     -41.674 -48.718   9.085  1.00  0.00     0.186 HD
ATOM     15  HN  UNL     1     -40.345 -50.691   9.679  1.00  0.00     0.186 HD
ENDBRANCH   7   8
ENDBRANCH   5   7
ENDBRANCH   1   5
BRANCH   2  16
HETATM   16  C   UNL     1     -43.568 -52.261  13.322  1.00  0.00     0.168 C 
HETATM   17  C   UNL     1     -43.336 -53.730  12.938  1.00  0.00     0.042 C 
BRANCH  16  18
HETATM   18  N   UNL     1     -44.748 -52.091  14.201  1.00  0.00    -0.392 N 
HETATM   19  C   UNL     1     -45.233 -53.253  14.955  1.00  0.00     0.076 C 
HETATM   20  C   UNL     1     -44.421 -53.494  16.226  1.00  0.00     0.032 C 
HETATM   21  C   UNL     1     -46.693 -52.938  15.295  1.00  0.00     0.026 C 
HETATM   22  C   UNL     1     -46.892 -51.495  14.870  1.00  0.00     0.026 C 
HETATM   23  C   UNL     1     -45.895 -51.308  13.727  1.00  0.00     0.076 C 
HETATM   24  C   UNL     1     -46.524 -51.739  12.402  1.00  0.00     0.032 C 
ENDBRANCH  16  18
ENDBRANCH   2  16
TORSDOF 5
ENDMDL
MODEL 3
REMARK VINA RESULT:      -6.4      3.270      7.121
REMARK  5 active torsions:
REMARK  status: ('A' for Active; 'I' for Inactive)
REMARK    1  A    between atoms: C_2  and  C_3 
REMARK    2  A    between atoms: C_2  and  N_11 
REMARK    3  A    between atoms: C_3  and  C_4 
REMARK       I    between atoms: N_11  and  C_12 
REMARK    4  A    between atoms: C_12  and  C_14 
REMARK    5  A    between atoms: C_14  and  N_16 
ROOT
HETATM    1  N   UNL     1     -39.104 -48.606  12.202  1.00  0.00    -0.355 N 
HETATM    2  C   UNL     1     -40.279 -47.956  11.892  1.00  0.00     0.240 C 
HETATM    3  O   UNL     1     -41.038 -48.378  11.022  1.00  0.00    -0.271 OA
HETATM    4  H   UNL     1     -38.527 -48.241  12.950  1.00  0.00     0.162 HD
ENDROOT
BRANCH   1   5
HETATM    5  C   UNL     1     -38.785 -49.929  11.654  1.00  0.00     0.086 C 
HETATM    6  C   UNL     1     -37.355 -49.908  11.127  1.00  0.00     0.032 C 
BRANCH   5   7
HETATM    7  C   UNL     1     -39.029 -51.027  12.713  1.00  0.00     0.083 C 
BRANCH   7   8
HETATM    8  C   UNL     1     -40.305 -51.771  12.500  1.00  0.00     0.029 A 
HETATM    9  C   UNL     1     -40.946 -52.673  13.382  1.00  0.00     0.052 A 
HETATM   10  C   UNL     1     -42.111 -53.033  12.742  1.00  0.00     0.024 A 
HETATM   11  C   UNL     1     -43.231 -53.913  13.141  1.00  0.00     0.070 C 
HETATM   12  N   UNL     1     -42.091 -52.376  11.544  1.00  0.00    -0.305 N 
HETATM   13  N   UNL     1     -41.001 -51.612  11.367  1.00  0.00    -0.305 N 
HETATM   14  H   UNL     1     -42.789 -52.394  10.808  1.00  0.00     0.186 HD
ATOM     15  HN  UNL     1     -40.759 -51.042  10.556  1.00  0.00     0.186 HD
ENDBRANCH   7   8
ENDBRANCH   5   7
ENDBRANCH   1   5
BRANCH   2  16
HETATM   16  C   UNL     1     -40.543 -46.663  12.704  1.00  0.00     0.168 C 
HETATM   17  C   UNL     1     -39.253 -46.266  13.438  1.00  0.00     0.042 C 
BRANCH  16  18
HETATM   18  N   UNL     1     -41.099 -45.548  11.905  1.00  0.00    -0.392 N 
HETATM   19  C   UNL     1     -40.181 -44.517  11.407  1.00  0.00     0.076 C 
HETATM   20  C   UNL     1     -39.455 -44.958  10.138  1.00  0.00     0.032 C 
HETATM   21  C   UNL     1     -41.056 -43.289  11.134  1.00  0.00     0.026 C 
HETATM   22  C   UNL     1     -42.481 -43.777  11.313  1.00  0.00     0.026 C 
HETATM   23  C   UNL     1     -42.357 -44.916  12.323  1.00  0.00     0.076 C 
HETATM   24  C   UNL     1     -42.410 -44.367  13.749  1.00  0.00     0.032 C 
ENDBRANCH  16  18
ENDBRANCH   2  16
TORSDOF 5
ENDMDL
MODEL 4
REMARK VINA RESULT:      -6.4      2.967      6.957
REMARK  5 active torsions:
REMARK  status: ('A' for Active; 'I' for Inactive)
REMARK    1  A    between atoms: C_2  and  C_3 
REMARK    2  A    between atoms: C_2  and  N_11 
REMARK    3  A    between atoms: C_3  and  C_4 
REMARK       I    between atoms: N_11  and  C_12 
REMARK    4  A    between atoms: C_12  and  C_14 
REMARK    5  A    between atoms: C_14  and  N_16 
ROOT
HETATM    1  N   UNL     1     -39.553 -48.380  11.453  1.00  0.00    -0.355 N 
HETATM    2  C   UNL     1     -40.823 -48.027  11.052  1.00  0.00     0.240 C 
HETATM    3  O   UNL     1     -41.594 -48.847  10.559  1.00  0.00    -0.271 OA
HETATM    4  H   UNL     1     -38.965 -47.678  11.885  1.00  0.00     0.162 HD
ENDROOT
BRANCH   1   5
HETATM    5  C   UNL     1     -39.117 -49.780  11.494  1.00  0.00     0.086 C 
HETATM    6  C   UNL     1     -37.605 -49.826  11.314  1.00  0.00     0.032 C 
BRANCH   5   7
HETATM    7  C   UNL     1     -39.598 -50.459  12.796  1.00  0.00     0.083 C 
BRANCH   7   8
HETATM    8  C   UNL     1     -40.656 -51.485  12.564  1.00  0.00     0.029 A 
HETATM    9  C   UNL     1     -41.345 -52.259  13.527  1.00  0.00     0.052 A 
HETATM   10  C   UNL     1     -42.252 -53.003  12.806  1.00  0.00     0.024 A 
HETATM   11  C   UNL     1     -43.288 -53.977  13.217  1.00  0.00     0.070 C 
HETATM   12  N   UNL     1     -42.045 -52.669  11.497  1.00  0.00    -0.305 N 
HETATM   13  N   UNL     1     -41.074 -51.759  11.321  1.00  0.00    -0.305 N 
HETATM   14  H   UNL     1     -42.533 -53.014  10.678  1.00  0.00     0.186 HD
ATOM     15  HN  UNL     1     -40.733 -51.365  10.443  1.00  0.00     0.186 HD
ENDBRANCH   7   8
ENDBRANCH   5   7
ENDBRANCH   1   5
BRANCH   2  16
HETATM   16  C   UNL     1     -41.179 -46.532  11.251  1.00  0.00     0.168 C 
HETATM   17  C   UNL     1     -42.646 -46.426  11.694  1.00  0.00     0.042 C 
BRANCH  16  18
HETATM   18  N   UNL     1     -40.265 -45.807  12.163  1.00  0.00    -0.392 N 
HETATM   19  C   UNL     1     -40.697 -45.569  13.545  1.00  0.00     0.076 C 
HETATM   20  C   UNL     1     -40.483 -46.793  14.433  1.00  0.00     0.032 C 
HETATM   21  C   UNL     1     -39.856 -44.387  14.037  1.00  0.00     0.026 C 
HETATM   22  C   UNL     1     -38.837 -44.147  12.940  1.00  0.00     0.026 C 
HETATM   23  C   UNL     1     -39.540 -44.628  11.672  1.00  0.00     0.076 C 
HETATM   24  C   UNL     1     -40.383 -43.501  11.075  1.00  0.00     0.032 C 
ENDBRANCH  16  18
ENDBRANCH   2  16
TORSDOF 5
ENDMDL
MODEL 5
REMARK VINA RESULT:      -6.3      2.515      4.355
REMARK  5 active torsions:
REMARK  status: ('A' for Active; 'I' for Inactive)
REMARK    1  A    between atoms: C_2  and  C_3 
REMARK    2  A    between atoms: C_2  and  N_11 
REMARK    3  A    between atoms: C_3  and  C_4 
REMARK       I    between atoms: N_11  and  C_12 
REMARK    4  A    between atoms: C_12  and  C_14 
REMARK    5  A    between atoms: C_14  and  N_16 
ROOT
HETATM    1  N   UNL     1     -42.009 -54.450  15.231  1.00  0.00    -0.355 N 
HETATM    2  C   UNL     1     -42.800 -53.540  15.898  1.00  0.00     0.240 C 
HETATM    3  O   UNL     1     -42.315 -52.697  16.650  1.00  0.00    -0.271 OA
HETATM    4  H   UNL     1     -42.449 -55.105  14.595  1.00  0.00     0.162 HD
ENDROOT
BRANCH   1   5
HETATM    5  C   UNL     1     -40.546 -54.347  15.226  1.00  0.00     0.086 C 
HETATM    6  C   UNL     1     -39.976 -55.437  16.125  1.00  0.00     0.032 C 
BRANCH   5   7
HETATM    7  C   UNL     1     -40.004 -54.402  13.780  1.00  0.00     0.083 C 
BRANCH   7   8
HETATM    8  C   UNL     1     -40.506 -53.288  12.924  1.00  0.00     0.029 A 
HETATM    9  C   UNL     1     -40.670 -51.926  13.275  1.00  0.00     0.052 A 
HETATM   10  C   UNL     1     -41.101 -51.310  12.121  1.00  0.00     0.024 A 
HETATM   11  C   UNL     1     -41.418 -49.898  11.809  1.00  0.00     0.070 C 
HETATM   12  N   UNL     1     -41.196 -52.302  11.186  1.00  0.00    -0.305 N 
HETATM   13  N   UNL     1     -40.851 -53.514  11.651  1.00  0.00    -0.305 N 
HETATM   14  H   UNL     1     -41.478 -52.223  10.215  1.00  0.00     0.186 HD
ATOM     15  HN  UNL     1     -40.853 -54.402  11.149  1.00  0.00     0.186 HD
ENDBRANCH   7   8
ENDBRANCH   5   7
ENDBRANCH   1   5
BRANCH   2  16
HETATM   16  C   UNL     1     -44.320 -53.684  15.641  1.00  0.00     0.168 C 
HETATM   17  C   UNL     1     -45.033 -53.896  16.986  1.00  0.00     0.042 C 
BRANCH  16  18
HETATM   18  N   UNL     1     -44.913 -52.572  14.864  1.00  0.00    -0.392 N 
HETATM   19  C   UNL     1     -46.373 -52.425  14.850  1.00  0.00     0.076 C 
HETATM   20  C   UNL     1     -46.891 -51.720  16.103  1.00  0.00     0.032 C 
HETATM   21  C   UNL     1     -46.688 -51.605  13.595  1.00  0.00     0.026 C 
HETATM   22  C   UNL     1     -45.338 -51.161  13.067  1.00  0.00     0.026 C 
HETATM   23  C   UNL     1     -44.382 -52.259  13.531  1.00  0.00     0.076 C 
HETATM   24  C   UNL     1     -44.355 -53.400  12.516  1.00  0.00     0.032 C 
ENDBRANCH  16  18
ENDBRANCH   2  16
TORSDOF 5
ENDMDL
MODEL 6
REMARK VINA RESULT:      -6.1      2.390      6.123
REMARK  5 active torsions:
REMARK  status: ('A' for Active; 'I' for Inactive)
REMARK    1  A    between atoms: C_2  and  C_3 
REMARK    2  A    between atoms: C_2  and  N_11 
REMARK    3  A    between atoms: C_3  and  C_4 
REMARK       I    between atoms: N_11  and  C_12 
REMARK    4  A    between atoms: C_12  and  C_14 
REMARK    5  A    between atoms: C_14  and  N_16 
ROOT
HETATM    1  N   UNL     1     -44.282 -50.714  12.880  1.00  0.00    -0.355 N 
HETATM    2  C   UNL     1     -43.640 -49.999  13.868  1.00  0.00     0.240 C 
HETATM    3  O   UNL     1     -43.837 -50.229  15.059  1.00  0.00    -0.271 OA
HETATM    4  H   UNL     1     -44.063 -50.512  11.912  1.00  0.00     0.162 HD
ENDROOT
BRANCH   1   5
HETATM    5  C   UNL     1     -45.082 -51.905  13.182  1.00  0.00     0.086 C 
HETATM    6  C   UNL     1     -46.537 -51.618  12.835  1.00  0.00     0.032 C 
BRANCH   5   7
HETATM    7  C   UNL     1     -44.511 -53.141  12.451  1.00  0.00     0.083 C 
BRANCH   7   8
HETATM    8  C   UNL     1     -43.024 -53.228  12.523  1.00  0.00     0.029 A 
HETATM    9  C   UNL     1     -42.233 -53.792  13.553  1.00  0.00     0.052 A 
HETATM   10  C   UNL     1     -40.934 -53.674  13.111  1.00  0.00     0.024 A 
HETATM   11  C   UNL     1     -39.644 -54.098  13.699  1.00  0.00     0.070 C 
HETATM   12  N   UNL     1     -41.012 -53.044  11.902  1.00  0.00    -0.305 N 
HETATM   13  N   UNL     1     -42.267 -52.752  11.526  1.00  0.00    -0.305 N 
HETATM   14  H   UNL     1     -40.253 -52.792  11.277  1.00  0.00     0.186 HD
ATOM     15  HN  UNL     1     -42.574 -52.276  10.677  1.00  0.00     0.186 HD
ENDBRANCH   7   8
ENDBRANCH   5   7
ENDBRANCH   1   5
BRANCH   2  16
HETATM   16  C   UNL     1     -42.687 -48.890  13.357  1.00  0.00     0.168 C 
HETATM   17  C   UNL     1     -42.545 -47.817  14.448  1.00  0.00     0.042 C 
BRANCH  16  18
HETATM   18  N   UNL     1     -41.374 -49.387  12.887  1.00  0.00    -0.392 N 
HETATM   19  C   UNL     1     -40.221 -49.285  13.790  1.00  0.00     0.076 C 
HETATM   20  C   UNL     1     -40.193 -50.417  14.815  1.00  0.00     0.032 C 
HETATM   21  C   UNL     1     -38.987 -49.341  12.883  1.00  0.00     0.026 C 
HETATM   22  C   UNL     1     -39.528 -49.676  11.506  1.00  0.00     0.026 C 
HETATM   23  C   UNL     1     -40.941 -49.096  11.514  1.00  0.00     0.076 C 
HETATM   24  C   UNL     1     -40.912 -47.626  11.098  1.00  0.00     0.032 C 
ENDBRANCH  16  18
ENDBRANCH   2  16
TORSDOF 5
ENDMDL
MODEL 7
REMARK VINA RESULT:      -6.1      1.770      3.972
REMARK  5 active torsions:
REMARK  status: ('A' for Active; 'I' for Inactive)
REMARK    1  A    between atoms: C_2  and  C_3 
REMARK    2  A    between atoms: C_2  and  N_11 
REMARK    3  A    between atoms: C_3  and  C_4 
REMARK       I    between atoms: N_11  and  C_12 
REMARK    4  A    between atoms: C_12  and  C_14 
REMARK    5  A    between atoms: C_14  and  N_16 
ROOT
HETATM    1  N   UNL     1     -43.047 -49.735  12.667  1.00  0.00    -0.355 N 
HETATM    2  C   UNL     1     -42.648 -51.051  12.770  1.00  0.00     0.240 C 
HETATM    3  O   UNL     1     -41.952 -51.582  11.906  1.00  0.00    -0.271 OA
HETATM    4  H   UNL     1     -43.591 -49.330  13.419  1.00  0.00     0.162 HD
ENDROOT
BRANCH   1   5
HETATM    5  C   UNL     1     -42.512 -48.844  11.631  1.00  0.00     0.086 C 
HETATM    6  C   UNL     1     -43.598 -47.852  11.233  1.00  0.00     0.032 C 
BRANCH   5   7
HETATM    7  C   UNL     1     -41.213 -48.165  12.119  1.00  0.00     0.083 C 
BRANCH   7   8
HETATM    8  C   UNL     1     -40.006 -49.026  11.953  1.00  0.00     0.029 A 
HETATM    9  C   UNL     1     -39.063 -49.404  12.938  1.00  0.00     0.052 A 
HETATM   10  C   UNL     1     -38.185 -50.245  12.290  1.00  0.00     0.024 A 
HETATM   11  C   UNL     1     -37.004 -51.000  12.761  1.00  0.00     0.070 C 
HETATM   12  N   UNL     1     -38.617 -50.300  10.994  1.00  0.00    -0.305 N 
HETATM   13  N   UNL     1     -39.713 -49.560  10.760  1.00  0.00    -0.305 N 
HETATM   14  H   UNL     1     -38.220 -50.826  10.224  1.00  0.00     0.186 HD
ATOM     15  HN  UNL     1     -40.209 -49.434   9.877  1.00  0.00     0.186 HD
ENDBRANCH   7   8
ENDBRANCH   5   7
ENDBRANCH   1   5
BRANCH   2  16
HETATM   16  C   UNL     1     -43.161 -51.792  14.030  1.00  0.00     0.168 C 
HETATM   17  C   UNL     1     -43.607 -50.752  15.069  1.00  0.00     0.042 C 
BRANCH  16  18
HETATM   18  N   UNL     1     -44.212 -52.797  13.757  1.00  0.00    -0.392 N 
HETATM   19  C   UNL     1     -45.569 -52.547  14.258  1.00  0.00     0.076 C 
HETATM   20  C   UNL     1     -46.351 -51.599  13.350  1.00  0.00     0.032 C 
HETATM   21  C   UNL     1     -46.242 -53.922  14.318  1.00  0.00     0.026 C 
HETATM   22  C   UNL     1     -45.264 -54.866  13.645  1.00  0.00     0.026 C 
HETATM   23  C   UNL     1     -43.900 -54.225  13.897  1.00  0.00     0.076 C 
HETATM   24  C   UNL     1     -43.344 -54.679  15.246  1.00  0.00     0.032 C 
ENDBRANCH  16  18
ENDBRANCH   2  16
TORSDOF 5
ENDMDL
MODEL 8
REMARK VINA RESULT:      -5.9      1.729      2.509
REMARK  5 active torsions:
REMARK  status: ('A' for Active; 'I' for Inactive)
REMARK    1  A    between atoms: C_2  and  C_3 
REMARK    2  A    between atoms: C_2  and  N_11 
REMARK    3  A    between atoms: C_3  and  C_4 
REMARK       I    between atoms: N_11  and  C_12 
REMARK    4  A    between atoms: C_12  and  C_14 
REMARK    5  A    between atoms: C_14  and  N_16 
ROOT
HETATM    1  N   UNL     1     -42.186 -50.555  11.921  1.00  0.00    -0.355 N 
HETATM    2  C   UNL     1     -42.449 -51.286  13.060  1.00  0.00     0.240 C 
HETATM    3  O   UNL     1     -41.782 -51.144  14.083  1.00  0.00    -0.271 OA
HETATM    4  H   UNL     1     -42.783 -50.681  11.113  1.00  0.00     0.162 HD
ENDROOT
BRANCH   1   5
HETATM    5  C   UNL     1     -41.234 -49.440  11.921  1.00  0.00     0.086 C 
HETATM    6  C   UNL     1     -39.909 -49.929  11.347  1.00  0.00     0.032 C 
BRANCH   5   7
HETATM    7  C   UNL     1     -41.818 -48.228  11.161  1.00  0.00     0.083 C 
BRANCH   7   8
HETATM    8  C   UNL     1     -40.989 -46.996  11.300  1.00  0.00     0.029 A 
HETATM    9  C   UNL     1     -40.578 -46.352  12.492  1.00  0.00     0.052 A 
HETATM   10  C   UNL     1     -39.788 -45.303  12.077  1.00  0.00     0.024 A 
HETATM   11  C   UNL     1     -39.030 -44.276  12.825  1.00  0.00     0.070 C 
HETATM   12  N   UNL     1     -39.793 -45.355  10.712  1.00  0.00    -0.305 N 
HETATM   13  N   UNL     1     -40.523 -46.366  10.214  1.00  0.00    -0.305 N 
HETATM   14  H   UNL     1     -39.315 -44.743  10.060  1.00  0.00     0.186 HD
ATOM     15  HN  UNL     1     -40.686 -46.600   9.234  1.00  0.00     0.186 HD
ENDBRANCH   7   8
ENDBRANCH   5   7
ENDBRANCH   1   5
BRANCH   2  16
HETATM   16  C   UNL     1     -43.616 -52.296  12.933  1.00  0.00     0.168 C 
HETATM   17  C   UNL     1     -43.053 -53.721  13.042  1.00  0.00     0.042 C 
BRANCH  16  18
HETATM   18  N   UNL     1     -44.728 -52.060  13.881  1.00  0.00    -0.392 N 
HETATM   19  C   UNL     1     -45.107 -53.139  14.801  1.00  0.00     0.076 C 
HETATM   20  C   UNL     1     -44.188 -53.204  16.020  1.00  0.00     0.032 C 
HETATM   21  C   UNL     1     -46.547 -52.830  15.222  1.00  0.00     0.026 C 
HETATM   22  C   UNL     1     -46.835 -51.454  14.652  1.00  0.00     0.026 C 
HETATM   23  C   UNL     1     -45.940 -51.372  13.417  1.00  0.00     0.076 C 
HETATM   24  C   UNL     1     -46.653 -51.975  12.207  1.00  0.00     0.032 C 
ENDBRANCH  16  18
ENDBRANCH   2  16
TORSDOF 5
ENDMDL
MODEL 9
REMARK VINA RESULT:      -5.8      3.054      6.338
REMARK  5 active torsions:
REMARK  status: ('A' for Active; 'I' for Inactive)
REMARK    1  A    between atoms: C_2  and  C_3 
REMARK    2  A    between atoms: C_2  and  N_11 
REMARK    3  A    between atoms: C_3  and  C_4 
REMARK       I    between atoms: N_11  and  C_12 
REMARK    4  A    between atoms: C_12  and  C_14 
REMARK    5  A    between atoms: C_14  and  N_16 
ROOT
HETATM    1  N   UNL     1     -41.225 -52.809  14.329  1.00  0.00    -0.355 N 
HETATM    2  C   UNL     1     -40.066 -52.756  13.584  1.00  0.00     0.240 C 
HETATM    3  O   UNL     1     -39.197 -53.619  13.684  1.00  0.00    -0.271 OA
HETATM    4  H   UNL     1     -41.928 -52.094  14.188  1.00  0.00     0.162 HD
ENDROOT
BRANCH   1   5
HETATM    5  C   UNL     1     -41.574 -53.985  15.132  1.00  0.00     0.086 C 
HETATM    6  C   UNL     1     -41.931 -53.526  16.541  1.00  0.00     0.032 C 
BRANCH   5   7
HETATM    7  C   UNL     1     -42.700 -54.793  14.449  1.00  0.00     0.083 C 
BRANCH   7   8
HETATM    8  C   UNL     1     -43.680 -53.933  13.724  1.00  0.00     0.029 A 
HETATM    9  C   UNL     1     -44.692 -53.111  14.275  1.00  0.00     0.052 A 
HETATM   10  C   UNL     1     -45.274 -52.486  13.194  1.00  0.00     0.024 A 
HETATM   11  C   UNL     1     -46.358 -51.485  13.091  1.00  0.00     0.070 C 
HETATM   12  N   UNL     1     -44.623 -52.972  12.094  1.00  0.00    -0.305 N 
HETATM   13  N   UNL     1     -43.659 -53.860  12.387  1.00  0.00    -0.305 N 
HETATM   14  H   UNL     1     -44.778 -52.736  11.120  1.00  0.00     0.186 HD
ATOM     15  HN  UNL     1     -43.051 -54.363  11.740  1.00  0.00     0.186 HD
ENDBRANCH   7   8
ENDBRANCH   5   7
ENDBRANCH   1   5
BRANCH   2  16
HETATM   16  C   UNL     1     -39.947 -51.527  12.648  1.00  0.00     0.168 C 
HETATM   17  C   UNL     1     -41.340 -51.186  12.098  1.00  0.00     0.042 C 
BRANCH  16  18
HETATM   18  N   UNL     1     -39.287 -50.355  13.266  1.00  0.00    -0.392 N 
HETATM   19  C   UNL     1     -40.068 -49.126  13.449  1.00  0.00     0.076 C 
HETATM   20  C   UNL     1     -40.949 -49.186  14.695  1.00  0.00     0.032 C 
HETATM   21  C   UNL     1     -39.036 -48.000  13.567  1.00  0.00     0.026 C 
HETATM   22  C   UNL     1     -37.694 -48.705  13.640  1.00  0.00     0.026 C 
HETATM   23  C   UNL     1     -37.918 -50.004  12.868  1.00  0.00     0.076 C 
HETATM   24  C   UNL     1     -37.671 -49.780  11.376  1.00  0.00     0.032 C 
ENDBRANCH  16  18
ENDBRANCH   2  16
TORSDOF 5
ENDMDL
