MODEL 1
REMARK VINA RESULT:      -5.8      0.000      0.000
REMARK  6 active torsions:
REMARK  status: ('A' for Active; 'I' for Inactive)
REMARK    1  A    between atoms: C_2  and  C_3 
REMARK    2  A    between atoms: C_2  and  N_11 
REMARK    3  A    between atoms: C_3  and  N_4 
REMARK    4  A    between atoms: N_11  and  C_12 
REMARK    5  A    between atoms: C_12  and  C_13 
REMARK    6  A    between atoms: C_13  and  N_14 
ROOT
HETATM    1  N   UNL     1     -41.323 -52.626  12.752  1.00  0.00     0.090 N 
HETATM    2  H   UNL     1     -41.023 -52.857  11.803  1.00  0.00     0.316 HD
ENDROOT
BRANCH   1   3
HETATM    3  C   UNL     1     -40.204 -51.982  13.476  1.00  0.00     0.236 C 
HETATM    4  C   UNL     1     -39.210 -53.017  14.025  1.00  0.00     0.044 C 
BRANCH   3   5
HETATM    5  C   UNL     1     -39.507 -50.983  12.527  1.00  0.00     0.183 C 
BRANCH   5   6
HETATM    6  N   UNL     1     -40.392 -49.962  11.999  1.00  0.00    -0.301 N 
HETATM    7  C   UNL     1     -41.178 -49.110  12.722  1.00  0.00     0.118 A 
HETATM    8  C   UNL     1     -41.804 -48.288  11.809  1.00  0.00    -0.028 A 
HETATM    9  C   UNL     1     -42.743 -47.174  12.069  1.00  0.00     0.051 C 
HETATM   10  C   UNL     1     -41.334 -48.746  10.558  1.00  0.00     0.115 A 
HETATM   11  N   UNL     1     -40.475 -49.761  10.671  1.00  0.00    -0.310 N 
ATOM     12  HN  UNL     1     -39.995 -50.266   9.926  1.00  0.00     0.186 HD
ENDBRANCH   5   6
ENDBRANCH   3   5
ENDBRANCH   1   3
BRANCH   1  13
HETATM   13  C   UNL     1     -41.843 -53.844  13.384  1.00  0.00     0.290 C 
BRANCH  13  14
HETATM   14  C   UNL     1     -42.905 -53.642  14.489  1.00  0.00     0.166 C 
BRANCH  14  15
HETATM   15  N   UNL     1     -44.206 -53.423  13.887  1.00  0.00    -0.266 N 
HETATM   16  C   UNL     1     -45.222 -54.330  13.864  1.00  0.00     0.326 C 
HETATM   17  O   UNL     1     -45.202 -55.489  14.241  1.00  0.00    -0.247 OA
HETATM   18  N   UNL     1     -46.347 -53.700  13.368  1.00  0.00    -0.325 N 
HETATM   19  C   UNL     1     -46.180 -52.266  13.380  1.00  0.00     0.108 C 
HETATM   20  H   UNL     1     -47.237 -54.183  13.410  1.00  0.00     0.165 HD
HETATM   21  C   UNL     1     -46.749 -51.585  12.151  1.00  0.00     0.049 C 
HETATM   22  C   UNL     1     -46.736 -51.675  14.679  1.00  0.00     0.049 C 
HETATM   23  C   UNL     1     -44.653 -52.193  13.483  1.00  0.00     0.255 C 
HETATM   24  O   UNL     1     -43.983 -51.173  13.387  1.00  0.00    -0.270 OA
ENDBRANCH  14  15
ENDBRANCH  13  14
ENDBRANCH   1  13
TORSDOF 6
ENDMDL
MODEL 2
REMARK VINA RESULT:      -5.8      3.064      6.396
REMARK  6 active torsions:
REMARK  status: ('A' for Active; 'I' for Inactive)
REMARK    1  A    between atoms: C_2  and  C_3 
REMARK    2  A    between atoms: C_2  and  N_11 
REMARK    3  A    between atoms: C_3  and  N_4 
REMARK    4  A    between atoms: N_11  and  C_12 
REMARK    5  A    between atoms: C_12  and  C_13 
REMARK    6  A    between atoms: C_13  and  N_14 
ROOT
HETATM    1  N   UNL     1     -40.508 -48.655  10.805  1.00  0.00     0.090 N 
HETATM    2  H   UNL     1     -41.509 -48.856  10.845  1.00  0.00     0.316 HD
ENDROOT
BRANCH   1   3
HETATM    3  C   UNL     1     -39.766 -49.710  11.530  1.00  0.00     0.236 C 
HETATM    4  C   UNL     1     -38.290 -49.333  11.733  1.00  0.00     0.044 C 
BRANCH   3   5
HETATM    5  C   UNL     1     -40.468 -49.974  12.879  1.00  0.00     0.183 C 
BRANCH   5   6
HETATM    6  N   UNL     1     -41.245 -51.199  12.907  1.00  0.00    -0.301 N 
HETATM    7  C   UNL     1     -41.114 -52.229  13.795  1.00  0.00     0.118 A 
HETATM    8  C   UNL     1     -42.086 -53.151  13.469  1.00  0.00    -0.028 A 
HETATM    9  C   UNL     1     -42.392 -54.436  14.135  1.00  0.00     0.051 C 
HETATM   10  C   UNL     1     -42.736 -52.582  12.352  1.00  0.00     0.115 A 
HETATM   11  N   UNL     1     -42.228 -51.396  12.009  1.00  0.00    -0.310 N 
ATOM     12  HN  UNL     1     -42.518 -50.783  11.247  1.00  0.00     0.186 HD
ENDBRANCH   5   6
ENDBRANCH   3   5
ENDBRANCH   1   3
BRANCH   1  13
HETATM   13  C   UNL     1     -40.288 -47.294  11.308  1.00  0.00     0.290 C 
BRANCH  13  14
HETATM   14  C   UNL     1     -41.469 -46.644  12.064  1.00  0.00     0.166 C 
BRANCH  14  15
HETATM   15  N   UNL     1     -42.583 -46.444  11.157  1.00  0.00    -0.266 N 
HETATM   16  C   UNL     1     -42.759 -45.353  10.360  1.00  0.00     0.326 C 
HETATM   17  O   UNL     1     -42.097 -44.330  10.331  1.00  0.00    -0.247 OA
HETATM   18  N   UNL     1     -43.825 -45.605   9.518  1.00  0.00    -0.325 N 
HETATM   19  C   UNL     1     -44.152 -47.012   9.510  1.00  0.00     0.108 C 
HETATM   20  H   UNL     1     -44.013 -44.959   8.760  1.00  0.00     0.165 HD
HETATM   21  C   UNL     1     -45.643 -47.282   9.485  1.00  0.00     0.049 C 
HETATM   22  C   UNL     1     -43.415 -47.724   8.372  1.00  0.00     0.049 C 
HETATM   23  C   UNL     1     -43.463 -47.435  10.812  1.00  0.00     0.255 C 
HETATM   24  O   UNL     1     -43.563 -48.534  11.342  1.00  0.00    -0.270 OA
ENDBRANCH  14  15
ENDBRANCH  13  14
ENDBRANCH   1  13
TORSDOF 6
ENDMDL
MODEL 3
REMARK VINA RESULT:      -5.7      2.418      4.212
REMARK  6 active torsions:
REMARK  status: ('A' for Active; 'I' for Inactive)
REMARK    1  A    between atoms: C_2  and  C_3 
REMARK    2  A    between atoms: C_2  and  N_11 
REMARK    3  A    between atoms: C_3  and  N_4 
REMARK    4  A    between atoms: N_11  and  C_12 
REMARK    5  A    between atoms: C_12  and  C_13 
REMARK    6  A    between atoms: C_13  and  N_14 
ROOT
HETATM    1  N   UNL     1     -41.196 -48.421  12.884  1.00  0.00     0.090 N 
HETATM    2  H   UNL     1     -41.370 -48.168  13.859  1.00  0.00     0.316 HD
ENDROOT
BRANCH   1   3
HETATM    3  C   UNL     1     -41.745 -47.369  11.998  1.00  0.00     0.236 C 
HETATM    4  C   UNL     1     -41.056 -46.015  12.227  1.00  0.00     0.044 C 
BRANCH   3   5
HETATM    5  C   UNL     1     -41.602 -47.831  10.532  1.00  0.00     0.183 C 
BRANCH   5   6
HETATM    6  N   UNL     1     -42.834 -47.747   9.769  1.00  0.00    -0.301 N 
HETATM    7  C   UNL     1     -44.067 -47.402  10.245  1.00  0.00     0.118 A 
HETATM    8  C   UNL     1     -44.919 -47.410   9.161  1.00  0.00    -0.028 A 
HETATM    9  C   UNL     1     -46.362 -47.084   9.125  1.00  0.00     0.051 C 
HETATM   10  C   UNL     1     -44.094 -47.794   8.080  1.00  0.00     0.115 A 
HETATM   11  N   UNL     1     -42.827 -47.997   8.447  1.00  0.00    -0.310 N 
ATOM     12  HN  UNL     1     -42.039 -48.277   7.862  1.00  0.00     0.186 HD
ENDBRANCH   5   6
ENDBRANCH   3   5
ENDBRANCH   1   3
BRANCH   1  13
HETATM   13  C   UNL     1     -41.739 -49.765  12.650  1.00  0.00     0.290 C 
BRANCH  13  14
HETATM   14  C   UNL     1     -41.539 -50.792  13.788  1.00  0.00     0.166 C 
BRANCH  14  15
HETATM   15  N   UNL     1     -42.155 -52.054  13.426  1.00  0.00    -0.266 N 
HETATM   16  C   UNL     1     -41.565 -53.025  12.673  1.00  0.00     0.326 C 
HETATM   17  O   UNL     1     -40.491 -52.982  12.099  1.00  0.00    -0.247 OA
HETATM   18  N   UNL     1     -42.384 -54.138  12.693  1.00  0.00    -0.325 N 
HETATM   19  C   UNL     1     -43.365 -54.034  13.749  1.00  0.00     0.108 C 
HETATM   20  H   UNL     1     -42.039 -55.006  12.302  1.00  0.00     0.165 HD
HETATM   21  C   UNL     1     -44.735 -54.542  13.346  1.00  0.00     0.049 C 
HETATM   22  C   UNL     1     -42.849 -54.708  15.024  1.00  0.00     0.049 C 
HETATM   23  C   UNL     1     -43.307 -52.523  13.997  1.00  0.00     0.255 C 
HETATM   24  O   UNL     1     -44.068 -51.893  14.719  1.00  0.00    -0.270 OA
ENDBRANCH  14  15
ENDBRANCH  13  14
ENDBRANCH   1  13
TORSDOF 6
ENDMDL
MODEL 4
REMARK VINA RESULT:      -5.6      3.419      5.282
REMARK  6 active torsions:
REMARK  status: ('A' for Active; 'I' for Inactive)
REMARK    1  A    between atoms: C_2  and  C_3 
REMARK    2  A    between atoms: C_2  and  N_11 
REMARK    3  A    between atoms: C_3  and  N_4 
REMARK    4  A    between atoms: N_11  and  C_12 
REMARK    5  A    between atoms: C_12  and  C_13 
REMARK    6  A    between atoms: C_13  and  N_14 
ROOT
HETATM    1  N   UNL     1     -39.900 -49.137  11.127  1.00  0.00     0.090 N 
HETATM    2  H   UNL     1     -39.451 -48.334  10.681  1.00  0.00     0.316 HD
ENDROOT
BRANCH   1   3
HETATM    3  C   UNL     1     -41.348 -48.866  11.278  1.00  0.00     0.236 C 
HETATM    4  C   UNL     1     -41.765 -48.804  12.755  1.00  0.00     0.044 C 
BRANCH   3   5
HETATM    5  C   UNL     1     -41.687 -47.552  10.543  1.00  0.00     0.183 C 
BRANCH   5   6
HETATM    6  N   UNL     1     -42.902 -47.618   9.753  1.00  0.00    -0.301 N 
HETATM    7  C   UNL     1     -44.175 -47.390  10.193  1.00  0.00     0.118 A 
HETATM    8  C   UNL     1     -44.997 -47.517   9.093  1.00  0.00    -0.028 A 
HETATM    9  C   UNL     1     -46.464 -47.345   9.018  1.00  0.00     0.051 C 
HETATM   10  C   UNL     1     -44.112 -47.843   8.041  1.00  0.00     0.115 A 
HETATM   11  N   UNL     1     -42.839 -47.903   8.439  1.00  0.00    -0.310 N 
ATOM     12  HN  UNL     1     -42.013 -48.116   7.879  1.00  0.00     0.186 HD
ENDBRANCH   5   6
ENDBRANCH   3   5
ENDBRANCH   1   3
BRANCH   1  13
HETATM   13  C   UNL     1     -39.195 -49.425  12.382  1.00  0.00     0.290 C 
BRANCH  13  14
HETATM   14  C   UNL     1     -38.418 -50.760  12.439  1.00  0.00     0.166 C 
BRANCH  14  15
HETATM   15  N   UNL     1     -39.020 -51.638  13.424  1.00  0.00    -0.266 N 
HETATM   16  C   UNL     1     -38.781 -51.591  14.765  1.00  0.00     0.326 C 
HETATM   17  O   UNL     1     -37.974 -50.899  15.360  1.00  0.00    -0.247 OA
HETATM   18  N   UNL     1     -39.663 -52.454  15.387  1.00  0.00    -0.325 N 
HETATM   19  C   UNL     1     -40.734 -52.826  14.492  1.00  0.00     0.108 C 
HETATM   20  H   UNL     1     -39.725 -52.445  16.398  1.00  0.00     0.165 HD
HETATM   21  C   UNL     1     -41.131 -54.284  14.605  1.00  0.00     0.049 C 
HETATM   22  C   UNL     1     -41.929 -51.885  14.671  1.00  0.00     0.049 C 
HETATM   23  C   UNL     1     -40.083 -52.458  13.155  1.00  0.00     0.255 C 
HETATM   24  O   UNL     1     -40.539 -52.715  12.049  1.00  0.00    -0.270 OA
ENDBRANCH  14  15
ENDBRANCH  13  14
ENDBRANCH   1  13
TORSDOF 6
ENDMDL
MODEL 5
REMARK VINA RESULT:      -5.5      2.537      5.951
REMARK  6 active torsions:
REMARK  status: ('A' for Active; 'I' for Inactive)
REMARK    1  A    between atoms: C_2  and  C_3 
REMARK    2  A    between atoms: C_2  and  N_11 
REMARK    3  A    between atoms: C_3  and  N_4 
REMARK    4  A    between atoms: N_11  and  C_12 
REMARK    5  A    between atoms: C_12  and  C_13 
REMARK    6  A    between atoms: C_13  and  N_14 
ROOT
HETATM    1  N   UNL     1     -44.061 -50.526  12.716  1.00  0.00     0.090 N 
HETATM    2  H   UNL     1     -44.702 -49.921  12.199  1.00  0.00     0.316 HD
ENDROOT
BRANCH   1   3
HETATM    3  C   UNL     1     -44.799 -51.709  13.216  1.00  0.00     0.236 C 
HETATM    4  C   UNL     1     -46.316 -51.558  13.022  1.00  0.00     0.044 C 
BRANCH   3   5
HETATM    5  C   UNL     1     -44.264 -52.967  12.499  1.00  0.00     0.183 C 
BRANCH   5   6
HETATM    6  N   UNL     1     -42.831 -53.153  12.632  1.00  0.00    -0.301 N 
HETATM    7  C   UNL     1     -42.186 -53.854  13.610  1.00  0.00     0.118 A 
HETATM    8  C   UNL     1     -40.842 -53.801  13.308  1.00  0.00    -0.028 A 
HETATM    9  C   UNL     1     -39.712 -54.420  14.035  1.00  0.00     0.051 C 
HETATM   10  C   UNL     1     -40.788 -53.023  12.130  1.00  0.00     0.115 A 
HETATM   11  N   UNL     1     -41.994 -52.630  11.717  1.00  0.00    -0.310 N 
ATOM     12  HN  UNL     1     -42.227 -52.065  10.899  1.00  0.00     0.186 HD
ENDBRANCH   5   6
ENDBRANCH   3   5
ENDBRANCH   1   3
BRANCH   1  13
HETATM   13  C   UNL     1     -43.407 -49.726  13.759  1.00  0.00     0.290 C 
BRANCH  13  14
HETATM   14  C   UNL     1     -41.938 -49.326  13.493  1.00  0.00     0.166 C 
BRANCH  14  15
HETATM   15  N   UNL     1     -41.862 -48.489  12.312  1.00  0.00    -0.266 N 
HETATM   16  C   UNL     1     -41.292 -48.852  11.129  1.00  0.00     0.326 C 
HETATM   17  O   UNL     1     -40.672 -49.871  10.876  1.00  0.00    -0.247 OA
HETATM   18  N   UNL     1     -41.570 -47.869  10.199  1.00  0.00    -0.325 N 
HETATM   19  C   UNL     1     -42.628 -47.004  10.668  1.00  0.00     0.108 C 
HETATM   20  H   UNL     1     -41.344 -48.038   9.226  1.00  0.00     0.165 HD
HETATM   21  C   UNL     1     -42.398 -45.543  10.339  1.00  0.00     0.049 C 
HETATM   22  C   UNL     1     -43.987 -47.504  10.167  1.00  0.00     0.049 C 
HETATM   23  C   UNL     1     -42.567 -47.324  12.165  1.00  0.00     0.255 C 
HETATM   24  O   UNL     1     -43.185 -46.734  13.042  1.00  0.00    -0.270 OA
ENDBRANCH  14  15
ENDBRANCH  13  14
ENDBRANCH   1  13
TORSDOF 6
ENDMDL
MODEL 6
REMARK VINA RESULT:      -5.5      3.832      5.980
REMARK  6 active torsions:
REMARK  status: ('A' for Active; 'I' for Inactive)
REMARK    1  A    between atoms: C_2  and  C_3 
REMARK    2  A    between atoms: C_2  and  N_11 
REMARK    3  A    between atoms: C_3  and  N_4 
REMARK    4  A    between atoms: N_11  and  C_12 
REMARK    5  A    between atoms: C_12  and  C_13 
REMARK    6  A    between atoms: C_13  and  N_14 
ROOT
HETATM    1  N   UNL     1     -41.131 -46.879  12.864  1.00  0.00     0.090 N 
HETATM    2  H   UNL     1     -41.304 -46.016  13.384  1.00  0.00     0.316 HD
ENDROOT
BRANCH   1   3
HETATM    3  C   UNL     1     -41.249 -46.610  11.413  1.00  0.00     0.236 C 
HETATM    4  C   UNL     1     -39.947 -46.041  10.831  1.00  0.00     0.044 C 
BRANCH   3   5
HETATM    5  C   UNL     1     -41.661 -47.915  10.698  1.00  0.00     0.183 C 
BRANCH   5   6
HETATM    6  N   UNL     1     -42.849 -47.784   9.875  1.00  0.00    -0.301 N 
HETATM    7  C   UNL     1     -44.103 -47.451  10.301  1.00  0.00     0.118 A 
HETATM    8  C   UNL     1     -44.896 -47.398   9.174  1.00  0.00    -0.028 A 
HETATM    9  C   UNL     1     -46.333 -47.058   9.077  1.00  0.00     0.051 C 
HETATM   10  C   UNL     1     -44.016 -47.735   8.121  1.00  0.00     0.115 A 
HETATM   11  N   UNL     1     -42.772 -47.968   8.545  1.00  0.00    -0.310 N 
ATOM     12  HN  UNL     1     -41.956 -48.225   7.989  1.00  0.00     0.186 HD
ENDBRANCH   5   6
ENDBRANCH   3   5
ENDBRANCH   1   3
BRANCH   1  13
HETATM   13  C   UNL     1     -42.038 -47.916  13.372  1.00  0.00     0.290 C 
BRANCH  13  14
HETATM   14  C   UNL     1     -41.466 -48.850  14.464  1.00  0.00     0.166 C 
BRANCH  14  15
HETATM   15  N   UNL     1     -40.513 -49.770  13.874  1.00  0.00    -0.266 N 
HETATM   16  C   UNL     1     -40.838 -50.872  13.141  1.00  0.00     0.326 C 
HETATM   17  O   UNL     1     -41.945 -51.335  12.933  1.00  0.00    -0.247 OA
HETATM   18  N   UNL     1     -39.674 -51.389  12.606  1.00  0.00    -0.325 N 
HETATM   19  C   UNL     1     -38.598 -50.429  12.695  1.00  0.00     0.108 C 
HETATM   20  H   UNL     1     -39.738 -52.129  11.917  1.00  0.00     0.165 HD
HETATM   21  C   UNL     1     -37.265 -51.052  13.058  1.00  0.00     0.049 C 
HETATM   22  C   UNL     1     -38.517 -49.598  11.410  1.00  0.00     0.049 C 
HETATM   23  C   UNL     1     -39.173 -49.508  13.777  1.00  0.00     0.255 C 
HETATM   24  O   UNL     1     -38.570 -48.594  14.324  1.00  0.00    -0.270 OA
ENDBRANCH  14  15
ENDBRANCH  13  14
ENDBRANCH   1  13
TORSDOF 6
ENDMDL
MODEL 7
REMARK VINA RESULT:      -5.5      2.411      3.372
REMARK  6 active torsions:
REMARK  status: ('A' for Active; 'I' for Inactive)
REMARK    1  A    between atoms: C_2  and  C_3 
REMARK    2  A    between atoms: C_2  and  N_11 
REMARK    3  A    between atoms: C_3  and  N_4 
REMARK    4  A    between atoms: N_11  and  C_12 
REMARK    5  A    between atoms: C_12  and  C_13 
REMARK    6  A    between atoms: C_13  and  N_14 
ROOT
HETATM    1  N   UNL     1     -42.644 -49.689  11.644  1.00  0.00     0.090 N 
HETATM    2  H   UNL     1     -42.473 -50.600  11.213  1.00  0.00     0.316 HD
ENDROOT
BRANCH   1   3
HETATM    3  C   UNL     1     -41.379 -48.922  11.688  1.00  0.00     0.236 C 
HETATM    4  C   UNL     1     -40.191 -49.751  11.175  1.00  0.00     0.044 C 
BRANCH   3   5
HETATM    5  C   UNL     1     -41.555 -47.626  10.866  1.00  0.00     0.183 C 
BRANCH   5   6
HETATM    6  N   UNL     1     -42.733 -47.625  10.019  1.00  0.00    -0.301 N 
HETATM    7  C   UNL     1     -44.001 -47.275  10.386  1.00  0.00     0.118 A 
HETATM    8  C   UNL     1     -44.778 -47.379   9.251  1.00  0.00    -0.028 A 
HETATM    9  C   UNL     1     -46.220 -47.089   9.096  1.00  0.00     0.051 C 
HETATM   10  C   UNL     1     -43.875 -47.819   8.258  1.00  0.00     0.115 A 
HETATM   11  N   UNL     1     -42.632 -47.967   8.722  1.00  0.00    -0.310 N 
ATOM     12  HN  UNL     1     -41.801 -48.269   8.212  1.00  0.00     0.186 HD
ENDBRANCH   5   6
ENDBRANCH   3   5
ENDBRANCH   1   3
BRANCH   1  13
HETATM   13  C   UNL     1     -43.276 -49.906  12.951  1.00  0.00     0.290 C 
BRANCH  13  14
HETATM   14  C   UNL     1     -43.364 -51.371  13.434  1.00  0.00     0.166 C 
BRANCH  14  15
HETATM   15  N   UNL     1     -44.706 -51.655  13.904  1.00  0.00    -0.266 N 
HETATM   16  C   UNL     1     -45.605 -52.459  13.270  1.00  0.00     0.326 C 
HETATM   17  O   UNL     1     -45.495 -52.994  12.180  1.00  0.00    -0.247 OA
HETATM   18  N   UNL     1     -46.694 -52.625  14.103  1.00  0.00    -0.325 N 
HETATM   19  C   UNL     1     -46.378 -52.210  15.450  1.00  0.00     0.108 C 
HETATM   20  H   UNL     1     -47.401 -53.307  13.855  1.00  0.00     0.165 HD
HETATM   21  C   UNL     1     -47.510 -51.468  16.131  1.00  0.00     0.049 C 
HETATM   22  C   UNL     1     -45.889 -53.405  16.275  1.00  0.00     0.049 C 
HETATM   23  C   UNL     1     -45.147 -51.343  15.162  1.00  0.00     0.255 C 
HETATM   24  O   UNL     1     -44.573 -50.633  15.978  1.00  0.00    -0.270 OA
ENDBRANCH  14  15
ENDBRANCH  13  14
ENDBRANCH   1  13
TORSDOF 6
ENDMDL
MODEL 8
REMARK VINA RESULT:      -5.4      3.135      5.012
REMARK  6 active torsions:
REMARK  status: ('A' for Active; 'I' for Inactive)
REMARK    1  A    between atoms: C_2  and  C_3 
REMARK    2  A    between atoms: C_2  and  N_11 
REMARK    3  A    between atoms: C_3  and  N_4 
REMARK    4  A    between atoms: N_11  and  C_12 
REMARK    5  A    between atoms: C_12  and  C_13 
REMARK    6  A    between atoms: C_13  and  N_14 
ROOT
HETATM    1  N   UNL     1     -41.522 -50.299  11.236  1.00  0.00     0.090 N 
HETATM    2  H   UNL     1     -41.198 -50.217  10.271  1.00  0.00     0.316 HD
ENDROOT
BRANCH   1   3
HETATM    3  C   UNL     1     -41.794 -48.948  11.778  1.00  0.00     0.236 C 
HETATM    4  C   UNL     1     -40.849 -48.598  12.937  1.00  0.00     0.044 C 
BRANCH   3   5
HETATM    5  C   UNL     1     -41.681 -47.921  10.631  1.00  0.00     0.183 C 
BRANCH   5   6
HETATM    6  N   UNL     1     -42.888 -47.795   9.836  1.00  0.00    -0.301 N 
HETATM    7  C   UNL     1     -44.138 -47.484  10.293  1.00  0.00     0.118 A 
HETATM    8  C   UNL     1     -44.955 -47.428   9.184  1.00  0.00    -0.028 A 
HETATM    9  C   UNL     1     -46.398 -47.106   9.123  1.00  0.00     0.051 C 
HETATM   10  C   UNL     1     -44.095 -47.740   8.109  1.00  0.00     0.115 A 
HETATM   11  N   UNL     1     -42.839 -47.961   8.502  1.00  0.00    -0.310 N 
ATOM     12  HN  UNL     1     -42.031 -48.201   7.926  1.00  0.00     0.186 HD
ENDBRANCH   5   6
ENDBRANCH   3   5
ENDBRANCH   1   3
BRANCH   1  13
HETATM   13  C   UNL     1     -40.534 -51.076  11.994  1.00  0.00     0.290 C 
BRANCH  13  14
HETATM   14  C   UNL     1     -40.988 -52.471  12.481  1.00  0.00     0.166 C 
BRANCH  14  15
HETATM   15  N   UNL     1     -40.677 -52.626  13.889  1.00  0.00    -0.266 N 
HETATM   16  C   UNL     1     -41.487 -52.245  14.917  1.00  0.00     0.326 C 
HETATM   17  O   UNL     1     -42.540 -51.635  14.857  1.00  0.00    -0.247 OA
HETATM   18  N   UNL     1     -40.934 -52.712  16.094  1.00  0.00    -0.325 N 
HETATM   19  C   UNL     1     -39.926 -53.712  15.825  1.00  0.00     0.108 C 
HETATM   20  H   UNL     1     -41.473 -52.644  16.948  1.00  0.00     0.165 HD
HETATM   21  C   UNL     1     -38.713 -53.598  16.727  1.00  0.00     0.049 C 
HETATM   22  C   UNL     1     -40.543 -55.113  15.858  1.00  0.00     0.049 C 
HETATM   23  C   UNL     1     -39.642 -53.392  14.354  1.00  0.00     0.255 C 
HETATM   24  O   UNL     1     -38.741 -53.879  13.683  1.00  0.00    -0.270 OA
ENDBRANCH  14  15
ENDBRANCH  13  14
ENDBRANCH   1  13
TORSDOF 6
ENDMDL
MODEL 9
REMARK VINA RESULT:      -5.4      2.513      6.072
REMARK  6 active torsions:
REMARK  status: ('A' for Active; 'I' for Inactive)
REMARK    1  A    between atoms: C_2  and  C_3 
REMARK    2  A    between atoms: C_2  and  N_11 
REMARK    3  A    between atoms: C_3  and  N_4 
REMARK    4  A    between atoms: N_11  and  C_12 
REMARK    5  A    between atoms: C_12  and  C_13 
REMARK    6  A    between atoms: C_13  and  N_14 
ROOT
HETATM    1  N   UNL     1     -41.059 -52.679  14.275  1.00  0.00     0.090 N 
HETATM    2  H   UNL     1     -41.335 -52.925  15.228  1.00  0.00     0.316 HD
ENDROOT
BRANCH   1   3
HETATM    3  C   UNL     1     -41.932 -53.388  13.313  1.00  0.00     0.236 C 
HETATM    4  C   UNL     1     -42.835 -54.416  14.013  1.00  0.00     0.044 C 
BRANCH   3   5
HETATM    5  C   UNL     1     -42.765 -52.346  12.537  1.00  0.00     0.183 C 
BRANCH   5   6
HETATM    6  N   UNL     1     -44.146 -52.254  12.975  1.00  0.00    -0.301 N 
HETATM    7  C   UNL     1     -44.595 -51.720  14.149  1.00  0.00     0.118 A 
HETATM    8  C   UNL     1     -45.971 -51.804  14.114  1.00  0.00    -0.028 A 
HETATM    9  C   UNL     1     -46.945 -51.345  15.129  1.00  0.00     0.051 C 
HETATM   10  C   UNL     1     -46.244 -52.425  12.875  1.00  0.00     0.115 A 
HETATM   11  N   UNL     1     -45.137 -52.697  12.181  1.00  0.00    -0.310 N 
ATOM     12  HN  UNL     1     -45.061 -53.138  11.264  1.00  0.00     0.186 HD
ENDBRANCH   5   6
ENDBRANCH   3   5
ENDBRANCH   1   3
BRANCH   1  13
HETATM   13  C   UNL     1     -39.625 -52.955  14.122  1.00  0.00     0.290 C 
BRANCH  13  14
HETATM   14  C   UNL     1     -38.660 -51.847  14.602  1.00  0.00     0.166 C 
BRANCH  14  15
HETATM   15  N   UNL     1     -38.565 -50.808  13.595  1.00  0.00    -0.266 N 
HETATM   16  C   UNL     1     -37.717 -50.824  12.529  1.00  0.00     0.326 C 
HETATM   17  O   UNL     1     -36.840 -51.633  12.279  1.00  0.00    -0.247 OA
HETATM   18  N   UNL     1     -38.041 -49.762  11.707  1.00  0.00    -0.325 N 
HETATM   19  C   UNL     1     -39.340 -49.228  12.046  1.00  0.00     0.108 C 
HETATM   20  H   UNL     1     -37.606 -49.699  10.794  1.00  0.00     0.165 HD
HETATM   21  C   UNL     1     -39.402 -47.715  11.984  1.00  0.00     0.049 C 
HETATM   22  C   UNL     1     -40.427 -49.888  11.193  1.00  0.00     0.049 C 
HETATM   23  C   UNL     1     -39.484 -49.801  13.460  1.00  0.00     0.255 C 
HETATM   24  O   UNL     1     -40.373 -49.520  14.253  1.00  0.00    -0.270 OA
ENDBRANCH  14  15
ENDBRANCH  13  14
ENDBRANCH   1  13
TORSDOF 6
ENDMDL
