MODEL 1
REMARK VINA RESULT:      -6.4      0.000      0.000
REMARK  5 active torsions:
REMARK  status: ('A' for Active; 'I' for Inactive)
REMARK       I    between atoms: C_2  and  N_3 
REMARK       I    between atoms: C_2  and  N_18 
REMARK    1  A    between atoms: N_3  and  C_4 
REMARK    2  A    between atoms: C_4  and  C_5 
REMARK    3  A    between atoms: C_5  and  N_6 
REMARK       I    between atoms: N_9  and  C_12 
REMARK    4  A    between atoms: C_12  and  C_14 
REMARK    5  A    between atoms: N_18  and  C_19 
ROOT
HETATM    1  C   UNL     1     -38.370 -49.314  12.327  1.00  0.00     0.154 C 
ENDROOT
BRANCH   1   2
HETATM    2  N   UNL     1     -38.997 -48.445  11.340  1.00  0.00    -0.341 N 
HETATM    3  C   UNL     1     -39.715 -47.349  11.781  1.00  0.00     0.320 C 
HETATM    4  O   UNL     1     -39.929 -47.138  12.966  1.00  0.00    -0.247 OA
HETATM    5  N   UNL     1     -40.158 -46.586  10.722  1.00  0.00    -0.308 N 
HETATM    6  H   UNL     1     -40.219 -47.071   9.838  1.00  0.00     0.170 HD
HETATM    7  H   UNL     1     -38.499 -48.320  10.473  1.00  0.00     0.164 HD
BRANCH   5   8
HETATM    8  C   UNL     1     -40.844 -45.358  10.832  1.00  0.00     0.051 A 
HETATM    9  C   UNL     1     -40.208 -44.132  11.022  1.00  0.00     0.032 A 
HETATM   10  C   UNL     1     -40.967 -42.971  11.166  1.00  0.00     0.019 A 
HETATM   11  C   UNL     1     -42.346 -43.071  11.103  1.00  0.00     0.088 A 
HETATM   12  N   UNL     1     -43.001 -44.231  10.879  1.00  0.00    -0.373 N 
HETATM   13  C   UNL     1     -42.235 -45.340  10.742  1.00  0.00     0.117 A 
ATOM     14  HN  UNL     1     -44.019 -44.269  10.817  1.00  0.00     0.164 HD
ENDBRANCH   5   8
ENDBRANCH   1   2
BRANCH   1  15
HETATM   15  C   UNL     1     -38.838 -50.781  12.215  1.00  0.00     0.292 C 
BRANCH  15  16
HETATM   16  N   UNL     1     -39.504 -51.297  13.430  1.00  0.00     0.093 N 
HETATM   17  C   UNL     1     -40.022 -52.673  13.216  1.00  0.00     0.292 C 
HETATM   18  C   UNL     1     -41.295 -52.786  12.340  1.00  0.00     0.156 C 
HETATM   19  N   UNL     1     -42.323 -51.818  12.740  1.00  0.00    -0.348 N 
HETATM   20  C   UNL     1     -41.835 -50.448  12.906  1.00  0.00     0.156 C 
HETATM   21  C   UNL     1     -43.664 -52.093  12.993  1.00  0.00     0.224 C 
HETATM   22  C   UNL     1     -40.635 -50.441  13.870  1.00  0.00     0.292 C 
HETATM   23  O   UNL     1     -44.453 -51.181  13.271  1.00  0.00    -0.273 OA
BRANCH  21  24
HETATM   24  C   UNL     1     -44.118 -53.574  12.948  1.00  0.00     0.078 C 
HETATM   25  C   UNL     1     -45.621 -53.864  13.235  1.00  0.00     0.014 C 
HETATM   26  C   UNL     1     -45.176 -55.123  13.997  1.00  0.00     0.002 C 
HETATM   27  C   UNL     1     -43.818 -54.434  14.210  1.00  0.00     0.014 C 
ENDBRANCH  21  24
ENDBRANCH  15  16
ENDBRANCH   1  15
TORSDOF 5
ENDMDL
MODEL 2
REMARK VINA RESULT:      -6.3      1.997      8.361
REMARK  5 active torsions:
REMARK  status: ('A' for Active; 'I' for Inactive)
REMARK       I    between atoms: C_2  and  N_3 
REMARK       I    between atoms: C_2  and  N_18 
REMARK    1  A    between atoms: N_3  and  C_4 
REMARK    2  A    between atoms: C_4  and  C_5 
REMARK    3  A    between atoms: C_5  and  N_6 
REMARK       I    between atoms: N_9  and  C_12 
REMARK    4  A    between atoms: C_12  and  C_14 
REMARK    5  A    between atoms: N_18  and  C_19 
ROOT
HETATM    1  C   UNL     1     -40.169 -50.842  12.040  1.00  0.00     0.154 C 
ENDROOT
BRANCH   1   2
HETATM    2  N   UNL     1     -41.419 -51.515  11.715  1.00  0.00    -0.341 N 
HETATM    3  C   UNL     1     -42.356 -51.695  12.716  1.00  0.00     0.320 C 
HETATM    4  O   UNL     1     -42.136 -51.403  13.882  1.00  0.00    -0.247 OA
HETATM    5  N   UNL     1     -43.512 -52.260  12.219  1.00  0.00    -0.308 N 
HETATM    6  H   UNL     1     -43.405 -52.766  11.352  1.00  0.00     0.170 HD
HETATM    7  H   UNL     1     -41.791 -51.349  10.794  1.00  0.00     0.164 HD
BRANCH   5   8
HETATM    8  C   UNL     1     -44.690 -52.494  12.961  1.00  0.00     0.051 A 
HETATM    9  C   UNL     1     -45.541 -51.480  13.398  1.00  0.00     0.032 A 
HETATM   10  C   UNL     1     -46.661 -51.797  14.165  1.00  0.00     0.019 A 
HETATM   11  C   UNL     1     -46.903 -53.127  14.462  1.00  0.00     0.088 A 
HETATM   12  N   UNL     1     -46.129 -54.143  14.025  1.00  0.00    -0.373 N 
HETATM   13  C   UNL     1     -45.049 -53.802  13.280  1.00  0.00     0.117 A 
ATOM     14  HN  UNL     1     -46.345 -55.116  14.243  1.00  0.00     0.164 HD
ENDBRANCH   5   8
ENDBRANCH   1   2
BRANCH   1  15
HETATM   15  C   UNL     1     -40.072 -49.431  11.422  1.00  0.00     0.292 C 
BRANCH  15  16
HETATM   16  N   UNL     1     -41.078 -48.475  11.934  1.00  0.00     0.093 N 
HETATM   17  C   UNL     1     -41.215 -47.303  11.033  1.00  0.00     0.292 C 
HETATM   18  C   UNL     1     -40.056 -46.275  11.082  1.00  0.00     0.156 C 
HETATM   19  N   UNL     1     -39.690 -45.927  12.460  1.00  0.00    -0.348 N 
HETATM   20  C   UNL     1     -39.504 -47.076  13.347  1.00  0.00     0.156 C 
HETATM   21  C   UNL     1     -39.542 -44.644  12.977  1.00  0.00     0.224 C 
HETATM   22  C   UNL     1     -40.751 -47.976  13.295  1.00  0.00     0.292 C 
HETATM   23  O   UNL     1     -39.174 -44.473  14.146  1.00  0.00    -0.273 OA
BRANCH  21  24
HETATM   24  C   UNL     1     -39.885 -43.449  12.052  1.00  0.00     0.078 C 
HETATM   25  C   UNL     1     -39.812 -42.024  12.677  1.00  0.00     0.014 C 
HETATM   26  C   UNL     1     -41.056 -41.657  11.852  1.00  0.00     0.002 C 
HETATM   27  C   UNL     1     -41.396 -43.157  11.821  1.00  0.00     0.014 C 
ENDBRANCH  21  24
ENDBRANCH  15  16
ENDBRANCH   1  15
TORSDOF 5
ENDMDL
MODEL 3
REMARK VINA RESULT:      -6.2      1.532      2.089
REMARK  5 active torsions:
REMARK  status: ('A' for Active; 'I' for Inactive)
REMARK       I    between atoms: C_2  and  N_3 
REMARK       I    between atoms: C_2  and  N_18 
REMARK    1  A    between atoms: N_3  and  C_4 
REMARK    2  A    between atoms: C_4  and  C_5 
REMARK    3  A    between atoms: C_5  and  N_6 
REMARK       I    between atoms: N_9  and  C_12 
REMARK    4  A    between atoms: C_12  and  C_14 
REMARK    5  A    between atoms: N_18  and  C_19 
ROOT
HETATM    1  C   UNL     1     -38.807 -50.010  11.839  1.00  0.00     0.154 C 
ENDROOT
BRANCH   1   2
HETATM    2  N   UNL     1     -39.535 -49.051  11.019  1.00  0.00    -0.341 N 
HETATM    3  C   UNL     1     -39.884 -47.833  11.573  1.00  0.00     0.320 C 
HETATM    4  O   UNL     1     -39.694 -47.570  12.751  1.00  0.00    -0.247 OA
HETATM    5  N   UNL     1     -40.479 -47.014  10.638  1.00  0.00    -0.308 N 
HETATM    6  H   UNL     1     -40.886 -47.490   9.846  1.00  0.00     0.170 HD
HETATM    7  H   UNL     1     -39.305 -49.034  10.039  1.00  0.00     0.164 HD
BRANCH   5   8
HETATM    8  C   UNL     1     -40.873 -45.677  10.858  1.00  0.00     0.051 A 
HETATM    9  C   UNL     1     -39.994 -44.596  10.815  1.00  0.00     0.032 A 
HETATM   10  C   UNL     1     -40.459 -43.311  11.089  1.00  0.00     0.019 A 
HETATM   11  C   UNL     1     -41.801 -43.144  11.387  1.00  0.00     0.088 A 
HETATM   12  N   UNL     1     -42.695 -44.156  11.399  1.00  0.00    -0.373 N 
HETATM   13  C   UNL     1     -42.211 -45.392  11.127  1.00  0.00     0.117 A 
ATOM     14  HN  UNL     1     -43.682 -43.998  11.602  1.00  0.00     0.164 HD
ENDBRANCH   5   8
ENDBRANCH   1   2
BRANCH   1  15
HETATM   15  C   UNL     1     -39.733 -51.041  12.518  1.00  0.00     0.292 C 
BRANCH  15  16
HETATM   16  N   UNL     1     -41.085 -51.124  11.924  1.00  0.00     0.093 N 
HETATM   17  C   UNL     1     -42.073 -50.357  12.725  1.00  0.00     0.292 C 
HETATM   18  C   UNL     1     -42.505 -51.003  14.065  1.00  0.00     0.156 C 
HETATM   19  N   UNL     1     -42.843 -52.423  13.904  1.00  0.00    -0.348 N 
HETATM   20  C   UNL     1     -41.853 -53.202  13.158  1.00  0.00     0.156 C 
HETATM   21  C   UNL     1     -43.996 -53.054  14.359  1.00  0.00     0.224 C 
HETATM   22  C   UNL     1     -41.573 -52.522  11.806  1.00  0.00     0.292 C 
HETATM   23  O   UNL     1     -44.148 -54.274  14.212  1.00  0.00    -0.273 OA
BRANCH  21  24
HETATM   24  C   UNL     1     -45.089 -52.174  15.017  1.00  0.00     0.078 C 
HETATM   25  C   UNL     1     -46.262 -52.914  15.728  1.00  0.00     0.014 C 
HETATM   26  C   UNL     1     -47.204 -51.827  15.185  1.00  0.00     0.002 C 
HETATM   27  C   UNL     1     -46.173 -51.583  14.070  1.00  0.00     0.014 C 
ENDBRANCH  21  24
ENDBRANCH  15  16
ENDBRANCH   1  15
TORSDOF 5
ENDMDL
MODEL 4
REMARK VINA RESULT:      -6.2      2.557      3.564
REMARK  5 active torsions:
REMARK  status: ('A' for Active; 'I' for Inactive)
REMARK       I    between atoms: C_2  and  N_3 
REMARK       I    between atoms: C_2  and  N_18 
REMARK    1  A    between atoms: N_3  and  C_4 
REMARK    2  A    between atoms: C_4  and  C_5 
REMARK    3  A    between atoms: C_5  and  N_6 
REMARK       I    between atoms: N_9  and  C_12 
REMARK    4  A    between atoms: C_12  and  C_14 
REMARK    5  A    between atoms: N_18  and  C_19 
ROOT
HETATM    1  C   UNL     1     -40.472 -51.967  12.407  1.00  0.00     0.154 C 
ENDROOT
BRANCH   1   2
HETATM    2  N   UNL     1     -40.888 -51.025  11.376  1.00  0.00    -0.341 N 
HETATM    3  C   UNL     1     -41.063 -49.698  11.722  1.00  0.00     0.320 C 
HETATM    4  O   UNL     1     -40.981 -49.303  12.875  1.00  0.00    -0.247 OA
HETATM    5  N   UNL     1     -41.362 -48.931  10.615  1.00  0.00    -0.308 N 
HETATM    6  H   UNL     1     -41.747 -49.439   9.832  1.00  0.00     0.170 HD
HETATM    7  H   UNL     1     -40.534 -51.191  10.448  1.00  0.00     0.164 HD
BRANCH   5   8
HETATM    8  C   UNL     1     -41.514 -47.528  10.612  1.00  0.00     0.051 A 
HETATM    9  C   UNL     1     -40.468 -46.638  10.848  1.00  0.00     0.032 A 
HETATM   10  C   UNL     1     -40.716 -45.266  10.871  1.00  0.00     0.019 A 
HETATM   11  C   UNL     1     -42.008 -44.824  10.642  1.00  0.00     0.088 A 
HETATM   12  N   UNL     1     -43.042 -45.649  10.369  1.00  0.00    -0.373 N 
HETATM   13  C   UNL     1     -42.767 -46.976  10.353  1.00  0.00     0.117 A 
ATOM     14  HN  UNL     1     -43.980 -45.292  10.184  1.00  0.00     0.164 HD
ENDBRANCH   5   8
ENDBRANCH   1   2
BRANCH   1  15
HETATM   15  C   UNL     1     -41.497 -53.100  12.629  1.00  0.00     0.292 C 
BRANCH  15  16
HETATM   16  N   UNL     1     -42.903 -52.694  12.420  1.00  0.00     0.093 N 
HETATM   17  C   UNL     1     -43.303 -51.626  13.372  1.00  0.00     0.292 C 
HETATM   18  C   UNL     1     -43.539 -52.078  14.835  1.00  0.00     0.156 C 
HETATM   19  N   UNL     1     -44.374 -53.283  14.907  1.00  0.00    -0.348 N 
HETATM   20  C   UNL     1     -43.961 -54.363  14.009  1.00  0.00     0.156 C 
HETATM   21  C   UNL     1     -45.498 -53.463  15.707  1.00  0.00     0.224 C 
HETATM   22  C   UNL     1     -43.853 -53.826  12.571  1.00  0.00     0.292 C 
HETATM   23  O   UNL     1     -46.093 -54.547  15.725  1.00  0.00    -0.273 OA
BRANCH  21  24
HETATM   24  C   UNL     1     -45.993 -52.252  16.538  1.00  0.00     0.078 C 
HETATM   25  C   UNL     1     -46.896 -52.559  17.770  1.00  0.00     0.014 C 
HETATM   26  C   UNL     1     -47.711 -51.304  17.417  1.00  0.00     0.002 C 
HETATM   27  C   UNL     1     -47.212 -51.467  15.971  1.00  0.00     0.014 C 
ENDBRANCH  21  24
ENDBRANCH  15  16
ENDBRANCH   1  15
TORSDOF 5
ENDMDL
MODEL 5
REMARK VINA RESULT:      -6.0      2.108      9.028
REMARK  5 active torsions:
REMARK  status: ('A' for Active; 'I' for Inactive)
REMARK       I    between atoms: C_2  and  N_3 
REMARK       I    between atoms: C_2  and  N_18 
REMARK    1  A    between atoms: N_3  and  C_4 
REMARK    2  A    between atoms: C_4  and  C_5 
REMARK    3  A    between atoms: C_5  and  N_6 
REMARK       I    between atoms: N_9  and  C_12 
REMARK    4  A    between atoms: C_12  and  C_14 
REMARK    5  A    between atoms: N_18  and  C_19 
ROOT
HETATM    1  C   UNL     1     -41.101 -50.021  12.263  1.00  0.00     0.154 C 
ENDROOT
BRANCH   1   2
HETATM    2  N   UNL     1     -42.253 -50.826  11.881  1.00  0.00    -0.341 N 
HETATM    3  C   UNL     1     -42.806 -51.681  12.817  1.00  0.00     0.320 C 
HETATM    4  O   UNL     1     -42.305 -51.862  13.917  1.00  0.00    -0.247 OA
HETATM    5  N   UNL     1     -43.940 -52.291  12.325  1.00  0.00    -0.308 N 
HETATM    6  H   UNL     1     -44.008 -52.324  11.318  1.00  0.00     0.170 HD
HETATM    7  H   UNL     1     -42.904 -50.401  11.241  1.00  0.00     0.164 HD
BRANCH   5   8
HETATM    8  C   UNL     1     -44.785 -53.152  13.057  1.00  0.00     0.051 A 
HETATM    9  C   UNL     1     -44.521 -54.506  13.258  1.00  0.00     0.032 A 
HETATM   10  C   UNL     1     -45.434 -55.295  13.956  1.00  0.00     0.019 A 
HETATM   11  C   UNL     1     -46.584 -54.699  14.445  1.00  0.00     0.088 A 
HETATM   12  N   UNL     1     -46.860 -53.384  14.309  1.00  0.00    -0.373 N 
HETATM   13  C   UNL     1     -45.951 -52.644  13.627  1.00  0.00     0.117 A 
ATOM     14  HN  UNL     1     -47.706 -52.969  14.699  1.00  0.00     0.164 HD
ENDBRANCH   5   8
ENDBRANCH   1   2
BRANCH   1  15
HETATM   15  C   UNL     1     -41.496 -48.639  12.823  1.00  0.00     0.292 C 
BRANCH  15  16
HETATM   16  N   UNL     1     -40.351 -47.736  13.071  1.00  0.00     0.093 N 
HETATM   17  C   UNL     1     -40.765 -46.545  13.856  1.00  0.00     0.292 C 
HETATM   18  C   UNL     1     -41.578 -45.476  13.083  1.00  0.00     0.156 C 
HETATM   19  N   UNL     1     -40.967 -45.154  11.788  1.00  0.00    -0.348 N 
HETATM   20  C   UNL     1     -40.599 -46.319  10.983  1.00  0.00     0.156 C 
HETATM   21  C   UNL     1     -40.692 -43.880  11.298  1.00  0.00     0.224 C 
HETATM   22  C   UNL     1     -39.714 -47.264  11.815  1.00  0.00     0.292 C 
HETATM   23  O   UNL     1     -40.224 -43.729  10.163  1.00  0.00    -0.273 OA
BRANCH  21  24
HETATM   24  C   UNL     1     -40.961 -42.674  12.234  1.00  0.00     0.078 C 
HETATM   25  C   UNL     1     -41.253 -41.302  11.555  1.00  0.00     0.014 C 
HETATM   26  C   UNL     1     -40.434 -40.637  12.674  1.00  0.00     0.002 C 
HETATM   27  C   UNL     1     -39.713 -41.983  12.857  1.00  0.00     0.014 C 
ENDBRANCH  21  24
ENDBRANCH  15  16
ENDBRANCH   1  15
TORSDOF 5
ENDMDL
MODEL 6
REMARK VINA RESULT:      -6.0      2.914      7.299
REMARK  5 active torsions:
REMARK  status: ('A' for Active; 'I' for Inactive)
REMARK       I    between atoms: C_2  and  N_3 
REMARK       I    between atoms: C_2  and  N_18 
REMARK    1  A    between atoms: N_3  and  C_4 
REMARK    2  A    between atoms: C_4  and  C_5 
REMARK    3  A    between atoms: C_5  and  N_6 
REMARK       I    between atoms: N_9  and  C_12 
REMARK    4  A    between atoms: C_12  and  C_14 
REMARK    5  A    between atoms: N_18  and  C_19 
ROOT
HETATM    1  C   UNL     1     -38.823 -48.557  12.932  1.00  0.00     0.154 C 
ENDROOT
BRANCH   1   2
HETATM    2  N   UNL     1     -39.004 -49.977  12.665  1.00  0.00    -0.341 N 
HETATM    3  C   UNL     1     -39.855 -50.703  13.478  1.00  0.00     0.320 C 
HETATM    4  O   UNL     1     -40.381 -50.224  14.471  1.00  0.00    -0.247 OA
HETATM    5  N   UNL     1     -39.984 -52.000  13.030  1.00  0.00    -0.308 N 
HETATM    6  H   UNL     1     -39.229 -52.331  12.445  1.00  0.00     0.170 HD
HETATM    7  H   UNL     1     -38.981 -50.257  11.697  1.00  0.00     0.164 HD
BRANCH   5   8
HETATM    8  C   UNL     1     -40.843 -52.973  13.584  1.00  0.00     0.051 A 
HETATM    9  C   UNL     1     -42.148 -53.190  13.145  1.00  0.00     0.032 A 
HETATM   10  C   UNL     1     -42.945 -54.142  13.780  1.00  0.00     0.019 A 
HETATM   11  C   UNL     1     -42.403 -54.862  14.832  1.00  0.00     0.088 A 
HETATM   12  N   UNL     1     -41.131 -54.713  15.262  1.00  0.00    -0.373 N 
HETATM   13  C   UNL     1     -40.383 -53.780  14.623  1.00  0.00     0.117 A 
ATOM     14  HN  UNL     1     -40.754 -55.273  16.026  1.00  0.00     0.164 HD
ENDBRANCH   5   8
ENDBRANCH   1   2
BRANCH   1  15
HETATM   15  C   UNL     1     -39.545 -47.658  11.906  1.00  0.00     0.292 C 
BRANCH  15  16
HETATM   16  N   UNL     1     -40.798 -47.053  12.407  1.00  0.00     0.093 N 
HETATM   17  C   UNL     1     -41.942 -47.988  12.265  1.00  0.00     0.292 C 
HETATM   18  C   UNL     1     -42.484 -48.181  10.826  1.00  0.00     0.156 C 
HETATM   19  N   UNL     1     -42.674 -46.899  10.137  1.00  0.00    -0.348 N 
HETATM   20  C   UNL     1     -41.534 -45.986  10.227  1.00  0.00     0.156 C 
HETATM   21  C   UNL     1     -43.817 -46.487   9.459  1.00  0.00     0.224 C 
HETATM   22  C   UNL     1     -41.144 -45.790  11.703  1.00  0.00     0.292 C 
HETATM   23  O   UNL     1     -43.842 -45.401   8.866  1.00  0.00    -0.273 OA
BRANCH  21  24
HETATM   24  C   UNL     1     -45.057 -47.416   9.504  1.00  0.00     0.078 C 
HETATM   25  C   UNL     1     -45.352 -48.267   8.232  1.00  0.00     0.014 C 
HETATM   26  C   UNL     1     -46.849 -48.011   8.475  1.00  0.00     0.002 C 
HETATM   27  C   UNL     1     -46.439 -46.747   9.251  1.00  0.00     0.014 C 
ENDBRANCH  21  24
ENDBRANCH  15  16
ENDBRANCH   1  15
TORSDOF 5
ENDMDL
MODEL 7
REMARK VINA RESULT:      -6.0      2.084      8.869
REMARK  5 active torsions:
REMARK  status: ('A' for Active; 'I' for Inactive)
REMARK       I    between atoms: C_2  and  N_3 
REMARK       I    between atoms: C_2  and  N_18 
REMARK    1  A    between atoms: N_3  and  C_4 
REMARK    2  A    between atoms: C_4  and  C_5 
REMARK    3  A    between atoms: C_5  and  N_6 
REMARK       I    between atoms: N_9  and  C_12 
REMARK    4  A    between atoms: C_12  and  C_14 
REMARK    5  A    between atoms: N_18  and  C_19 
ROOT
HETATM    1  C   UNL     1     -39.828 -49.701  11.419  1.00  0.00     0.154 C 
ENDROOT
BRANCH   1   2
HETATM    2  N   UNL     1     -40.830 -50.719  11.132  1.00  0.00    -0.341 N 
HETATM    3  C   UNL     1     -41.319 -51.483  12.175  1.00  0.00     0.320 C 
HETATM    4  O   UNL     1     -40.871 -51.408  13.309  1.00  0.00    -0.247 OA
HETATM    5  N   UNL     1     -42.322 -52.326  11.746  1.00  0.00    -0.308 N 
HETATM    6  H   UNL     1     -42.318 -52.531  10.757  1.00  0.00     0.170 HD
HETATM    7  H   UNL     1     -41.491 -50.503  10.402  1.00  0.00     0.164 HD
BRANCH   5   8
HETATM    8  C   UNL     1     -43.086 -53.174  12.576  1.00  0.00     0.051 A 
HETATM    9  C   UNL     1     -44.474 -53.275  12.507  1.00  0.00     0.032 A 
HETATM   10  C   UNL     1     -45.155 -54.105  13.397  1.00  0.00     0.019 A 
HETATM   11  C   UNL     1     -44.420 -54.821  14.326  1.00  0.00     0.088 A 
HETATM   12  N   UNL     1     -43.072 -54.785  14.401  1.00  0.00    -0.373 N 
HETATM   13  C   UNL     1     -42.441 -53.970  13.521  1.00  0.00     0.117 A 
ATOM     14  HN  UNL     1     -42.557 -55.340  15.084  1.00  0.00     0.164 HD
ENDBRANCH   5   8
ENDBRANCH   1   2
BRANCH   1  15
HETATM   15  C   UNL     1     -40.444 -48.389  11.950  1.00  0.00     0.292 C 
BRANCH  15  16
HETATM   16  N   UNL     1     -40.906 -47.466  10.891  1.00  0.00     0.093 N 
HETATM   17  C   UNL     1     -39.975 -46.319  10.733  1.00  0.00     0.292 C 
HETATM   18  C   UNL     1     -40.033 -45.243  11.846  1.00  0.00     0.156 C 
HETATM   19  N   UNL     1     -41.413 -44.851  12.158  1.00  0.00    -0.348 N 
HETATM   20  C   UNL     1     -42.331 -45.972  12.365  1.00  0.00     0.156 C 
HETATM   21  C   UNL     1     -41.905 -43.552  12.238  1.00  0.00     0.224 C 
HETATM   22  C   UNL     1     -42.264 -46.925  11.158  1.00  0.00     0.292 C 
HETATM   23  O   UNL     1     -43.080 -43.341  12.564  1.00  0.00    -0.273 OA
BRANCH  21  24
HETATM   24  C   UNL     1     -40.943 -42.392  11.873  1.00  0.00     0.078 C 
HETATM   25  C   UNL     1     -40.235 -41.661  13.052  1.00  0.00     0.014 C 
HETATM   26  C   UNL     1     -40.421 -40.347  12.275  1.00  0.00     0.002 C 
HETATM   27  C   UNL     1     -41.599 -41.019  11.549  1.00  0.00     0.014 C 
ENDBRANCH  21  24
ENDBRANCH  15  16
ENDBRANCH   1  15
TORSDOF 5
ENDMDL
MODEL 8
REMARK VINA RESULT:      -5.9      2.795      7.891
REMARK  5 active torsions:
REMARK  status: ('A' for Active; 'I' for Inactive)
REMARK       I    between atoms: C_2  and  N_3 
REMARK       I    between atoms: C_2  and  N_18 
REMARK    1  A    between atoms: N_3  and  C_4 
REMARK    2  A    between atoms: C_4  and  C_5 
REMARK    3  A    between atoms: C_5  and  N_6 
REMARK       I    between atoms: N_9  and  C_12 
REMARK    4  A    between atoms: C_12  and  C_14 
REMARK    5  A    between atoms: N_18  and  C_19 
ROOT
HETATM    1  C   UNL     1     -40.166 -50.346  11.661  1.00  0.00     0.154 C 
ENDROOT
BRANCH   1   2
HETATM    2  N   UNL     1     -41.137 -51.392  11.372  1.00  0.00    -0.341 N 
HETATM    3  C   UNL     1     -41.923 -51.873  12.403  1.00  0.00     0.320 C 
HETATM    4  O   UNL     1     -41.765 -51.527  13.564  1.00  0.00    -0.247 OA
HETATM    5  N   UNL     1     -42.847 -52.785  11.940  1.00  0.00    -0.308 N 
HETATM    6  H   UNL     1     -42.614 -53.226  11.062  1.00  0.00     0.170 HD
HETATM    7  H   UNL     1     -41.580 -51.355  10.467  1.00  0.00     0.164 HD
BRANCH   5   8
HETATM    8  C   UNL     1     -43.852 -53.395  12.721  1.00  0.00     0.051 A 
HETATM    9  C   UNL     1     -43.610 -54.440  13.611  1.00  0.00     0.032 A 
HETATM   10  C   UNL     1     -44.670 -55.016  14.310  1.00  0.00     0.019 A 
HETATM   11  C   UNL     1     -45.945 -54.517  14.106  1.00  0.00     0.088 A 
HETATM   12  N   UNL     1     -46.219 -53.479  13.286  1.00  0.00    -0.373 N 
HETATM   13  C   UNL     1     -45.166 -52.941  12.622  1.00  0.00     0.117 A 
ATOM     14  HN  UNL     1     -47.166 -53.120  13.172  1.00  0.00     0.164 HD
ENDBRANCH   5   8
ENDBRANCH   1   2
BRANCH   1  15
HETATM   15  C   UNL     1     -40.586 -48.969  11.103  1.00  0.00     0.292 C 
BRANCH  15  16
HETATM   16  N   UNL     1     -39.894 -47.824  11.732  1.00  0.00     0.093 N 
HETATM   17  C   UNL     1     -40.168 -47.765  13.191  1.00  0.00     0.292 C 
HETATM   18  C   UNL     1     -41.580 -47.271  13.594  1.00  0.00     0.156 C 
HETATM   19  N   UNL     1     -41.963 -46.055  12.866  1.00  0.00    -0.348 N 
HETATM   20  C   UNL     1     -41.745 -46.118  11.420  1.00  0.00     0.156 C 
HETATM   21  C   UNL     1     -42.469 -44.884  13.422  1.00  0.00     0.224 C 
HETATM   22  C   UNL     1     -40.287 -46.521  11.135  1.00  0.00     0.292 C 
HETATM   23  O   UNL     1     -42.810 -43.939  12.701  1.00  0.00    -0.273 OA
BRANCH  21  24
HETATM   24  C   UNL     1     -42.553 -44.797  14.968  1.00  0.00     0.078 C 
HETATM   25  C   UNL     1     -43.876 -45.281  15.634  1.00  0.00     0.014 C 
HETATM   26  C   UNL     1     -43.735 -44.119  16.630  1.00  0.00     0.002 C 
HETATM   27  C   UNL     1     -42.882 -43.401  15.571  1.00  0.00     0.014 C 
ENDBRANCH  21  24
ENDBRANCH  15  16
ENDBRANCH   1  15
TORSDOF 5
ENDMDL
MODEL 9
REMARK VINA RESULT:      -5.6      3.794      6.580
REMARK  5 active torsions:
REMARK  status: ('A' for Active; 'I' for Inactive)
REMARK       I    between atoms: C_2  and  N_3 
REMARK       I    between atoms: C_2  and  N_18 
REMARK    1  A    between atoms: N_3  and  C_4 
REMARK    2  A    between atoms: C_4  and  C_5 
REMARK    3  A    between atoms: C_5  and  N_6 
REMARK       I    between atoms: N_9  and  C_12 
REMARK    4  A    between atoms: C_12  and  C_14 
REMARK    5  A    between atoms: N_18  and  C_19 
ROOT
HETATM    1  C   UNL     1     -44.228 -53.081  12.135  1.00  0.00     0.154 C 
ENDROOT
BRANCH   1   2
HETATM    2  N   UNL     1     -42.794 -53.036  11.880  1.00  0.00    -0.341 N 
HETATM    3  C   UNL     1     -42.088 -51.907  12.253  1.00  0.00     0.320 C 
HETATM    4  O   UNL     1     -42.634 -50.908  12.696  1.00  0.00    -0.247 OA
HETATM    5  N   UNL     1     -40.737 -52.069  12.028  1.00  0.00    -0.308 N 
HETATM    6  H   UNL     1     -40.496 -52.770  11.342  1.00  0.00     0.170 HD
HETATM    7  H   UNL     1     -42.297 -53.908  11.962  1.00  0.00     0.164 HD
BRANCH   5   8
HETATM    8  C   UNL     1     -39.735 -51.140  12.379  1.00  0.00     0.051 A 
HETATM    9  C   UNL     1     -39.466 -49.983  11.651  1.00  0.00     0.032 A 
HETATM   10  C   UNL     1     -38.426 -49.141  12.043  1.00  0.00     0.019 A 
HETATM   11  C   UNL     1     -37.692 -49.478  13.168  1.00  0.00     0.088 A 
HETATM   12  N   UNL     1     -37.945 -50.566  13.926  1.00  0.00    -0.373 N 
HETATM   13  C   UNL     1     -38.963 -51.363  13.518  1.00  0.00     0.117 A 
ATOM     14  HN  UNL     1     -37.399 -50.777  14.762  1.00  0.00     0.164 HD
ENDBRANCH   5   8
ENDBRANCH   1   2
BRANCH   1  15
HETATM   15  C   UNL     1     -44.585 -53.896  13.396  1.00  0.00     0.292 C 
BRANCH  15  16
HETATM   16  N   UNL     1     -46.006 -53.802  13.795  1.00  0.00     0.093 N 
HETATM   17  C   UNL     1     -46.437 -52.386  13.921  1.00  0.00     0.292 C 
HETATM   18  C   UNL     1     -45.923 -51.632  15.173  1.00  0.00     0.156 C 
HETATM   19  N   UNL     1     -46.103 -52.421  16.398  1.00  0.00    -0.348 N 
HETATM   20  C   UNL     1     -45.637 -53.805  16.304  1.00  0.00     0.156 C 
HETATM   21  C   UNL     1     -46.685 -51.984  17.585  1.00  0.00     0.224 C 
HETATM   22  C   UNL     1     -46.284 -54.485  15.085  1.00  0.00     0.292 C 
HETATM   23  O   UNL     1     -46.732 -52.724  18.575  1.00  0.00    -0.273 OA
BRANCH  21  24
HETATM   24  C   UNL     1     -47.298 -50.560  17.606  1.00  0.00     0.078 C 
HETATM   25  C   UNL     1     -46.451 -49.434  18.272  1.00  0.00     0.014 C 
HETATM   26  C   UNL     1     -47.761 -48.862  18.840  1.00  0.00     0.002 C 
HETATM   27  C   UNL     1     -48.357 -50.273  18.709  1.00  0.00     0.014 C 
ENDBRANCH  21  24
ENDBRANCH  15  16
ENDBRANCH   1  15
TORSDOF 5
ENDMDL
