MODEL 1
REMARK VINA RESULT:      -5.8      0.000      0.000
REMARK  5 active torsions:
REMARK  status: ('A' for Active; 'I' for Inactive)
REMARK    1  A    between atoms: C_9  and  C_10 
REMARK    2  A    between atoms: C_10  and  C_11 
REMARK       I    between atoms: C_11  and  N_13 
REMARK    3  A    between atoms: N_13  and  C_14 
REMARK    4  A    between atoms: C_14  and  C_15 
REMARK    5  A    between atoms: C_15  and  N_16 
ROOT
HETATM    1  C   UNL     1     -40.960 -52.375  13.023  1.00  0.00     0.222 C 
HETATM    2  O   UNL     1     -40.492 -53.089  12.141  1.00  0.00    -0.273 OA
HETATM    3  N   UNL     1     -42.143 -52.661  13.673  1.00  0.00    -0.359 N 
HETATM    4  H   UNL     1     -42.573 -51.927  14.222  1.00  0.00     0.162 HD
ENDROOT
BRANCH   1   5
HETATM    5  C   UNL     1     -40.244 -51.132  13.510  1.00  0.00     0.145 C 
BRANCH   5   6
HETATM    6  C   UNL     1     -40.197 -49.984  12.548  1.00  0.00    -0.002 A 
HETATM    7  C   UNL     1     -39.105 -49.426  11.818  1.00  0.00     0.030 A 
HETATM    8  C   UNL     1     -37.676 -49.834  11.773  1.00  0.00     0.070 C 
HETATM    9  N   UNL     1     -39.485 -48.365  11.096  1.00  0.00    -0.303 N 
HETATM   10  N   UNL     1     -40.783 -48.208  11.378  1.00  0.00    -0.300 N 
ATOM     11  HN  UNL     1     -38.911 -47.801  10.469  1.00  0.00     0.186 HD
HETATM   12  C   UNL     1     -41.490 -47.090  10.795  1.00  0.00     0.177 C 
HETATM   13  C   UNL     1     -41.272 -49.158  12.233  1.00  0.00     0.033 A 
HETATM   14  C   UNL     1     -42.682 -49.197  12.705  1.00  0.00     0.070 C 
ENDBRANCH   5   6
ENDBRANCH   1   5
BRANCH   3  15
HETATM   15  C   UNL     1     -42.981 -53.784  13.270  1.00  0.00     0.152 C 
BRANCH  15  16
HETATM   16  C   UNL     1     -44.168 -54.049  14.227  1.00  0.00     0.292 C 
BRANCH  16  17
HETATM   17  N   UNL     1     -45.500 -53.931  13.600  1.00  0.00     0.090 N 
HETATM   18  C   UNL     1     -45.663 -52.774  12.714  1.00  0.00     0.272 C 
HETATM   19  C   UNL     1     -45.696 -51.437  13.454  1.00  0.00     0.030 C 
HETATM   20  C   UNL     1     -46.790 -51.431  14.517  1.00  0.00     0.003 C 
HETATM   21  C   UNL     1     -46.692 -52.657  15.421  1.00  0.00     0.030 C 
HETATM   22  C   UNL     1     -46.574 -53.951  14.610  1.00  0.00     0.272 C 
ENDBRANCH  16  17
ENDBRANCH  15  16
ENDBRANCH   3  15
TORSDOF 5
ENDMDL
MODEL 2
REMARK VINA RESULT:      -5.5      1.812      2.573
REMARK  5 active torsions:
REMARK  status: ('A' for Active; 'I' for Inactive)
REMARK    1  A    between atoms: C_9  and  C_10 
REMARK    2  A    between atoms: C_10  and  C_11 
REMARK       I    between atoms: C_11  and  N_13 
REMARK    3  A    between atoms: N_13  and  C_14 
REMARK    4  A    between atoms: C_14  and  C_15 
REMARK    5  A    between atoms: C_15  and  N_16 
ROOT
HETATM    1  C   UNL     1     -40.221 -51.156  12.013  1.00  0.00     0.222 C 
HETATM    2  O   UNL     1     -39.650 -51.942  12.763  1.00  0.00    -0.273 OA
HETATM    3  N   UNL     1     -41.573 -51.220  11.747  1.00  0.00    -0.359 N 
HETATM    4  H   UNL     1     -41.928 -50.688  10.961  1.00  0.00     0.162 HD
ENDROOT
BRANCH   1   5
HETATM    5  C   UNL     1     -39.488 -50.009  11.348  1.00  0.00     0.145 C 
BRANCH   5   6
HETATM    6  C   UNL     1     -39.705 -48.655  11.953  1.00  0.00    -0.002 A 
HETATM    7  C   UNL     1     -40.612 -47.612  11.598  1.00  0.00     0.030 A 
HETATM    8  C   UNL     1     -41.642 -47.562  10.528  1.00  0.00     0.070 C 
HETATM    9  N   UNL     1     -40.450 -46.533  12.373  1.00  0.00    -0.303 N 
HETATM   10  N   UNL     1     -39.436 -46.846  13.187  1.00  0.00    -0.300 N 
ATOM     11  HN  UNL     1     -40.983 -45.664  12.349  1.00  0.00     0.186 HD
HETATM   12  C   UNL     1     -38.964 -45.852  14.123  1.00  0.00     0.177 C 
HETATM   13  C   UNL     1     -38.956 -48.113  12.993  1.00  0.00     0.033 A 
HETATM   14  C   UNL     1     -37.826 -48.696  13.766  1.00  0.00     0.070 C 
ENDBRANCH   5   6
ENDBRANCH   1   5
BRANCH   3  15
HETATM   15  C   UNL     1     -42.401 -52.307  12.257  1.00  0.00     0.152 C 
BRANCH  15  16
HETATM   16  C   UNL     1     -43.292 -51.901  13.454  1.00  0.00     0.292 C 
BRANCH  16  17
HETATM   17  N   UNL     1     -44.364 -52.865  13.777  1.00  0.00     0.090 N 
HETATM   18  C   UNL     1     -45.492 -52.869  12.839  1.00  0.00     0.272 C 
HETATM   19  C   UNL     1     -46.356 -51.611  12.917  1.00  0.00     0.030 C 
HETATM   20  C   UNL     1     -46.867 -51.389  14.338  1.00  0.00     0.003 C 
HETATM   21  C   UNL     1     -45.727 -51.443  15.351  1.00  0.00     0.030 C 
HETATM   22  C   UNL     1     -44.853 -52.686  15.156  1.00  0.00     0.272 C 
ENDBRANCH  16  17
ENDBRANCH  15  16
ENDBRANCH   3  15
TORSDOF 5
ENDMDL
MODEL 3
REMARK VINA RESULT:      -5.5      1.664      2.014
REMARK  5 active torsions:
REMARK  status: ('A' for Active; 'I' for Inactive)
REMARK    1  A    between atoms: C_9  and  C_10 
REMARK    2  A    between atoms: C_10  and  C_11 
REMARK       I    between atoms: C_11  and  N_13 
REMARK    3  A    between atoms: N_13  and  C_14 
REMARK    4  A    between atoms: C_14  and  C_15 
REMARK    5  A    between atoms: C_15  and  N_16 
ROOT
HETATM    1  C   UNL     1     -41.214 -51.912  12.032  1.00  0.00     0.222 C 
HETATM    2  O   UNL     1     -40.410 -52.828  12.179  1.00  0.00    -0.273 OA
HETATM    3  N   UNL     1     -42.572 -52.067  12.218  1.00  0.00    -0.359 N 
HETATM    4  H   UNL     1     -43.185 -51.341  11.870  1.00  0.00     0.162 HD
ENDROOT
BRANCH   1   5
HETATM    5  C   UNL     1     -40.770 -50.507  11.677  1.00  0.00     0.145 C 
BRANCH   5   6
HETATM    6  C   UNL     1     -39.752 -49.892  12.589  1.00  0.00    -0.002 A 
HETATM    7  C   UNL     1     -38.354 -49.669  12.406  1.00  0.00     0.030 A 
HETATM    8  C   UNL     1     -37.483 -49.961  11.237  1.00  0.00     0.070 C 
HETATM    9  N   UNL     1     -37.794 -49.130  13.495  1.00  0.00    -0.303 N 
HETATM   10  N   UNL     1     -38.791 -49.039  14.382  1.00  0.00    -0.300 N 
ATOM     11  HN  UNL     1     -36.822 -48.849  13.621  1.00  0.00     0.186 HD
HETATM   12  C   UNL     1     -38.498 -48.544  15.707  1.00  0.00     0.177 C 
HETATM   13  C   UNL     1     -39.995 -49.468  13.892  1.00  0.00     0.033 A 
HETATM   14  C   UNL     1     -41.254 -49.475  14.684  1.00  0.00     0.070 C 
ENDBRANCH   5   6
ENDBRANCH   1   5
BRANCH   3  15
HETATM   15  C   UNL     1     -43.159 -53.373  12.495  1.00  0.00     0.152 C 
BRANCH  15  16
HETATM   16  C   UNL     1     -43.959 -53.428  13.818  1.00  0.00     0.292 C 
BRANCH  16  17
HETATM   17  N   UNL     1     -45.403 -53.691  13.652  1.00  0.00     0.090 N 
HETATM   18  C   UNL     1     -46.126 -52.681  12.872  1.00  0.00     0.272 C 
HETATM   19  C   UNL     1     -46.272 -51.341  13.591  1.00  0.00     0.030 C 
HETATM   20  C   UNL     1     -46.943 -51.522  14.950  1.00  0.00     0.003 C 
HETATM   21  C   UNL     1     -46.255 -52.613  15.766  1.00  0.00     0.030 C 
HETATM   22  C   UNL     1     -46.066 -53.897  14.952  1.00  0.00     0.272 C 
ENDBRANCH  16  17
ENDBRANCH  15  16
ENDBRANCH   3  15
TORSDOF 5
ENDMDL
MODEL 4
REMARK VINA RESULT:      -5.4      1.955      6.747
REMARK  5 active torsions:
REMARK  status: ('A' for Active; 'I' for Inactive)
REMARK    1  A    between atoms: C_9  and  C_10 
REMARK    2  A    between atoms: C_10  and  C_11 
REMARK       I    between atoms: C_11  and  N_13 
REMARK    3  A    between atoms: N_13  and  C_14 
REMARK    4  A    between atoms: C_14  and  C_15 
REMARK    5  A    between atoms: C_15  and  N_16 
ROOT
HETATM    1  C   UNL     1     -43.123 -53.710  12.944  1.00  0.00     0.222 C 
HETATM    2  O   UNL     1     -42.285 -54.262  13.651  1.00  0.00    -0.273 OA
HETATM    3  N   UNL     1     -42.795 -52.798  11.964  1.00  0.00    -0.359 N 
HETATM    4  H   UNL     1     -43.537 -52.227  11.578  1.00  0.00     0.162 HD
ENDROOT
BRANCH   1   5
HETATM    5  C   UNL     1     -44.601 -54.026  13.060  1.00  0.00     0.145 C 
BRANCH   5   6
HETATM    6  C   UNL     1     -45.431 -53.015  13.792  1.00  0.00    -0.002 A 
HETATM    7  C   UNL     1     -46.345 -52.034  13.304  1.00  0.00     0.030 A 
HETATM    8  C   UNL     1     -46.773 -51.732  11.913  1.00  0.00     0.070 C 
HETATM    9  N   UNL     1     -46.848 -51.291  14.297  1.00  0.00    -0.303 N 
HETATM   10  N   UNL     1     -46.247 -51.747  15.402  1.00  0.00    -0.300 N 
ATOM     11  HN  UNL     1     -47.537 -50.543  14.228  1.00  0.00     0.186 HD
HETATM   12  C   UNL     1     -46.531 -51.103  16.664  1.00  0.00     0.177 C 
HETATM   13  C   UNL     1     -45.396 -52.792  15.165  1.00  0.00     0.033 A 
HETATM   14  C   UNL     1     -44.603 -53.469  16.227  1.00  0.00     0.070 C 
ENDBRANCH   5   6
ENDBRANCH   1   5
BRANCH   3  15
HETATM   15  C   UNL     1     -41.423 -52.340  11.776  1.00  0.00     0.152 C 
BRANCH  15  16
HETATM   16  C   UNL     1     -41.213 -50.847  12.123  1.00  0.00     0.292 C 
BRANCH  16  17
HETATM   17  N   UNL     1     -40.423 -50.606  13.348  1.00  0.00     0.090 N 
HETATM   18  C   UNL     1     -40.196 -49.192  13.666  1.00  0.00     0.272 C 
HETATM   19  C   UNL     1     -39.241 -48.494  12.699  1.00  0.00     0.030 C 
HETATM   20  C   UNL     1     -37.905 -49.228  12.628  1.00  0.00     0.003 C 
HETATM   21  C   UNL     1     -38.105 -50.718  12.363  1.00  0.00     0.030 C 
HETATM   22  C   UNL     1     -39.139 -51.330  13.312  1.00  0.00     0.272 C 
ENDBRANCH  16  17
ENDBRANCH  15  16
ENDBRANCH   3  15
TORSDOF 5
ENDMDL
MODEL 5
REMARK VINA RESULT:      -5.4      1.666      1.938
REMARK  5 active torsions:
REMARK  status: ('A' for Active; 'I' for Inactive)
REMARK    1  A    between atoms: C_9  and  C_10 
REMARK    2  A    between atoms: C_10  and  C_11 
REMARK       I    between atoms: C_11  and  N_13 
REMARK    3  A    between atoms: N_13  and  C_14 
REMARK    4  A    between atoms: C_14  and  C_15 
REMARK    5  A    between atoms: C_15  and  N_16 
ROOT
HETATM    1  C   UNL     1     -40.277 -51.140  11.978  1.00  0.00     0.222 C 
HETATM    2  O   UNL     1     -39.667 -51.830  12.789  1.00  0.00    -0.273 OA
HETATM    3  N   UNL     1     -41.620 -51.307  11.708  1.00  0.00    -0.359 N 
HETATM    4  H   UNL     1     -41.998 -50.860  10.882  1.00  0.00     0.162 HD
ENDROOT
BRANCH   1   5
HETATM    5  C   UNL     1     -39.609 -50.003  11.231  1.00  0.00     0.145 C 
BRANCH   5   6
HETATM    6  C   UNL     1     -39.780 -48.639  11.827  1.00  0.00    -0.002 A 
HETATM    7  C   UNL     1     -39.094 -48.002  12.905  1.00  0.00     0.030 A 
HETATM    8  C   UNL     1     -37.976 -48.495  13.752  1.00  0.00     0.070 C 
HETATM    9  N   UNL     1     -39.589 -46.785  13.153  1.00  0.00    -0.303 N 
HETATM   10  N   UNL     1     -40.600 -46.644  12.289  1.00  0.00    -0.300 N 
ATOM     11  HN  UNL     1     -39.267 -46.111  13.849  1.00  0.00     0.186 HD
HETATM   12  C   UNL     1     -41.396 -45.439  12.341  1.00  0.00     0.177 C 
HETATM   13  C   UNL     1     -40.755 -47.718  11.455  1.00  0.00     0.033 A 
HETATM   14  C   UNL     1     -41.812 -47.809  10.412  1.00  0.00     0.070 C 
ENDBRANCH   5   6
ENDBRANCH   1   5
BRANCH   3  15
HETATM   15  C   UNL     1     -42.385 -52.402  12.295  1.00  0.00     0.152 C 
BRANCH  15  16
HETATM   16  C   UNL     1     -43.308 -51.963  13.456  1.00  0.00     0.292 C 
BRANCH  16  17
HETATM   17  N   UNL     1     -44.392 -52.916  13.773  1.00  0.00     0.090 N 
HETATM   18  C   UNL     1     -45.530 -52.882  12.848  1.00  0.00     0.272 C 
HETATM   19  C   UNL     1     -46.372 -51.611  12.961  1.00  0.00     0.030 C 
HETATM   20  C   UNL     1     -46.863 -51.409  14.391  1.00  0.00     0.003 C 
HETATM   21  C   UNL     1     -45.712 -51.502  15.390  1.00  0.00     0.030 C 
HETATM   22  C   UNL     1     -44.862 -52.755  15.160  1.00  0.00     0.272 C 
ENDBRANCH  16  17
ENDBRANCH  15  16
ENDBRANCH   3  15
TORSDOF 5
ENDMDL
MODEL 6
REMARK VINA RESULT:      -5.4      2.265      3.640
REMARK  5 active torsions:
REMARK  status: ('A' for Active; 'I' for Inactive)
REMARK    1  A    between atoms: C_9  and  C_10 
REMARK    2  A    between atoms: C_10  and  C_11 
REMARK       I    between atoms: C_11  and  N_13 
REMARK    3  A    between atoms: N_13  and  C_14 
REMARK    4  A    between atoms: C_14  and  C_15 
REMARK    5  A    between atoms: C_15  and  N_16 
ROOT
HETATM    1  C   UNL     1     -41.669 -49.506  11.763  1.00  0.00     0.222 C 
HETATM    2  O   UNL     1     -42.167 -49.095  12.807  1.00  0.00    -0.273 OA
HETATM    3  N   UNL     1     -41.463 -50.846  11.506  1.00  0.00    -0.359 N 
HETATM    4  H   UNL     1     -40.855 -51.094  10.735  1.00  0.00     0.162 HD
ENDROOT
BRANCH   1   5
HETATM    5  C   UNL     1     -41.278 -48.569  10.638  1.00  0.00     0.145 C 
BRANCH   5   6
HETATM    6  C   UNL     1     -41.923 -47.216  10.660  1.00  0.00    -0.002 A 
HETATM    7  C   UNL     1     -43.110 -46.742  10.024  1.00  0.00     0.030 A 
HETATM    8  C   UNL     1     -44.086 -47.458   9.162  1.00  0.00     0.070 C 
HETATM    9  N   UNL     1     -43.311 -45.441  10.265  1.00  0.00    -0.303 N 
HETATM   10  N   UNL     1     -42.262 -45.064  11.004  1.00  0.00    -0.300 N 
ATOM     11  HN  UNL     1     -44.092 -44.864   9.953  1.00  0.00     0.186 HD
HETATM   12  C   UNL     1     -42.145 -43.676  11.388  1.00  0.00     0.177 C 
HETATM   13  C   UNL     1     -41.401 -46.090  11.287  1.00  0.00     0.033 A 
HETATM   14  C   UNL     1     -40.156 -45.926  12.086  1.00  0.00     0.070 C 
ENDBRANCH   5   6
ENDBRANCH   1   5
BRANCH   3  15
HETATM   15  C   UNL     1     -41.723 -51.865  12.516  1.00  0.00     0.152 C 
BRANCH  15  16
HETATM   16  C   UNL     1     -43.032 -52.655  12.280  1.00  0.00     0.292 C 
BRANCH  16  17
HETATM   17  N   UNL     1     -43.710 -53.105  13.513  1.00  0.00     0.090 N 
HETATM   18  C   UNL     1     -45.023 -53.723  13.302  1.00  0.00     0.272 C 
HETATM   19  C   UNL     1     -46.100 -52.734  12.859  1.00  0.00     0.030 C 
HETATM   20  C   UNL     1     -46.225 -51.583  13.853  1.00  0.00     0.003 C 
HETATM   21  C   UNL     1     -44.865 -50.956  14.146  1.00  0.00     0.030 C 
HETATM   22  C   UNL     1     -43.815 -52.015  14.498  1.00  0.00     0.272 C 
ENDBRANCH  16  17
ENDBRANCH  15  16
ENDBRANCH   3  15
TORSDOF 5
ENDMDL
MODEL 7
REMARK VINA RESULT:      -5.2      1.676      6.806
REMARK  5 active torsions:
REMARK  status: ('A' for Active; 'I' for Inactive)
REMARK    1  A    between atoms: C_9  and  C_10 
REMARK    2  A    between atoms: C_10  and  C_11 
REMARK       I    between atoms: C_11  and  N_13 
REMARK    3  A    between atoms: N_13  and  C_14 
REMARK    4  A    between atoms: C_14  and  C_15 
REMARK    5  A    between atoms: C_15  and  N_16 
ROOT
HETATM    1  C   UNL     1     -42.247 -52.650  12.246  1.00  0.00     0.222 C 
HETATM    2  O   UNL     1     -41.236 -53.277  12.548  1.00  0.00    -0.273 OA
HETATM    3  N   UNL     1     -42.226 -51.318  11.888  1.00  0.00    -0.359 N 
HETATM    4  H   UNL     1     -43.106 -50.818  11.868  1.00  0.00     0.162 HD
ENDROOT
BRANCH   1   5
HETATM    5  C   UNL     1     -43.612 -53.308  12.196  1.00  0.00     0.145 C 
BRANCH   5   6
HETATM    6  C   UNL     1     -44.412 -53.254  13.462  1.00  0.00    -0.002 A 
HETATM    7  C   UNL     1     -44.257 -53.964  14.691  1.00  0.00     0.030 A 
HETATM    8  C   UNL     1     -43.233 -54.961  15.098  1.00  0.00     0.070 C 
HETATM    9  N   UNL     1     -45.223 -53.654  15.563  1.00  0.00    -0.303 N 
HETATM   10  N   UNL     1     -46.012 -52.795  14.909  1.00  0.00    -0.300 N 
ATOM     11  HN  UNL     1     -45.333 -53.997  16.517  1.00  0.00     0.186 HD
HETATM   12  C   UNL     1     -47.204 -52.308  15.565  1.00  0.00     0.177 C 
HETATM   13  C   UNL     1     -45.569 -52.504  13.647  1.00  0.00     0.033 A 
HETATM   14  C   UNL     1     -46.275 -51.584  12.715  1.00  0.00     0.070 C 
ENDBRANCH   5   6
ENDBRANCH   1   5
BRANCH   3  15
HETATM   15  C   UNL     1     -41.001 -50.530  11.954  1.00  0.00     0.152 C 
BRANCH  15  16
HETATM   16  C   UNL     1     -41.072 -49.203  11.162  1.00  0.00     0.292 C 
BRANCH  16  17
HETATM   17  N   UNL     1     -41.583 -48.052  11.935  1.00  0.00     0.090 N 
HETATM   18  C   UNL     1     -42.733 -47.369  11.334  1.00  0.00     0.272 C 
HETATM   19  C   UNL     1     -42.388 -46.591  10.065  1.00  0.00     0.030 C 
HETATM   20  C   UNL     1     -41.271 -45.585  10.331  1.00  0.00     0.003 C 
HETATM   21  C   UNL     1     -40.079 -46.249  11.016  1.00  0.00     0.030 C 
HETATM   22  C   UNL     1     -40.513 -47.082  12.227  1.00  0.00     0.272 C 
ENDBRANCH  16  17
ENDBRANCH  15  16
ENDBRANCH   3  15
TORSDOF 5
ENDMDL
MODEL 8
REMARK VINA RESULT:      -5.0      3.354      4.457
REMARK  5 active torsions:
REMARK  status: ('A' for Active; 'I' for Inactive)
REMARK    1  A    between atoms: C_9  and  C_10 
REMARK    2  A    between atoms: C_10  and  C_11 
REMARK       I    between atoms: C_11  and  N_13 
REMARK    3  A    between atoms: N_13  and  C_14 
REMARK    4  A    between atoms: C_14  and  C_15 
REMARK    5  A    between atoms: C_15  and  N_16 
ROOT
HETATM    1  C   UNL     1     -42.046 -55.335  16.275  1.00  0.00     0.222 C 
HETATM    2  O   UNL     1     -42.651 -56.401  16.195  1.00  0.00    -0.273 OA
HETATM    3  N   UNL     1     -42.655 -54.152  16.638  1.00  0.00    -0.359 N 
HETATM    4  H   UNL     1     -42.153 -53.289  16.470  1.00  0.00     0.162 HD
ENDROOT
BRANCH   1   5
HETATM    5  C   UNL     1     -40.555 -55.241  16.024  1.00  0.00     0.145 C 
BRANCH   5   6
HETATM    6  C   UNL     1     -40.087 -54.005  15.317  1.00  0.00    -0.002 A 
HETATM    7  C   UNL     1     -40.267 -53.582  13.966  1.00  0.00     0.030 A 
HETATM    8  C   UNL     1     -41.001 -54.233  12.849  1.00  0.00     0.070 C 
HETATM    9  N   UNL     1     -39.642 -52.424  13.724  1.00  0.00    -0.303 N 
HETATM   10  N   UNL     1     -39.035 -52.117  14.875  1.00  0.00    -0.300 N 
ATOM     11  HN  UNL     1     -39.632 -51.892  12.854  1.00  0.00     0.186 HD
HETATM   12  C   UNL     1     -38.209 -50.933  14.931  1.00  0.00     0.177 C 
HETATM   13  C   UNL     1     -39.276 -53.021  15.874  1.00  0.00     0.033 A 
HETATM   14  C   UNL     1     -38.708 -52.909  17.245  1.00  0.00     0.070 C 
ENDBRANCH   5   6
ENDBRANCH   1   5
BRANCH   3  15
HETATM   15  C   UNL     1     -44.096 -54.067  16.845  1.00  0.00     0.152 C 
BRANCH  15  16
HETATM   16  C   UNL     1     -44.886 -53.688  15.570  1.00  0.00     0.292 C 
BRANCH  16  17
HETATM   17  N   UNL     1     -44.476 -52.411  14.950  1.00  0.00     0.090 N 
HETATM   18  C   UNL     1     -45.397 -51.292  15.182  1.00  0.00     0.272 C 
HETATM   19  C   UNL     1     -46.726 -51.431  14.441  1.00  0.00     0.030 C 
HETATM   20  C   UNL     1     -46.498 -51.610  12.943  1.00  0.00     0.003 C 
HETATM   21  C   UNL     1     -45.494 -52.726  12.665  1.00  0.00     0.030 C 
HETATM   22  C   UNL     1     -44.224 -52.569  13.507  1.00  0.00     0.272 C 
ENDBRANCH  16  17
ENDBRANCH  15  16
ENDBRANCH   3  15
TORSDOF 5
ENDMDL
MODEL 9
REMARK VINA RESULT:      -5.0      1.860      6.943
REMARK  5 active torsions:
REMARK  status: ('A' for Active; 'I' for Inactive)
REMARK    1  A    between atoms: C_9  and  C_10 
REMARK    2  A    between atoms: C_10  and  C_11 
REMARK       I    between atoms: C_11  and  N_13 
REMARK    3  A    between atoms: N_13  and  C_14 
REMARK    4  A    between atoms: C_14  and  C_15 
REMARK    5  A    between atoms: C_15  and  N_16 
ROOT
HETATM    1  C   UNL     1     -42.517 -52.587  12.352  1.00  0.00     0.222 C 
HETATM    2  O   UNL     1     -41.406 -53.073  12.539  1.00  0.00    -0.273 OA
HETATM    3  N   UNL     1     -42.721 -51.239  12.137  1.00  0.00    -0.359 N 
HETATM    4  H   UNL     1     -43.666 -50.884  12.211  1.00  0.00     0.162 HD
ENDROOT
BRANCH   1   5
HETATM    5  C   UNL     1     -43.766 -53.443  12.294  1.00  0.00     0.145 C 
BRANCH   5   6
HETATM    6  C   UNL     1     -44.675 -53.357  13.483  1.00  0.00    -0.002 A 
HETATM    7  C   UNL     1     -45.839 -52.562  13.709  1.00  0.00     0.030 A 
HETATM    8  C   UNL     1     -46.522 -51.590  12.816  1.00  0.00     0.070 C 
HETATM    9  N   UNL     1     -46.335 -52.753  14.936  1.00  0.00    -0.303 N 
HETATM   10  N   UNL     1     -45.496 -53.619  15.514  1.00  0.00    -0.300 N 
ATOM     11  HN  UNL     1     -47.171 -52.332  15.342  1.00  0.00     0.186 HD
HETATM   12  C   UNL     1     -45.721 -53.992  16.891  1.00  0.00     0.177 C 
HETATM   13  C   UNL     1     -44.486 -54.030  14.686  1.00  0.00     0.033 A 
HETATM   14  C   UNL     1     -43.419 -54.983  15.095  1.00  0.00     0.070 C 
ENDBRANCH   5   6
ENDBRANCH   1   5
BRANCH   3  15
HETATM   15  C   UNL     1     -41.628 -50.278  12.231  1.00  0.00     0.152 C 
BRANCH  15  16
HETATM   16  C   UNL     1     -42.052 -48.910  12.815  1.00  0.00     0.292 C 
BRANCH  16  17
HETATM   17  N   UNL     1     -42.437 -47.903  11.804  1.00  0.00     0.090 N 
HETATM   18  C   UNL     1     -41.444 -47.680  10.748  1.00  0.00     0.272 C 
HETATM   19  C   UNL     1     -40.183 -46.968  11.235  1.00  0.00     0.030 C 
HETATM   20  C   UNL     1     -40.531 -45.642  11.905  1.00  0.00     0.003 C 
HETATM   21  C   UNL     1     -41.611 -45.825  12.968  1.00  0.00     0.030 C 
HETATM   22  C   UNL     1     -42.805 -46.622  12.433  1.00  0.00     0.272 C 
ENDBRANCH  16  17
ENDBRANCH  15  16
ENDBRANCH   3  15
TORSDOF 5
ENDMDL
