MODEL 1
REMARK VINA RESULT:      -6.1      0.000      0.000
REMARK  4 active torsions:
REMARK  status: ('A' for Active; 'I' for Inactive)
REMARK    1  A    between atoms: C_2  and  C_3 
REMARK    2  A    between atoms: C_2  and  N_15 
REMARK    3  A    between atoms: C_3  and  N_4 
REMARK       I    between atoms: N_4  and  C_5 
REMARK       I    between atoms: C_5  and  N_7 
REMARK    4  A    between atoms: N_7  and  C_8 
ROOT
HETATM    1  N   UNL     1     -42.182 -52.092  12.176  1.00  0.00    -0.341 N 
HETATM    2  C   UNL     1     -40.846 -52.343  12.230  1.00  0.00     0.322 C 
HETATM    3  O   UNL     1     -40.376 -53.433  12.539  1.00  0.00    -0.247 OA
HETATM    4  N   UNL     1     -40.008 -51.320  11.891  1.00  0.00    -0.288 N 
HETATM    5  H   UNL     1     -42.493 -51.162  11.907  1.00  0.00     0.164 HD
HETATM    6  H   UNL     1     -39.024 -51.537  11.884  1.00  0.00     0.172 HD
ENDROOT
BRANCH   1   7
HETATM    7  C   UNL     1     -43.202 -53.090  12.415  1.00  0.00     0.159 C 
BRANCH   7   8
HETATM    8  C   UNL     1     -43.611 -53.228  13.910  1.00  0.00     0.236 C 
HETATM    9  C   UNL     1     -43.313 -54.657  14.397  1.00  0.00     0.044 C 
BRANCH   8  10
HETATM   10  N   UNL     1     -45.043 -52.888  14.084  1.00  0.00     0.094 N 
HETATM   11  C   UNL     1     -45.714 -52.615  12.802  1.00  0.00     0.273 C 
HETATM   12  C   UNL     1     -46.816 -51.609  13.103  1.00  0.00     0.032 C 
HETATM   13  C   UNL     1     -46.734 -51.376  14.598  1.00  0.00     0.032 C 
HETATM   14  C   UNL     1     -45.293 -51.719  14.929  1.00  0.00     0.273 C 
ENDBRANCH   8  10
ENDBRANCH   7   8
ENDBRANCH   1   7
BRANCH   4  15
HETATM   15  C   UNL     1     -40.415 -50.085  11.474  1.00  0.00     0.168 A 
HETATM   16  N   UNL     1     -40.666 -49.681  10.248  1.00  0.00    -0.279 N 
HETATM   17  N   UNL     1     -40.982 -48.341  10.204  1.00  0.00    -0.303 N 
ATOM     18  HN  UNL     1     -40.632 -50.287   9.429  1.00  0.00     0.189 HD
HETATM   19  C   UNL     1     -40.951 -47.799  11.402  1.00  0.00     0.160 A 
ATOM     20  HN  UNL     1     -41.210 -47.833   9.349  1.00  0.00     0.186 HD
HETATM   21  S   UNL     1     -40.577 -48.892  12.678  1.00  0.00    -0.046 SA
ENDBRANCH   4  15
TORSDOF 4
ENDMDL
MODEL 2
REMARK VINA RESULT:      -5.8      1.932      2.512
REMARK  4 active torsions:
REMARK  status: ('A' for Active; 'I' for Inactive)
REMARK    1  A    between atoms: C_2  and  C_3 
REMARK    2  A    between atoms: C_2  and  N_15 
REMARK    3  A    between atoms: C_3  and  N_4 
REMARK       I    between atoms: N_4  and  C_5 
REMARK       I    between atoms: C_5  and  N_7 
REMARK    4  A    between atoms: N_7  and  C_8 
ROOT
HETATM    1  N   UNL     1     -41.524 -50.740  11.512  1.00  0.00    -0.341 N 
HETATM    2  C   UNL     1     -40.480 -49.875  11.389  1.00  0.00     0.322 C 
HETATM    3  O   UNL     1     -39.331 -50.154  11.711  1.00  0.00    -0.247 OA
HETATM    4  N   UNL     1     -40.751 -48.650  10.850  1.00  0.00    -0.288 N 
HETATM    5  H   UNL     1     -42.448 -50.434  11.217  1.00  0.00     0.164 HD
HETATM    6  H   UNL     1     -39.959 -48.040  10.717  1.00  0.00     0.172 HD
ENDROOT
BRANCH   1   7
HETATM    7  C   UNL     1     -41.392 -52.103  11.976  1.00  0.00     0.159 C 
BRANCH   7   8
HETATM    8  C   UNL     1     -42.385 -52.480  13.114  1.00  0.00     0.236 C 
HETATM    9  C   UNL     1     -42.324 -53.996  13.371  1.00  0.00     0.044 C 
BRANCH   8  10
HETATM   10  N   UNL     1     -43.758 -52.049  12.760  1.00  0.00     0.094 N 
HETATM   11  C   UNL     1     -44.362 -51.195  13.797  1.00  0.00     0.273 C 
HETATM   12  C   UNL     1     -45.862 -51.447  13.738  1.00  0.00     0.032 C 
HETATM   13  C   UNL     1     -46.046 -52.443  12.611  1.00  0.00     0.032 C 
HETATM   14  C   UNL     1     -44.702 -53.146  12.539  1.00  0.00     0.273 C 
ENDBRANCH   8  10
ENDBRANCH   7   8
ENDBRANCH   1   7
BRANCH   4  15
HETATM   15  C   UNL     1     -41.976 -48.248  10.401  1.00  0.00     0.168 A 
HETATM   16  N   UNL     1     -42.448 -48.293   9.174  1.00  0.00    -0.279 N 
HETATM   17  N   UNL     1     -43.701 -47.728   9.085  1.00  0.00    -0.303 N 
ATOM     18  HN  UNL     1     -41.947 -48.699   8.384  1.00  0.00     0.189 HD
HETATM   19  C   UNL     1     -44.111 -47.282  10.253  1.00  0.00     0.160 A 
ATOM     20  HN  UNL     1     -44.241 -47.663   8.222  1.00  0.00     0.186 HD
HETATM   21  S   UNL     1     -43.019 -47.557  11.554  1.00  0.00    -0.046 SA
ENDBRANCH   4  15
TORSDOF 4
ENDMDL
MODEL 3
REMARK VINA RESULT:      -5.7      1.324      2.033
REMARK  4 active torsions:
REMARK  status: ('A' for Active; 'I' for Inactive)
REMARK    1  A    between atoms: C_2  and  C_3 
REMARK    2  A    between atoms: C_2  and  N_15 
REMARK    3  A    between atoms: C_3  and  N_4 
REMARK       I    between atoms: N_4  and  C_5 
REMARK       I    between atoms: C_5  and  N_7 
REMARK    4  A    between atoms: N_7  and  C_8 
ROOT
HETATM    1  N   UNL     1     -41.914 -51.199  12.824  1.00  0.00    -0.341 N 
HETATM    2  C   UNL     1     -40.960 -51.749  12.024  1.00  0.00     0.322 C 
HETATM    3  O   UNL     1     -40.708 -52.948  12.003  1.00  0.00    -0.247 OA
HETATM    4  N   UNL     1     -40.286 -50.903  11.191  1.00  0.00    -0.288 N 
HETATM    5  H   UNL     1     -42.067 -50.194  12.780  1.00  0.00     0.164 HD
HETATM    6  H   UNL     1     -39.621 -51.333  10.567  1.00  0.00     0.172 HD
ENDROOT
BRANCH   1   7
HETATM    7  C   UNL     1     -42.779 -51.964  13.695  1.00  0.00     0.159 C 
BRANCH   7   8
HETATM    8  C   UNL     1     -44.293 -51.653  13.510  1.00  0.00     0.236 C 
HETATM    9  C   UNL     1     -44.797 -50.819  14.702  1.00  0.00     0.044 C 
BRANCH   8  10
HETATM   10  N   UNL     1     -45.062 -52.912  13.371  1.00  0.00     0.094 N 
HETATM   11  C   UNL     1     -46.176 -52.997  14.331  1.00  0.00     0.273 C 
HETATM   12  C   UNL     1     -46.371 -54.477  14.628  1.00  0.00     0.032 C 
HETATM   13  C   UNL     1     -45.344 -55.186  13.768  1.00  0.00     0.032 C 
HETATM   14  C   UNL     1     -44.273 -54.132  13.556  1.00  0.00     0.273 C 
ENDBRANCH   8  10
ENDBRANCH   7   8
ENDBRANCH   1   7
BRANCH   4  15
HETATM   15  C   UNL     1     -40.522 -49.562  11.083  1.00  0.00     0.168 A 
HETATM   16  N   UNL     1     -41.338 -48.943  10.260  1.00  0.00    -0.279 N 
HETATM   17  N   UNL     1     -41.256 -47.574  10.387  1.00  0.00    -0.303 N 
ATOM     18  HN  UNL     1     -41.960 -49.419   9.606  1.00  0.00     0.189 HD
HETATM   19  C   UNL     1     -40.376 -47.228  11.303  1.00  0.00     0.160 A 
ATOM     20  HN  UNL     1     -41.807 -46.912   9.840  1.00  0.00     0.186 HD
HETATM   21  S   UNL     1     -39.616 -48.547  12.106  1.00  0.00    -0.046 SA
ENDBRANCH   4  15
TORSDOF 4
ENDMDL
MODEL 4
REMARK VINA RESULT:      -5.6      3.914      6.062
REMARK  4 active torsions:
REMARK  status: ('A' for Active; 'I' for Inactive)
REMARK    1  A    between atoms: C_2  and  C_3 
REMARK    2  A    between atoms: C_2  and  N_15 
REMARK    3  A    between atoms: C_3  and  N_4 
REMARK       I    between atoms: N_4  and  C_5 
REMARK       I    between atoms: C_5  and  N_7 
REMARK    4  A    between atoms: N_7  and  C_8 
ROOT
HETATM    1  N   UNL     1     -42.696 -48.598  10.902  1.00  0.00    -0.341 N 
HETATM    2  C   UNL     1     -42.101 -47.568  10.242  1.00  0.00     0.322 C 
HETATM    3  O   UNL     1     -41.044 -47.060  10.599  1.00  0.00    -0.247 OA
HETATM    4  N   UNL     1     -42.718 -47.116   9.112  1.00  0.00    -0.288 N 
HETATM    5  H   UNL     1     -43.571 -48.968  10.540  1.00  0.00     0.164 HD
HETATM    6  H   UNL     1     -42.237 -46.389   8.605  1.00  0.00     0.172 HD
ENDROOT
BRANCH   1   7
HETATM    7  C   UNL     1     -42.128 -49.252  12.060  1.00  0.00     0.159 C 
BRANCH   7   8
HETATM    8  C   UNL     1     -41.146 -50.408  11.711  1.00  0.00     0.236 C 
HETATM    9  C   UNL     1     -41.762 -51.754  12.133  1.00  0.00     0.044 C 
BRANCH   8  10
HETATM   10  N   UNL     1     -39.837 -50.186  12.371  1.00  0.00     0.094 N 
HETATM   11  C   UNL     1     -38.808 -49.717  11.429  1.00  0.00     0.273 C 
HETATM   12  C   UNL     1     -37.478 -50.237  11.957  1.00  0.00     0.032 C 
HETATM   13  C   UNL     1     -37.826 -50.976  13.233  1.00  0.00     0.032 C 
HETATM   14  C   UNL     1     -39.277 -51.370  13.027  1.00  0.00     0.273 C 
ENDBRANCH   8  10
ENDBRANCH   7   8
ENDBRANCH   1   7
BRANCH   4  15
HETATM   15  C   UNL     1     -43.863 -47.642   8.585  1.00  0.00     0.168 A 
HETATM   16  N   UNL     1     -44.026 -48.242   7.426  1.00  0.00    -0.279 N 
HETATM   17  N   UNL     1     -45.343 -48.574   7.200  1.00  0.00    -0.303 N 
ATOM     18  HN  UNL     1     -43.267 -48.439   6.773  1.00  0.00     0.189 HD
HETATM   19  C   UNL     1     -46.111 -48.206   8.203  1.00  0.00     0.160 A 
ATOM     20  HN  UNL     1     -45.680 -49.047   6.361  1.00  0.00     0.186 HD
HETATM   21  S   UNL     1     -45.278 -47.465   9.514  1.00  0.00    -0.046 SA
ENDBRANCH   4  15
TORSDOF 4
ENDMDL
MODEL 5
REMARK VINA RESULT:      -5.3      1.975      2.791
REMARK  4 active torsions:
REMARK  status: ('A' for Active; 'I' for Inactive)
REMARK    1  A    between atoms: C_2  and  C_3 
REMARK    2  A    between atoms: C_2  and  N_15 
REMARK    3  A    between atoms: C_3  and  N_4 
REMARK       I    between atoms: N_4  and  C_5 
REMARK       I    between atoms: C_5  and  N_7 
REMARK    4  A    between atoms: N_7  and  C_8 
ROOT
HETATM    1  N   UNL     1     -39.306 -51.571  13.112  1.00  0.00    -0.341 N 
HETATM    2  C   UNL     1     -38.168 -51.202  12.462  1.00  0.00     0.322 C 
HETATM    3  O   UNL     1     -37.085 -51.750  12.634  1.00  0.00    -0.247 OA
HETATM    4  N   UNL     1     -38.274 -50.187  11.554  1.00  0.00    -0.288 N 
HETATM    5  H   UNL     1     -40.167 -51.069  12.910  1.00  0.00     0.164 HD
HETATM    6  H   UNL     1     -37.435 -49.961  11.042  1.00  0.00     0.172 HD
ENDROOT
BRANCH   1   7
HETATM    7  C   UNL     1     -39.385 -52.683  14.033  1.00  0.00     0.159 C 
BRANCH   7   8
HETATM    8  C   UNL     1     -40.806 -52.907  14.628  1.00  0.00     0.236 C 
HETATM    9  C   UNL     1     -40.916 -54.343  15.174  1.00  0.00     0.044 C 
BRANCH   8  10
HETATM   10  N   UNL     1     -41.841 -52.642  13.601  1.00  0.00     0.094 N 
HETATM   11  C   UNL     1     -42.858 -51.684  14.065  1.00  0.00     0.273 C 
HETATM   12  C   UNL     1     -44.150 -52.055  13.351  1.00  0.00     0.032 C 
HETATM   13  C   UNL     1     -43.783 -53.226  12.462  1.00  0.00     0.032 C 
HETATM   14  C   UNL     1     -42.574 -53.828  13.155  1.00  0.00     0.273 C 
ENDBRANCH   8  10
ENDBRANCH   7   8
ENDBRANCH   1   7
BRANCH   4  15
HETATM   15  C   UNL     1     -39.436 -49.545  11.235  1.00  0.00     0.168 A 
HETATM   16  N   UNL     1     -40.344 -49.895  10.351  1.00  0.00    -0.279 N 
HETATM   17  N   UNL     1     -41.348 -48.959  10.246  1.00  0.00    -0.303 N 
ATOM     18  HN  UNL     1     -40.309 -50.758   9.807  1.00  0.00     0.189 HD
HETATM   19  C   UNL     1     -41.146 -47.944  11.059  1.00  0.00     0.160 A 
ATOM     20  HN  UNL     1     -42.147 -49.042   9.618  1.00  0.00     0.186 HD
HETATM   21  S   UNL     1     -39.739 -48.077  12.041  1.00  0.00    -0.046 SA
ENDBRANCH   4  15
TORSDOF 4
ENDMDL
MODEL 6
REMARK VINA RESULT:      -5.3      3.620      6.759
REMARK  4 active torsions:
REMARK  status: ('A' for Active; 'I' for Inactive)
REMARK    1  A    between atoms: C_2  and  C_3 
REMARK    2  A    between atoms: C_2  and  N_15 
REMARK    3  A    between atoms: C_3  and  N_4 
REMARK       I    between atoms: N_4  and  C_5 
REMARK       I    between atoms: C_5  and  N_7 
REMARK    4  A    between atoms: N_7  and  C_8 
ROOT
HETATM    1  N   UNL     1     -40.045 -50.054  12.122  1.00  0.00    -0.341 N 
HETATM    2  C   UNL     1     -41.346 -49.949  11.735  1.00  0.00     0.322 C 
HETATM    3  O   UNL     1     -41.839 -48.912  11.304  1.00  0.00    -0.247 OA
HETATM    4  N   UNL     1     -42.110 -51.077  11.813  1.00  0.00    -0.288 N 
HETATM    5  H   UNL     1     -39.710 -50.952  12.464  1.00  0.00     0.164 HD
HETATM    6  H   UNL     1     -43.055 -50.997  11.472  1.00  0.00     0.172 HD
ENDROOT
BRANCH   1   7
HETATM    7  C   UNL     1     -39.081 -48.982  12.016  1.00  0.00     0.159 C 
BRANCH   7   8
HETATM    8  C   UNL     1     -37.709 -49.301  12.679  1.00  0.00     0.236 C 
HETATM    9  C   UNL     1     -37.330 -50.767  12.402  1.00  0.00     0.044 C 
BRANCH   8  10
HETATM   10  N   UNL     1     -37.767 -49.026  14.135  1.00  0.00     0.094 N 
HETATM   11  C   UNL     1     -37.177 -47.722  14.482  1.00  0.00     0.273 C 
HETATM   12  C   UNL     1     -36.612 -47.871  15.888  1.00  0.00     0.032 C 
HETATM   13  C   UNL     1     -36.947 -49.292  16.295  1.00  0.00     0.032 C 
HETATM   14  C   UNL     1     -37.082 -50.016  14.968  1.00  0.00     0.273 C 
ENDBRANCH   8  10
ENDBRANCH   7   8
ENDBRANCH   1   7
BRANCH   4  15
HETATM   15  C   UNL     1     -41.656 -52.300  12.217  1.00  0.00     0.168 A 
HETATM   16  N   UNL     1     -41.007 -53.202  11.514  1.00  0.00    -0.279 N 
HETATM   17  N   UNL     1     -40.778 -54.351  12.238  1.00  0.00    -0.303 N 
ATOM     18  HN  UNL     1     -40.709 -53.067  10.548  1.00  0.00     0.189 HD
HETATM   19  C   UNL     1     -41.269 -54.258  13.455  1.00  0.00     0.160 A 
ATOM     20  HN  UNL     1     -40.290 -55.170  11.875  1.00  0.00     0.186 HD
HETATM   21  S   UNL     1     -42.008 -52.748  13.821  1.00  0.00    -0.046 SA
ENDBRANCH   4  15
TORSDOF 4
ENDMDL
MODEL 7
REMARK VINA RESULT:      -5.2      1.964      3.136
REMARK  4 active torsions:
REMARK  status: ('A' for Active; 'I' for Inactive)
REMARK    1  A    between atoms: C_2  and  C_3 
REMARK    2  A    between atoms: C_2  and  N_15 
REMARK    3  A    between atoms: C_3  and  N_4 
REMARK       I    between atoms: N_4  and  C_5 
REMARK       I    between atoms: C_5  and  N_7 
REMARK    4  A    between atoms: N_7  and  C_8 
ROOT
HETATM    1  N   UNL     1     -41.889 -50.600  11.773  1.00  0.00    -0.341 N 
HETATM    2  C   UNL     1     -40.613 -50.136  11.670  1.00  0.00     0.322 C 
HETATM    3  O   UNL     1     -39.635 -50.754  12.074  1.00  0.00    -0.247 OA
HETATM    4  N   UNL     1     -40.441 -48.930  11.053  1.00  0.00    -0.288 N 
HETATM    5  H   UNL     1     -42.646 -50.029  11.408  1.00  0.00     0.164 HD
HETATM    6  H   UNL     1     -39.487 -48.625  10.936  1.00  0.00     0.172 HD
ENDROOT
BRANCH   1   7
HETATM    7  C   UNL     1     -42.235 -51.896  12.314  1.00  0.00     0.159 C 
BRANCH   7   8
HETATM    8  C   UNL     1     -43.551 -51.901  13.144  1.00  0.00     0.236 C 
HETATM    9  C   UNL     1     -43.788 -50.503  13.744  1.00  0.00     0.044 C 
BRANCH   8  10
HETATM   10  N   UNL     1     -43.487 -52.936  14.203  1.00  0.00     0.094 N 
HETATM   11  C   UNL     1     -42.128 -53.096  14.747  1.00  0.00     0.273 C 
HETATM   12  C   UNL     1     -42.012 -54.551  15.181  1.00  0.00     0.032 C 
HETATM   13  C   UNL     1     -43.367 -55.158  14.880  1.00  0.00     0.032 C 
HETATM   14  C   UNL     1     -43.913 -54.270  13.777  1.00  0.00     0.273 C 
ENDBRANCH   8  10
ENDBRANCH   7   8
ENDBRANCH   1   7
BRANCH   4  15
HETATM   15  C   UNL     1     -41.445 -48.181  10.509  1.00  0.00     0.168 A 
HETATM   16  N   UNL     1     -41.968 -48.269   9.306  1.00  0.00    -0.279 N 
HETATM   17  N   UNL     1     -42.914 -47.294   9.084  1.00  0.00    -0.303 N 
ATOM     18  HN  UNL     1     -41.705 -48.977   8.620  1.00  0.00     0.189 HD
HETATM   19  C   UNL     1     -43.057 -46.515  10.134  1.00  0.00     0.160 A 
ATOM     20  HN  UNL     1     -43.438 -47.189   8.215  1.00  0.00     0.186 HD
HETATM   21  S   UNL     1     -42.080 -46.939  11.485  1.00  0.00    -0.046 SA
ENDBRANCH   4  15
TORSDOF 4
ENDMDL
MODEL 8
REMARK VINA RESULT:      -5.1      2.264      3.705
REMARK  4 active torsions:
REMARK  status: ('A' for Active; 'I' for Inactive)
REMARK    1  A    between atoms: C_2  and  C_3 
REMARK    2  A    between atoms: C_2  and  N_15 
REMARK    3  A    between atoms: C_3  and  N_4 
REMARK       I    between atoms: N_4  and  C_5 
REMARK       I    between atoms: C_5  and  N_7 
REMARK    4  A    between atoms: N_7  and  C_8 
ROOT
HETATM    1  N   UNL     1     -43.644 -51.878  12.532  1.00  0.00    -0.341 N 
HETATM    2  C   UNL     1     -43.963 -50.808  13.311  1.00  0.00     0.322 C 
HETATM    3  O   UNL     1     -44.853 -50.829  14.153  1.00  0.00    -0.247 OA
HETATM    4  N   UNL     1     -43.216 -49.677  13.145  1.00  0.00    -0.288 N 
HETATM    5  H   UNL     1     -42.888 -51.783  11.858  1.00  0.00     0.164 HD
HETATM    6  H   UNL     1     -43.429 -48.911  13.766  1.00  0.00     0.172 HD
ENDROOT
BRANCH   1   7
HETATM    7  C   UNL     1     -44.273 -53.176  12.645  1.00  0.00     0.159 C 
BRANCH   7   8
HETATM    8  C   UNL     1     -43.381 -54.249  13.334  1.00  0.00     0.236 C 
HETATM    9  C   UNL     1     -44.115 -54.820  14.561  1.00  0.00     0.044 C 
BRANCH   8  10
HETATM   10  N   UNL     1     -42.074 -53.664  13.714  1.00  0.00     0.094 N 
HETATM   11  C   UNL     1     -40.956 -54.251  12.957  1.00  0.00     0.273 C 
HETATM   12  C   UNL     1     -39.741 -54.189  13.873  1.00  0.00     0.032 C 
HETATM   13  C   UNL     1     -40.240 -53.518  15.137  1.00  0.00     0.032 C 
HETATM   14  C   UNL     1     -41.728 -53.813  15.129  1.00  0.00     0.273 C 
ENDBRANCH   8  10
ENDBRANCH   7   8
ENDBRANCH   1   7
BRANCH   4  15
HETATM   15  C   UNL     1     -42.164 -49.556  12.284  1.00  0.00     0.168 A 
HETATM   16  N   UNL     1     -42.169 -49.107  11.048  1.00  0.00    -0.279 N 
HETATM   17  N   UNL     1     -40.928 -49.204  10.460  1.00  0.00    -0.303 N 
ATOM     18  HN  UNL     1     -42.995 -48.731  10.580  1.00  0.00     0.189 HD
HETATM   19  C   UNL     1     -40.044 -49.724  11.285  1.00  0.00     0.160 A 
ATOM     20  HN  UNL     1     -40.720 -48.909   9.506  1.00  0.00     0.186 HD
HETATM   21  S   UNL     1     -40.652 -50.094  12.852  1.00  0.00    -0.046 SA
ENDBRANCH   4  15
TORSDOF 4
ENDMDL
MODEL 9
REMARK VINA RESULT:      -5.1      1.891      2.632
REMARK  4 active torsions:
REMARK  status: ('A' for Active; 'I' for Inactive)
REMARK    1  A    between atoms: C_2  and  C_3 
REMARK    2  A    between atoms: C_2  and  N_15 
REMARK    3  A    between atoms: C_3  and  N_4 
REMARK       I    between atoms: N_4  and  C_5 
REMARK       I    between atoms: C_5  and  N_7 
REMARK    4  A    between atoms: N_7  and  C_8 
ROOT
HETATM    1  N   UNL     1     -43.297 -51.157  12.806  1.00  0.00    -0.341 N 
HETATM    2  C   UNL     1     -42.982 -52.365  12.264  1.00  0.00     0.322 C 
HETATM    3  O   UNL     1     -43.769 -53.304  12.207  1.00  0.00    -0.247 OA
HETATM    4  N   UNL     1     -41.730 -52.502  11.738  1.00  0.00    -0.288 N 
HETATM    5  H   UNL     1     -42.590 -50.426  12.811  1.00  0.00     0.164 HD
HETATM    6  H   UNL     1     -41.530 -53.384  11.292  1.00  0.00     0.172 HD
ENDROOT
BRANCH   1   7
HETATM    7  C   UNL     1     -44.605 -50.819  13.321  1.00  0.00     0.159 C 
BRANCH   7   8
HETATM    8  C   UNL     1     -44.700 -50.856  14.874  1.00  0.00     0.236 C 
HETATM    9  C   UNL     1     -43.286 -50.776  15.479  1.00  0.00     0.044 C 
BRANCH   8  10
HETATM   10  N   UNL     1     -45.406 -52.082  15.316  1.00  0.00     0.094 N 
HETATM   11  C   UNL     1     -44.479 -53.189  15.602  1.00  0.00     0.273 C 
HETATM   12  C   UNL     1     -45.239 -54.472  15.294  1.00  0.00     0.032 C 
HETATM   13  C   UNL     1     -46.618 -54.014  14.863  1.00  0.00     0.032 C 
HETATM   14  C   UNL     1     -46.378 -52.605  14.354  1.00  0.00     0.273 C 
ENDBRANCH   8  10
ENDBRANCH   7   8
ENDBRANCH   1   7
BRANCH   4  15
HETATM   15  C   UNL     1     -40.792 -51.511  11.689  1.00  0.00     0.168 A 
HETATM   16  N   UNL     1     -40.606 -50.611  10.748  1.00  0.00    -0.279 N 
HETATM   17  N   UNL     1     -39.511 -49.817  11.006  1.00  0.00    -0.303 N 
ATOM     18  HN  UNL     1     -41.201 -50.513   9.925  1.00  0.00     0.189 HD
HETATM   19  C   UNL     1     -38.923 -50.159  12.132  1.00  0.00     0.160 A 
ATOM     20  HN  UNL     1     -39.195 -49.059  10.399  1.00  0.00     0.186 HD
HETATM   21  S   UNL     1     -39.686 -51.446  12.981  1.00  0.00    -0.046 SA
ENDBRANCH   4  15
TORSDOF 4
ENDMDL
