MODEL 1
REMARK VINA RESULT:      -6.0      0.000      0.000
REMARK  3 active torsions:
REMARK  status: ('A' for Active; 'I' for Inactive)
REMARK       I    between atoms: N_7  and  C_9 
REMARK       I    between atoms: C_9  and  N_11 
REMARK    1  A    between atoms: N_11  and  C_12 
REMARK    2  A    between atoms: C_12  and  C_13 
REMARK    3  A    between atoms: C_13  and  C_14 
ROOT
HETATM    1  C   UNL     1     -46.550 -51.616  12.776  1.00  0.00     0.011 C 
HETATM    2  C   UNL     1     -46.190 -52.510  13.966  1.00  0.00    -0.000 C 
HETATM    3  C   UNL     1     -46.260 -51.745  15.297  1.00  0.00     0.011 C 
HETATM    4  C   UNL     1     -45.101 -50.746  15.464  1.00  0.00    -0.000 C 
HETATM    5  C   UNL     1     -45.157 -50.089  16.841  1.00  0.00     0.011 C 
HETATM    6  C   UNL     1     -43.751 -51.447  15.236  1.00  0.00     0.132 C 
HETATM    7  N   UNL     1     -43.745 -52.139  13.942  1.00  0.00    -0.334 N 
HETATM    8  C   UNL     1     -44.802 -53.137  13.785  1.00  0.00     0.132 C 
HETATM    9  C   UNL     1     -42.814 -52.010  12.928  1.00  0.00     0.318 C 
HETATM   10  O   UNL     1     -42.854 -52.671  11.893  1.00  0.00    -0.247 OA
HETATM   11  N   UNL     1     -41.815 -51.102  13.144  1.00  0.00    -0.343 N 
HETATM   12  H   UNL     1     -42.061 -50.294  13.700  1.00  0.00     0.164 HD
ENDROOT
BRANCH  11  13
HETATM   13  C   UNL     1     -40.816 -50.828  12.120  1.00  0.00     0.132 C 
BRANCH  13  14
HETATM   14  C   UNL     1     -40.570 -49.331  11.920  1.00  0.00     0.106 C 
BRANCH  14  15
HETATM   15  C   UNL     1     -41.664 -48.710  11.129  1.00  0.00     0.149 A 
HETATM   16  N   UNL     1     -41.666 -48.305   9.876  1.00  0.00    -0.327 N 
HETATM   17  C   UNL     1     -42.953 -47.859   9.725  1.00  0.00     0.100 A 
ATOM     18  HN  UNL     1     -40.907 -48.319   9.194  1.00  0.00     0.169 HD
HETATM   19  C   UNL     1     -43.455 -47.318   8.448  1.00  0.00     0.091 C 
HETATM   20  N   UNL     1     -43.722 -47.966  10.815  1.00  0.00    -0.248 N 
HETATM   21  O   UNL     1     -42.862 -48.533  11.759  1.00  0.00    -0.223 OA
ATOM     22  HN  UNL     1     -44.700 -47.698  10.930  1.00  0.00     0.196 HD
ENDBRANCH  14  15
ENDBRANCH  13  14
ENDBRANCH  11  13
TORSDOF 3
ENDMDL
MODEL 2
REMARK VINA RESULT:      -6.0      1.500      2.516
REMARK  3 active torsions:
REMARK  status: ('A' for Active; 'I' for Inactive)
REMARK       I    between atoms: N_7  and  C_9 
REMARK       I    between atoms: C_9  and  N_11 
REMARK    1  A    between atoms: N_11  and  C_12 
REMARK    2  A    between atoms: C_12  and  C_13 
REMARK    3  A    between atoms: C_13  and  C_14 
ROOT
HETATM    1  C   UNL     1     -46.281 -51.285  15.685  1.00  0.00     0.011 C 
HETATM    2  C   UNL     1     -46.780 -51.755  14.316  1.00  0.00    -0.000 C 
HETATM    3  C   UNL     1     -46.803 -53.288  14.211  1.00  0.00     0.011 C 
HETATM    4  C   UNL     1     -45.392 -53.892  14.106  1.00  0.00    -0.000 C 
HETATM    5  C   UNL     1     -45.472 -55.404  13.900  1.00  0.00     0.011 C 
HETATM    6  C   UNL     1     -44.601 -53.217  12.972  1.00  0.00     0.132 C 
HETATM    7  N   UNL     1     -44.602 -51.760  13.144  1.00  0.00    -0.334 N 
HETATM    8  C   UNL     1     -45.933 -51.157  13.185  1.00  0.00     0.132 C 
HETATM    9  C   UNL     1     -43.504 -50.921  13.177  1.00  0.00     0.318 C 
HETATM   10  O   UNL     1     -43.597 -49.699  13.270  1.00  0.00    -0.247 OA
HETATM   11  N   UNL     1     -42.283 -51.528  13.082  1.00  0.00    -0.343 N 
HETATM   12  H   UNL     1     -42.214 -52.453  13.483  1.00  0.00     0.164 HD
ENDROOT
BRANCH  11  13
HETATM   13  C   UNL     1     -41.052 -50.755  13.174  1.00  0.00     0.132 C 
BRANCH  13  14
HETATM   14  C   UNL     1     -40.397 -50.523  11.810  1.00  0.00     0.106 C 
BRANCH  14  15
HETATM   15  C   UNL     1     -40.835 -49.232  11.219  1.00  0.00     0.149 A 
HETATM   16  N   UNL     1     -41.993 -48.907  10.680  1.00  0.00    -0.327 N 
HETATM   17  C   UNL     1     -41.793 -47.592  10.351  1.00  0.00     0.100 A 
ATOM     18  HN  UNL     1     -42.823 -49.485  10.543  1.00  0.00     0.169 HD
HETATM   19  C   UNL     1     -42.843 -46.767   9.725  1.00  0.00     0.091 C 
HETATM   20  N   UNL     1     -40.581 -47.110  10.654  1.00  0.00    -0.248 N 
HETATM   21  O   UNL     1     -39.936 -48.206  11.233  1.00  0.00    -0.223 OA
ATOM     22  HN  UNL     1     -40.216 -46.169  10.500  1.00  0.00     0.196 HD
ENDBRANCH  14  15
ENDBRANCH  13  14
ENDBRANCH  11  13
TORSDOF 3
ENDMDL
MODEL 3
REMARK VINA RESULT:      -5.9      2.488      3.089
REMARK  3 active torsions:
REMARK  status: ('A' for Active; 'I' for Inactive)
REMARK       I    between atoms: N_7  and  C_9 
REMARK       I    between atoms: C_9  and  N_11 
REMARK    1  A    between atoms: N_11  and  C_12 
REMARK    2  A    between atoms: C_12  and  C_13 
REMARK    3  A    between atoms: C_13  and  C_14 
ROOT
HETATM    1  C   UNL     1     -46.511 -51.487  12.750  1.00  0.00     0.011 C 
HETATM    2  C   UNL     1     -46.934 -52.182  14.047  1.00  0.00    -0.000 C 
HETATM    3  C   UNL     1     -46.745 -51.272  15.272  1.00  0.00     0.011 C 
HETATM    4  C   UNL     1     -45.263 -51.085  15.643  1.00  0.00    -0.000 C 
HETATM    5  C   UNL     1     -45.134 -50.261  16.922  1.00  0.00     0.011 C 
HETATM    6  C   UNL     1     -44.569 -52.450  15.786  1.00  0.00     0.132 C 
HETATM    7  N   UNL     1     -44.771 -53.257  14.578  1.00  0.00    -0.334 N 
HETATM    8  C   UNL     1     -46.173 -53.500  14.241  1.00  0.00     0.132 C 
HETATM    9  C   UNL     1     -43.800 -53.868  13.806  1.00  0.00     0.318 C 
HETATM   10  O   UNL     1     -44.061 -54.576  12.836  1.00  0.00    -0.247 OA
HETATM   11  N   UNL     1     -42.506 -53.654  14.193  1.00  0.00    -0.343 N 
HETATM   12  H   UNL     1     -42.312 -52.760  14.622  1.00  0.00     0.164 HD
ENDROOT
BRANCH  11  13
HETATM   13  C   UNL     1     -41.394 -54.189  13.419  1.00  0.00     0.132 C 
BRANCH  13  14
HETATM   14  C   UNL     1     -40.103 -53.388  13.609  1.00  0.00     0.106 C 
BRANCH  14  15
HETATM   15  C   UNL     1     -40.146 -52.114  12.845  1.00  0.00     0.149 A 
HETATM   16  N   UNL     1     -39.460 -51.005  13.026  1.00  0.00    -0.327 N 
HETATM   17  C   UNL     1     -39.917 -50.219  12.002  1.00  0.00     0.100 A 
ATOM     18  HN  UNL     1     -38.767 -50.787  13.744  1.00  0.00     0.169 HD
HETATM   19  C   UNL     1     -39.412 -48.852  11.770  1.00  0.00     0.091 C 
HETATM   20  N   UNL     1     -40.843 -50.787  11.220  1.00  0.00    -0.248 N 
HETATM   21  O   UNL     1     -41.002 -52.056  11.784  1.00  0.00    -0.223 OA
ATOM     22  HN  UNL     1     -41.319 -50.390  10.409  1.00  0.00     0.196 HD
ENDBRANCH  14  15
ENDBRANCH  13  14
ENDBRANCH  11  13
TORSDOF 3
ENDMDL
MODEL 4
REMARK VINA RESULT:      -5.9      2.901      5.429
REMARK  3 active torsions:
REMARK  status: ('A' for Active; 'I' for Inactive)
REMARK       I    between atoms: N_7  and  C_9 
REMARK       I    between atoms: C_9  and  N_11 
REMARK    1  A    between atoms: N_11  and  C_12 
REMARK    2  A    between atoms: C_12  and  C_13 
REMARK    3  A    between atoms: C_13  and  C_14 
ROOT
HETATM    1  C   UNL     1     -45.790 -51.199  15.625  1.00  0.00     0.011 C 
HETATM    2  C   UNL     1     -46.427 -51.615  14.296  1.00  0.00    -0.000 C 
HETATM    3  C   UNL     1     -46.639 -53.136  14.215  1.00  0.00     0.011 C 
HETATM    4  C   UNL     1     -45.319 -53.905  14.031  1.00  0.00    -0.000 C 
HETATM    5  C   UNL     1     -45.591 -55.397  13.852  1.00  0.00     0.011 C 
HETATM    6  C   UNL     1     -44.526 -53.337  12.841  1.00  0.00     0.132 C 
HETATM    7  N   UNL     1     -44.343 -51.889  12.993  1.00  0.00    -0.334 N 
HETATM    8  C   UNL     1     -45.588 -51.131  13.107  1.00  0.00     0.132 C 
HETATM    9  C   UNL     1     -43.153 -51.186  12.946  1.00  0.00     0.318 C 
HETATM   10  O   UNL     1     -43.094 -49.962  13.028  1.00  0.00    -0.247 OA
HETATM   11  N   UNL     1     -42.021 -51.936  12.785  1.00  0.00    -0.343 N 
HETATM   12  H   UNL     1     -42.037 -52.860  13.194  1.00  0.00     0.164 HD
ENDROOT
BRANCH  11  13
HETATM   13  C   UNL     1     -40.704 -51.315  12.790  1.00  0.00     0.132 C 
BRANCH  13  14
HETATM   14  C   UNL     1     -40.007 -51.419  14.149  1.00  0.00     0.106 C 
BRANCH  14  15
HETATM   15  C   UNL     1     -39.515 -52.800  14.393  1.00  0.00     0.149 A 
HETATM   16  N   UNL     1     -39.184 -53.384  15.526  1.00  0.00    -0.327 N 
HETATM   17  C   UNL     1     -38.843 -54.643  15.108  1.00  0.00     0.100 A 
ATOM     18  HN  UNL     1     -39.181 -52.998  16.471  1.00  0.00     0.169 HD
HETATM   19  C   UNL     1     -38.414 -55.697  16.046  1.00  0.00     0.091 C 
HETATM   20  N   UNL     1     -38.942 -54.848  13.788  1.00  0.00    -0.248 N 
HETATM   21  O   UNL     1     -39.389 -53.615  13.306  1.00  0.00    -0.223 OA
ATOM     22  HN  UNL     1     -38.741 -55.699  13.262  1.00  0.00     0.196 HD
ENDBRANCH  14  15
ENDBRANCH  13  14
ENDBRANCH  11  13
TORSDOF 3
ENDMDL
MODEL 5
REMARK VINA RESULT:      -5.6      2.832      4.868
REMARK  3 active torsions:
REMARK  status: ('A' for Active; 'I' for Inactive)
REMARK       I    between atoms: N_7  and  C_9 
REMARK       I    between atoms: C_9  and  N_11 
REMARK    1  A    between atoms: N_11  and  C_12 
REMARK    2  A    between atoms: C_12  and  C_13 
REMARK    3  A    between atoms: C_13  and  C_14 
ROOT
HETATM    1  C   UNL     1     -46.548 -51.710  12.440  1.00  0.00     0.011 C 
HETATM    2  C   UNL     1     -46.441 -52.734  13.573  1.00  0.00    -0.000 C 
HETATM    3  C   UNL     1     -46.804 -52.120  14.935  1.00  0.00     0.011 C 
HETATM    4  C   UNL     1     -45.720 -51.161  15.456  1.00  0.00    -0.000 C 
HETATM    5  C   UNL     1     -46.077 -50.659  16.853  1.00  0.00     0.011 C 
HETATM    6  C   UNL     1     -44.344 -51.849  15.445  1.00  0.00     0.132 C 
HETATM    7  N   UNL     1     -44.052 -52.392  14.115  1.00  0.00    -0.334 N 
HETATM    8  C   UNL     1     -45.039 -53.354  13.626  1.00  0.00     0.132 C 
HETATM    9  C   UNL     1     -42.928 -52.163  13.344  1.00  0.00     0.318 C 
HETATM   10  O   UNL     1     -42.737 -52.706  12.258  1.00  0.00    -0.247 OA
HETATM   11  N   UNL     1     -42.009 -51.297  13.868  1.00  0.00    -0.343 N 
HETATM   12  H   UNL     1     -42.378 -50.553  14.445  1.00  0.00     0.164 HD
ENDROOT
BRANCH  11  13
HETATM   13  C   UNL     1     -40.817 -50.924  13.119  1.00  0.00     0.132 C 
BRANCH  13  14
HETATM   14  C   UNL     1     -39.528 -51.140  13.915  1.00  0.00     0.106 C 
BRANCH  14  15
HETATM   15  C   UNL     1     -39.307 -52.582  14.195  1.00  0.00     0.149 A 
HETATM   16  N   UNL     1     -38.980 -53.176  15.324  1.00  0.00    -0.327 N 
HETATM   17  C   UNL     1     -38.955 -54.495  14.954  1.00  0.00     0.100 A 
ATOM     18  HN  UNL     1     -38.793 -52.762  16.238  1.00  0.00     0.169 HD
HETATM   19  C   UNL     1     -38.652 -55.578  15.909  1.00  0.00     0.091 C 
HETATM   20  N   UNL     1     -39.242 -54.728  13.666  1.00  0.00    -0.248 N 
HETATM   21  O   UNL     1     -39.475 -53.449  13.154  1.00  0.00    -0.223 OA
ATOM     22  HN  UNL     1     -39.280 -55.623  13.178  1.00  0.00     0.196 HD
ENDBRANCH  14  15
ENDBRANCH  13  14
ENDBRANCH  11  13
TORSDOF 3
ENDMDL
MODEL 6
REMARK VINA RESULT:      -5.6      2.390      5.750
REMARK  3 active torsions:
REMARK  status: ('A' for Active; 'I' for Inactive)
REMARK       I    between atoms: N_7  and  C_9 
REMARK       I    between atoms: C_9  and  N_11 
REMARK    1  A    between atoms: N_11  and  C_12 
REMARK    2  A    between atoms: C_12  and  C_13 
REMARK    3  A    between atoms: C_13  and  C_14 
ROOT
HETATM    1  C   UNL     1     -39.388 -48.353  14.421  1.00  0.00     0.011 C 
HETATM    2  C   UNL     1     -39.372 -47.990  12.934  1.00  0.00    -0.000 C 
HETATM    3  C   UNL     1     -40.666 -47.281  12.503  1.00  0.00     0.011 C 
HETATM    4  C   UNL     1     -41.869 -48.239  12.442  1.00  0.00    -0.000 C 
HETATM    5  C   UNL     1     -43.103 -47.512  11.911  1.00  0.00     0.011 C 
HETATM    6  C   UNL     1     -41.533 -49.469  11.581  1.00  0.00     0.132 C 
HETATM    7  N   UNL     1     -40.302 -50.108  12.057  1.00  0.00    -0.334 N 
HETATM    8  C   UNL     1     -39.131 -49.232  12.066  1.00  0.00     0.132 C 
HETATM    9  C   UNL     1     -40.125 -51.435  12.400  1.00  0.00     0.318 C 
HETATM   10  O   UNL     1     -39.040 -51.902  12.739  1.00  0.00    -0.247 OA
HETATM   11  N   UNL     1     -41.238 -52.226  12.325  1.00  0.00    -0.343 N 
HETATM   12  H   UNL     1     -42.120 -51.773  12.525  1.00  0.00     0.164 HD
ENDROOT
BRANCH  11  13
HETATM   13  C   UNL     1     -41.192 -53.625  12.726  1.00  0.00     0.132 C 
BRANCH  13  14
HETATM   14  C   UNL     1     -42.241 -53.970  13.786  1.00  0.00     0.106 C 
BRANCH  14  15
HETATM   15  C   UNL     1     -43.536 -53.304  13.494  1.00  0.00     0.149 A 
HETATM   16  N   UNL     1     -44.348 -52.656  14.305  1.00  0.00    -0.327 N 
HETATM   17  C   UNL     1     -45.341 -52.255  13.452  1.00  0.00     0.100 A 
ATOM     18  HN  UNL     1     -44.259 -52.496  15.309  1.00  0.00     0.169 HD
HETATM   19  C   UNL     1     -46.495 -51.456  13.904  1.00  0.00     0.091 C 
HETATM   20  N   UNL     1     -45.179 -52.630  12.176  1.00  0.00    -0.248 N 
HETATM   21  O   UNL     1     -43.972 -53.334  12.201  1.00  0.00    -0.223 OA
ATOM     22  HN  UNL     1     -45.788 -52.445  11.379  1.00  0.00     0.196 HD
ENDBRANCH  14  15
ENDBRANCH  13  14
ENDBRANCH  11  13
TORSDOF 3
ENDMDL
MODEL 7
REMARK VINA RESULT:      -5.4      4.606      5.769
REMARK  3 active torsions:
REMARK  status: ('A' for Active; 'I' for Inactive)
REMARK       I    between atoms: N_7  and  C_9 
REMARK       I    between atoms: C_9  and  N_11 
REMARK    1  A    between atoms: N_11  and  C_12 
REMARK    2  A    between atoms: C_12  and  C_13 
REMARK    3  A    between atoms: C_13  and  C_14 
ROOT
HETATM    1  C   UNL     1     -38.886 -50.460  15.172  1.00  0.00     0.011 C 
HETATM    2  C   UNL     1     -37.751 -49.485  14.847  1.00  0.00    -0.000 C 
HETATM    3  C   UNL     1     -37.843 -48.199  15.684  1.00  0.00     0.011 C 
HETATM    4  C   UNL     1     -38.998 -47.287  15.235  1.00  0.00    -0.000 C 
HETATM    5  C   UNL     1     -38.985 -45.980  16.026  1.00  0.00     0.011 C 
HETATM    6  C   UNL     1     -38.918 -47.023  13.721  1.00  0.00     0.132 C 
HETATM    7  N   UNL     1     -38.852 -48.289  12.983  1.00  0.00    -0.334 N 
HETATM    8  C   UNL     1     -37.726 -49.146  13.351  1.00  0.00     0.132 C 
HETATM    9  C   UNL     1     -39.670 -48.697  11.946  1.00  0.00     0.318 C 
HETATM   10  O   UNL     1     -39.511 -49.756  11.343  1.00  0.00    -0.247 OA
HETATM   11  N   UNL     1     -40.676 -47.837  11.604  1.00  0.00    -0.343 N 
HETATM   12  H   UNL     1     -41.065 -47.285  12.356  1.00  0.00     0.164 HD
ENDROOT
BRANCH  11  13
HETATM   13  C   UNL     1     -41.643 -48.187  10.572  1.00  0.00     0.132 C 
BRANCH  13  14
HETATM   14  C   UNL     1     -42.307 -46.960   9.944  1.00  0.00     0.106 C 
BRANCH  14  15
HETATM   15  C   UNL     1     -43.650 -47.295   9.403  1.00  0.00     0.149 A 
HETATM   16  N   UNL     1     -44.838 -47.130   9.948  1.00  0.00    -0.327 N 
HETATM   17  C   UNL     1     -45.668 -47.598   8.964  1.00  0.00     0.100 A 
ATOM     18  HN  UNL     1     -45.078 -46.752  10.865  1.00  0.00     0.169 HD
HETATM   19  C   UNL     1     -47.137 -47.597   9.104  1.00  0.00     0.091 C 
HETATM   20  N   UNL     1     -45.049 -48.041   7.862  1.00  0.00    -0.248 N 
HETATM   21  O   UNL     1     -43.697 -47.842   8.154  1.00  0.00    -0.223 OA
ATOM     22  HN  UNL     1     -45.464 -48.430   7.015  1.00  0.00     0.196 HD
ENDBRANCH  14  15
ENDBRANCH  13  14
ENDBRANCH  11  13
TORSDOF 3
ENDMDL
MODEL 8
REMARK VINA RESULT:      -5.4      4.958      6.534
REMARK  3 active torsions:
REMARK  status: ('A' for Active; 'I' for Inactive)
REMARK       I    between atoms: N_7  and  C_9 
REMARK       I    between atoms: C_9  and  N_11 
REMARK    1  A    between atoms: N_11  and  C_12 
REMARK    2  A    between atoms: C_12  and  C_13 
REMARK    3  A    between atoms: C_13  and  C_14 
ROOT
HETATM    1  C   UNL     1     -37.020 -48.368  15.324  1.00  0.00     0.011 C 
HETATM    2  C   UNL     1     -38.137 -49.324  14.898  1.00  0.00    -0.000 C 
HETATM    3  C   UNL     1     -37.748 -50.140  13.654  1.00  0.00     0.011 C 
HETATM    4  C   UNL     1     -37.740 -49.290  12.372  1.00  0.00    -0.000 C 
HETATM    5  C   UNL     1     -37.450 -50.165  11.154  1.00  0.00     0.011 C 
HETATM    6  C   UNL     1     -39.074 -48.540  12.215  1.00  0.00     0.132 C 
HETATM    7  N   UNL     1     -39.373 -47.768  13.426  1.00  0.00    -0.334 N 
HETATM    8  C   UNL     1     -39.447 -48.566  14.649  1.00  0.00     0.132 C 
HETATM    9  C   UNL     1     -39.674 -46.421  13.507  1.00  0.00     0.318 C 
HETATM   10  O   UNL     1     -39.967 -45.862  14.561  1.00  0.00    -0.247 OA
HETATM   11  N   UNL     1     -39.643 -45.729  12.328  1.00  0.00    -0.343 N 
HETATM   12  H   UNL     1     -38.974 -46.049  11.641  1.00  0.00     0.164 HD
ENDROOT
BRANCH  11  13
HETATM   13  C   UNL     1     -39.874 -44.291  12.297  1.00  0.00     0.132 C 
BRANCH  13  14
HETATM   14  C   UNL     1     -41.319 -43.933  11.940  1.00  0.00     0.106 C 
BRANCH  14  15
HETATM   15  C   UNL     1     -41.952 -45.007  11.131  1.00  0.00     0.149 A 
HETATM   16  N   UNL     1     -43.043 -45.704  11.370  1.00  0.00    -0.327 N 
HETATM   17  C   UNL     1     -43.118 -46.503  10.260  1.00  0.00     0.100 A 
ATOM     18  HN  UNL     1     -43.670 -45.660  12.174  1.00  0.00     0.169 HD
HETATM   19  C   UNL     1     -44.215 -47.468  10.055  1.00  0.00     0.091 C 
HETATM   20  N   UNL     1     -42.132 -46.333   9.371  1.00  0.00    -0.248 N 
HETATM   21  O   UNL     1     -41.347 -45.333   9.951  1.00  0.00    -0.223 OA
ATOM     22  HN  UNL     1     -41.988 -46.816   8.483  1.00  0.00     0.196 HD
ENDBRANCH  14  15
ENDBRANCH  13  14
ENDBRANCH  11  13
TORSDOF 3
ENDMDL
MODEL 9
REMARK VINA RESULT:      -5.3      3.313      4.810
REMARK  3 active torsions:
REMARK  status: ('A' for Active; 'I' for Inactive)
REMARK       I    between atoms: N_7  and  C_9 
REMARK       I    between atoms: C_9  and  N_11 
REMARK    1  A    between atoms: N_11  and  C_12 
REMARK    2  A    between atoms: C_12  and  C_13 
REMARK    3  A    between atoms: C_13  and  C_14 
ROOT
HETATM    1  C   UNL     1     -38.103 -51.161  13.212  1.00  0.00     0.011 C 
HETATM    2  C   UNL     1     -39.194 -51.169  14.286  1.00  0.00    -0.000 C 
HETATM    3  C   UNL     1     -40.229 -52.280  14.042  1.00  0.00     0.011 C 
HETATM    4  C   UNL     1     -41.151 -51.973  12.849  1.00  0.00    -0.000 C 
HETATM    5  C   UNL     1     -42.223 -53.053  12.712  1.00  0.00     0.011 C 
HETATM    6  C   UNL     1     -41.782 -50.578  13.002  1.00  0.00     0.132 C 
HETATM    7  N   UNL     1     -40.741 -49.566  13.211  1.00  0.00    -0.334 N 
HETATM    8  C   UNL     1     -39.890 -49.805  14.376  1.00  0.00     0.132 C 
HETATM    9  C   UNL     1     -40.551 -48.400  12.493  1.00  0.00     0.318 C 
HETATM   10  O   UNL     1     -39.683 -47.575  12.771  1.00  0.00    -0.247 OA
HETATM   11  N   UNL     1     -41.405 -48.196  11.445  1.00  0.00    -0.343 N 
HETATM   12  H   UNL     1     -41.731 -49.026  10.969  1.00  0.00     0.164 HD
ENDROOT
BRANCH  11  13
HETATM   13  C   UNL     1     -41.260 -47.038  10.574  1.00  0.00     0.132 C 
BRANCH  13  14
HETATM   14  C   UNL     1     -42.527 -46.180  10.516  1.00  0.00     0.106 C 
BRANCH  14  15
HETATM   15  C   UNL     1     -43.599 -46.861   9.745  1.00  0.00     0.149 A 
HETATM   16  N   UNL     1     -44.840 -47.132  10.094  1.00  0.00    -0.327 N 
HETATM   17  C   UNL     1     -45.328 -47.733   8.964  1.00  0.00     0.100 A 
ATOM     18  HN  UNL     1     -45.314 -46.944  10.978  1.00  0.00     0.169 HD
HETATM   19  C   UNL     1     -46.721 -48.204   8.860  1.00  0.00     0.091 C 
HETATM   20  N   UNL     1     -44.451 -47.845   7.958  1.00  0.00    -0.248 N 
HETATM   21  O   UNL     1     -43.291 -47.265   8.478  1.00  0.00    -0.223 OA
ATOM     22  HN  UNL     1     -44.595 -48.255   7.034  1.00  0.00     0.196 HD
ENDBRANCH  14  15
ENDBRANCH  13  14
ENDBRANCH  11  13
TORSDOF 3
ENDMDL
