MODEL 1
REMARK VINA RESULT:      -5.7      0.000      0.000
REMARK  6 active torsions:
REMARK  status: ('A' for Active; 'I' for Inactive)
REMARK    1  A    between atoms: C_7  and  S_8 
REMARK    2  A    between atoms: S_8  and  C_9 
REMARK    3  A    between atoms: C_9  and  C_10 
REMARK    4  A    between atoms: C_10  and  C_11 
REMARK    5  A    between atoms: N_16  and  C_17 
REMARK    6  A    between atoms: C_17  and  C_18 
REMARK       I    between atoms: C_18  and  N_20 
ROOT
HETATM    1  C   UNL     1     -40.235 -47.809  11.639  1.00  0.00     0.091 C 
HETATM    2  C   UNL     1     -40.798 -49.163  11.847  1.00  0.00     0.096 A 
HETATM    3  N   UNL     1     -42.023 -49.528  11.530  1.00  0.00    -0.287 N 
ATOM      4  HN  UNL     1     -42.741 -48.926  11.128  1.00  0.00     0.188 HD
HETATM    5  N   UNL     1     -42.168 -50.855  11.834  1.00  0.00    -0.278 N 
ATOM      6  HN  UNL     1     -43.012 -51.413  11.698  1.00  0.00     0.189 HD
HETATM    7  C   UNL     1     -41.034 -51.283  12.332  1.00  0.00     0.163 A 
HETATM    8  N   UNL     1     -40.131 -50.250  12.375  1.00  0.00    -0.306 N 
ENDROOT
BRANCH   7   9
HETATM    9  S   UNL     1     -40.714 -52.911  12.821  1.00  0.00    -0.092 SA
BRANCH   9  10
HETATM   10  C   UNL     1     -42.015 -53.130  14.100  1.00  0.00     0.083 C 
BRANCH  10  11
HETATM   11  C   UNL     1     -43.191 -53.939  13.547  1.00  0.00     0.015 C 
BRANCH  11  12
HETATM   12  C   UNL     1     -44.564 -53.289  13.800  1.00  0.00    -0.014 C 
HETATM   13  C   UNL     1     -45.369 -52.926  12.545  1.00  0.00     0.005 C 
HETATM   14  C   UNL     1     -46.147 -51.649  12.887  1.00  0.00     0.000 C 
HETATM   15  C   UNL     1     -45.786 -51.298  14.325  1.00  0.00     0.000 C 
HETATM   16  C   UNL     1     -44.432 -51.955  14.538  1.00  0.00     0.005 C 
ENDBRANCH  11  12
ENDBRANCH  10  11
ENDBRANCH   9  10
ENDBRANCH   7   9
BRANCH   8  17
HETATM   17  C   UNL     1     -38.785 -50.258  12.911  1.00  0.00     0.235 C 
BRANCH  17  18
HETATM   18  C   UNL     1     -37.692 -50.691  11.952  1.00  0.00     0.233 C 
HETATM   19  O   UNL     1     -36.886 -51.574  12.261  1.00  0.00    -0.272 OA
HETATM   20  N   UNL     1     -37.555 -50.062  10.756  1.00  0.00    -0.369 N 
HETATM   21  H   UNL     1     -38.252 -49.459  10.344  1.00  0.00     0.159 HD
HETATM   22  H   UNL     1     -36.837 -50.422  10.136  1.00  0.00     0.159 HD
ENDBRANCH  17  18
ENDBRANCH   8  17
TORSDOF 6
ENDMDL
MODEL 2
REMARK VINA RESULT:      -5.6      2.446      3.071
REMARK  6 active torsions:
REMARK  status: ('A' for Active; 'I' for Inactive)
REMARK    1  A    between atoms: C_7  and  S_8 
REMARK    2  A    between atoms: S_8  and  C_9 
REMARK    3  A    between atoms: C_9  and  C_10 
REMARK    4  A    between atoms: C_10  and  C_11 
REMARK    5  A    between atoms: N_16  and  C_17 
REMARK    6  A    between atoms: C_17  and  C_18 
REMARK       I    between atoms: C_18  and  N_20 
ROOT
HETATM    1  C   UNL     1     -38.805 -50.777  12.441  1.00  0.00     0.091 C 
HETATM    2  C   UNL     1     -40.054 -51.570  12.383  1.00  0.00     0.096 A 
HETATM    3  N   UNL     1     -40.930 -51.530  11.401  1.00  0.00    -0.287 N 
ATOM      4  HN  UNL     1     -40.873 -50.936  10.574  1.00  0.00     0.188 HD
HETATM    5  N   UNL     1     -41.931 -52.421  11.679  1.00  0.00    -0.278 N 
ATOM      6  HN  UNL     1     -42.748 -52.606  11.096  1.00  0.00     0.189 HD
HETATM    7  C   UNL     1     -41.656 -52.993  12.826  1.00  0.00     0.163 A 
HETATM    8  N   UNL     1     -40.483 -52.485  13.324  1.00  0.00    -0.306 N 
ENDROOT
BRANCH   7   9
HETATM    9  S   UNL     1     -42.607 -54.230  13.573  1.00  0.00    -0.092 SA
BRANCH   9  10
HETATM   10  C   UNL     1     -44.251 -53.866  12.837  1.00  0.00     0.083 C 
BRANCH  10  11
HETATM   11  C   UNL     1     -45.361 -54.601  13.594  1.00  0.00     0.015 C 
BRANCH  11  12
HETATM   12  C   UNL     1     -46.394 -53.663  14.244  1.00  0.00    -0.014 C 
HETATM   13  C   UNL     1     -46.460 -52.242  13.667  1.00  0.00     0.005 C 
HETATM   14  C   UNL     1     -46.799 -51.315  14.841  1.00  0.00     0.000 C 
HETATM   15  C   UNL     1     -46.928 -52.207  16.069  1.00  0.00     0.000 C 
HETATM   16  C   UNL     1     -46.095 -53.431  15.727  1.00  0.00     0.005 C 
ENDBRANCH  11  12
ENDBRANCH  10  11
ENDBRANCH   9  10
ENDBRANCH   7   9
BRANCH   8  17
HETATM   17  C   UNL     1     -39.845 -52.781  14.591  1.00  0.00     0.235 C 
BRANCH  17  18
HETATM   18  C   UNL     1     -39.281 -54.182  14.738  1.00  0.00     0.233 C 
HETATM   19  O   UNL     1     -39.224 -54.734  15.841  1.00  0.00    -0.272 OA
HETATM   20  N   UNL     1     -38.776 -54.824  13.653  1.00  0.00    -0.369 N 
HETATM   21  H   UNL     1     -38.928 -54.537  12.697  1.00  0.00     0.159 HD
HETATM   22  H   UNL     1     -38.454 -55.774  13.800  1.00  0.00     0.159 HD
ENDBRANCH  17  18
ENDBRANCH   8  17
TORSDOF 6
ENDMDL
MODEL 3
REMARK VINA RESULT:      -5.6      1.961      2.867
REMARK  6 active torsions:
REMARK  status: ('A' for Active; 'I' for Inactive)
REMARK    1  A    between atoms: C_7  and  S_8 
REMARK    2  A    between atoms: S_8  and  C_9 
REMARK    3  A    between atoms: C_9  and  C_10 
REMARK    4  A    between atoms: C_10  and  C_11 
REMARK    5  A    between atoms: N_16  and  C_17 
REMARK    6  A    between atoms: C_17  and  C_18 
REMARK       I    between atoms: C_18  and  N_20 
ROOT
HETATM    1  C   UNL     1     -39.680 -54.243  13.600  1.00  0.00     0.091 C 
HETATM    2  C   UNL     1     -40.551 -53.257  12.919  1.00  0.00     0.096 A 
HETATM    3  N   UNL     1     -41.670 -53.548  12.288  1.00  0.00    -0.287 N 
ATOM      4  HN  UNL     1     -42.063 -54.480  12.169  1.00  0.00     0.188 HD
HETATM    5  N   UNL     1     -42.213 -52.382  11.819  1.00  0.00    -0.278 N 
ATOM      6  HN  UNL     1     -43.082 -52.296  11.291  1.00  0.00     0.189 HD
HETATM    7  C   UNL     1     -41.422 -51.397  12.167  1.00  0.00     0.163 A 
HETATM    8  N   UNL     1     -40.345 -51.894  12.857  1.00  0.00    -0.306 N 
ENDROOT
BRANCH   7   9
HETATM    9  S   UNL     1     -41.715 -49.724  11.841  1.00  0.00    -0.092 SA
BRANCH   9  10
HETATM   10  C   UNL     1     -43.195 -49.441  12.893  1.00  0.00     0.083 C 
BRANCH  10  11
HETATM   11  C   UNL     1     -43.062 -50.178  14.229  1.00  0.00     0.015 C 
BRANCH  11  12
HETATM   12  C   UNL     1     -44.249 -51.105  14.545  1.00  0.00    -0.014 C 
HETATM   13  C   UNL     1     -45.280 -51.274  13.422  1.00  0.00     0.005 C 
HETATM   14  C   UNL     1     -46.643 -51.435  14.108  1.00  0.00     0.000 C 
HETATM   15  C   UNL     1     -46.380 -51.362  15.607  1.00  0.00     0.000 C 
HETATM   16  C   UNL     1     -45.081 -50.581  15.718  1.00  0.00     0.005 C 
ENDBRANCH  11  12
ENDBRANCH  10  11
ENDBRANCH   9  10
ENDBRANCH   7   9
BRANCH   8  17
HETATM   17  C   UNL     1     -39.197 -51.171  13.366  1.00  0.00     0.235 C 
BRANCH  17  18
HETATM   18  C   UNL     1     -38.021 -51.041  12.417  1.00  0.00     0.233 C 
HETATM   19  O   UNL     1     -36.972 -51.662  12.613  1.00  0.00    -0.272 OA
HETATM   20  N   UNL     1     -38.093 -50.187  11.363  1.00  0.00    -0.369 N 
HETATM   21  H   UNL     1     -38.948 -49.771  11.023  1.00  0.00     0.159 HD
HETATM   22  H   UNL     1     -37.296 -50.174  10.737  1.00  0.00     0.159 HD
ENDBRANCH  17  18
ENDBRANCH   8  17
TORSDOF 6
ENDMDL
MODEL 4
REMARK VINA RESULT:      -5.5      2.874      4.622
REMARK  6 active torsions:
REMARK  status: ('A' for Active; 'I' for Inactive)
REMARK    1  A    between atoms: C_7  and  S_8 
REMARK    2  A    between atoms: S_8  and  C_9 
REMARK    3  A    between atoms: C_9  and  C_10 
REMARK    4  A    between atoms: C_10  and  C_11 
REMARK    5  A    between atoms: N_16  and  C_17 
REMARK    6  A    between atoms: C_17  and  C_18 
REMARK       I    between atoms: C_18  and  N_20 
ROOT
HETATM    1  C   UNL     1     -40.251 -54.742  15.976  1.00  0.00     0.091 C 
HETATM    2  C   UNL     1     -41.619 -54.586  15.431  1.00  0.00     0.096 A 
HETATM    3  N   UNL     1     -42.726 -54.645  16.141  1.00  0.00    -0.287 N 
ATOM      4  HN  UNL     1     -42.784 -54.828  17.143  1.00  0.00     0.188 HD
HETATM    5  N   UNL     1     -43.786 -54.421  15.305  1.00  0.00    -0.278 N 
ATOM      6  HN  UNL     1     -44.770 -54.406  15.575  1.00  0.00     0.189 HD
HETATM    7  C   UNL     1     -43.316 -54.228  14.097  1.00  0.00     0.163 A 
HETATM    8  N   UNL     1     -41.947 -54.333  14.114  1.00  0.00    -0.306 N 
ENDROOT
BRANCH   7   9
HETATM    9  S   UNL     1     -44.272 -53.857  12.704  1.00  0.00    -0.092 SA
BRANCH   9  10
HETATM   10  C   UNL     1     -45.912 -53.599  13.494  1.00  0.00     0.083 C 
BRANCH  10  11
HETATM   11  C   UNL     1     -46.437 -52.190  13.210  1.00  0.00     0.015 C 
BRANCH  11  12
HETATM   12  C   UNL     1     -46.501 -51.289  14.456  1.00  0.00    -0.014 C 
HETATM   13  C   UNL     1     -45.153 -50.967  15.115  1.00  0.00     0.005 C 
HETATM   14  C   UNL     1     -45.423 -50.871  16.623  1.00  0.00     0.000 C 
HETATM   15  C   UNL     1     -46.912 -51.131  16.810  1.00  0.00     0.000 C 
HETATM   16  C   UNL     1     -47.304 -51.940  15.585  1.00  0.00     0.005 C 
ENDBRANCH  11  12
ENDBRANCH  10  11
ENDBRANCH   9  10
ENDBRANCH   7   9
BRANCH   8  17
HETATM   17  C   UNL     1     -41.029 -54.259  12.995  1.00  0.00     0.235 C 
BRANCH  17  18
HETATM   18  C   UNL     1     -40.716 -52.866  12.484  1.00  0.00     0.233 C 
HETATM   19  O   UNL     1     -40.173 -52.028  13.210  1.00  0.00    -0.272 OA
HETATM   20  N   UNL     1     -41.089 -52.507  11.228  1.00  0.00    -0.369 N 
HETATM   21  H   UNL     1     -41.378 -53.156  10.511  1.00  0.00     0.159 HD
HETATM   22  H   UNL     1     -40.814 -51.580  10.924  1.00  0.00     0.159 HD
ENDBRANCH  17  18
ENDBRANCH   8  17
TORSDOF 6
ENDMDL
MODEL 5
REMARK VINA RESULT:      -5.3      2.106      3.057
REMARK  6 active torsions:
REMARK  status: ('A' for Active; 'I' for Inactive)
REMARK    1  A    between atoms: C_7  and  S_8 
REMARK    2  A    between atoms: S_8  and  C_9 
REMARK    3  A    between atoms: C_9  and  C_10 
REMARK    4  A    between atoms: C_10  and  C_11 
REMARK    5  A    between atoms: N_16  and  C_17 
REMARK    6  A    between atoms: C_17  and  C_18 
REMARK       I    between atoms: C_18  and  N_20 
ROOT
HETATM    1  C   UNL     1     -37.417 -50.393  12.540  1.00  0.00     0.091 C 
HETATM    2  C   UNL     1     -38.830 -50.621  12.158  1.00  0.00     0.096 A 
HETATM    3  N   UNL     1     -39.383 -50.217  11.033  1.00  0.00    -0.287 N 
ATOM      4  HN  UNL     1     -38.921 -49.680  10.300  1.00  0.00     0.188 HD
HETATM    5  N   UNL     1     -40.684 -50.639  11.018  1.00  0.00    -0.278 N 
ATOM      6  HN  UNL     1     -41.360 -50.474  10.271  1.00  0.00     0.189 HD
HETATM    7  C   UNL     1     -40.911 -51.295  12.130  1.00  0.00     0.163 A 
HETATM    8  N   UNL     1     -39.773 -51.305  12.898  1.00  0.00    -0.306 N 
ENDROOT
BRANCH   7   9
HETATM    9  S   UNL     1     -42.404 -52.063  12.546  1.00  0.00    -0.092 SA
BRANCH   9  10
HETATM   10  C   UNL     1     -43.225 -50.702  13.469  1.00  0.00     0.083 C 
BRANCH  10  11
HETATM   11  C   UNL     1     -44.749 -50.830  13.387  1.00  0.00     0.015 C 
BRANCH  11  12
HETATM   12  C   UNL     1     -45.385 -51.466  14.636  1.00  0.00    -0.014 C 
HETATM   13  C   UNL     1     -46.920 -51.491  14.661  1.00  0.00     0.005 C 
HETATM   14  C   UNL     1     -47.329 -51.317  16.130  1.00  0.00     0.000 C 
HETATM   15  C   UNL     1     -46.035 -51.201  16.925  1.00  0.00     0.000 C 
HETATM   16  C   UNL     1     -45.020 -50.702  15.910  1.00  0.00     0.005 C 
ENDBRANCH  11  12
ENDBRANCH  10  11
ENDBRANCH   9  10
ENDBRANCH   7   9
BRANCH   8  17
HETATM   17  C   UNL     1     -39.595 -51.854  14.227  1.00  0.00     0.235 C 
BRANCH  17  18
HETATM   18  C   UNL     1     -39.482 -53.364  14.311  1.00  0.00     0.233 C 
HETATM   19  O   UNL     1     -38.734 -53.991  13.555  1.00  0.00    -0.272 OA
HETATM   20  N   UNL     1     -40.256 -54.052  15.190  1.00  0.00    -0.369 N 
HETATM   21  H   UNL     1     -40.763 -53.631  15.955  1.00  0.00     0.159 HD
HETATM   22  H   UNL     1     -40.107 -55.054  15.235  1.00  0.00     0.159 HD
ENDBRANCH  17  18
ENDBRANCH   8  17
TORSDOF 6
ENDMDL
MODEL 6
REMARK VINA RESULT:      -5.3      1.912      2.426
REMARK  6 active torsions:
REMARK  status: ('A' for Active; 'I' for Inactive)
REMARK    1  A    between atoms: C_7  and  S_8 
REMARK    2  A    between atoms: S_8  and  C_9 
REMARK    3  A    between atoms: C_9  and  C_10 
REMARK    4  A    between atoms: C_10  and  C_11 
REMARK    5  A    between atoms: N_16  and  C_17 
REMARK    6  A    between atoms: C_17  and  C_18 
REMARK       I    between atoms: C_18  and  N_20 
ROOT
HETATM    1  C   UNL     1     -38.982 -49.458  11.850  1.00  0.00     0.091 C 
HETATM    2  C   UNL     1     -39.828 -50.673  11.865  1.00  0.00     0.096 A 
HETATM    3  N   UNL     1     -40.742 -50.968  10.964  1.00  0.00    -0.287 N 
ATOM      4  HN  UNL     1     -40.998 -50.392  10.163  1.00  0.00     0.188 HD
HETATM    5  N   UNL     1     -41.291 -52.179  11.289  1.00  0.00    -0.278 N 
ATOM      6  HN  UNL     1     -42.025 -52.663  10.771  1.00  0.00     0.189 HD
HETATM    7  C   UNL     1     -40.708 -52.609  12.381  1.00  0.00     0.163 A 
HETATM    8  N   UNL     1     -39.779 -51.689  12.799  1.00  0.00    -0.306 N 
ENDROOT
BRANCH   7   9
HETATM    9  S   UNL     1     -41.032 -54.123  13.152  1.00  0.00    -0.092 SA
BRANCH   9  10
HETATM   10  C   UNL     1     -42.397 -53.629  14.279  1.00  0.00     0.083 C 
BRANCH  10  11
HETATM   11  C   UNL     1     -43.759 -53.858  13.617  1.00  0.00     0.015 C 
BRANCH  11  12
HETATM   12  C   UNL     1     -44.585 -52.572  13.438  1.00  0.00    -0.014 C 
HETATM   13  C   UNL     1     -45.298 -52.058  14.695  1.00  0.00     0.005 C 
HETATM   14  C   UNL     1     -46.612 -51.427  14.217  1.00  0.00     0.000 C 
HETATM   15  C   UNL     1     -46.636 -51.579  12.702  1.00  0.00     0.000 C 
HETATM   16  C   UNL     1     -45.725 -52.765  12.435  1.00  0.00     0.005 C 
ENDBRANCH  11  12
ENDBRANCH  10  11
ENDBRANCH   9  10
ENDBRANCH   7   9
BRANCH   8  17
HETATM   17  C   UNL     1     -38.957 -51.724  13.992  1.00  0.00     0.235 C 
BRANCH  17  18
HETATM   18  C   UNL     1     -39.435 -50.873  15.152  1.00  0.00     0.233 C 
HETATM   19  O   UNL     1     -40.534 -51.072  15.678  1.00  0.00    -0.272 OA
HETATM   20  N   UNL     1     -38.674 -49.836  15.589  1.00  0.00    -0.369 N 
HETATM   21  H   UNL     1     -37.704 -49.697  15.346  1.00  0.00     0.159 HD
HETATM   22  H   UNL     1     -39.022 -49.329  16.396  1.00  0.00     0.159 HD
ENDBRANCH  17  18
ENDBRANCH   8  17
TORSDOF 6
ENDMDL
MODEL 7
REMARK VINA RESULT:      -5.3      3.479      4.335
REMARK  6 active torsions:
REMARK  status: ('A' for Active; 'I' for Inactive)
REMARK    1  A    between atoms: C_7  and  S_8 
REMARK    2  A    between atoms: S_8  and  C_9 
REMARK    3  A    between atoms: C_9  and  C_10 
REMARK    4  A    between atoms: C_10  and  C_11 
REMARK    5  A    between atoms: N_16  and  C_17 
REMARK    6  A    between atoms: C_17  and  C_18 
REMARK       I    between atoms: C_18  and  N_20 
ROOT
HETATM    1  C   UNL     1     -43.852 -45.614   9.061  1.00  0.00     0.091 C 
HETATM    2  C   UNL     1     -43.620 -46.662  10.082  1.00  0.00     0.096 A 
HETATM    3  N   UNL     1     -44.222 -47.833  10.111  1.00  0.00    -0.287 N 
ATOM      4  HN  UNL     1     -44.933 -48.156   9.456  1.00  0.00     0.188 HD
HETATM    5  N   UNL     1     -43.728 -48.543  11.172  1.00  0.00    -0.278 N 
ATOM      6  HN  UNL     1     -44.008 -49.486  11.444  1.00  0.00     0.189 HD
HETATM    7  C   UNL     1     -42.834 -47.800  11.777  1.00  0.00     0.163 A 
HETATM    8  N   UNL     1     -42.732 -46.590  11.136  1.00  0.00    -0.306 N 
ENDROOT
BRANCH   7   9
HETATM    9  S   UNL     1     -41.899 -48.286  13.148  1.00  0.00    -0.092 SA
BRANCH   9  10
HETATM   10  C   UNL     1     -42.154 -50.105  13.088  1.00  0.00     0.083 C 
BRANCH  10  11
HETATM   11  C   UNL     1     -42.829 -50.604  14.368  1.00  0.00     0.015 C 
BRANCH  11  12
HETATM   12  C   UNL     1     -44.362 -50.468  14.353  1.00  0.00    -0.014 C 
HETATM   13  C   UNL     1     -45.077 -50.850  15.657  1.00  0.00     0.005 C 
HETATM   14  C   UNL     1     -46.421 -51.465  15.246  1.00  0.00     0.000 C 
HETATM   15  C   UNL     1     -46.465 -51.424  13.724  1.00  0.00     0.000 C 
HETATM   16  C   UNL     1     -45.003 -51.388  13.312  1.00  0.00     0.005 C 
ENDBRANCH  11  12
ENDBRANCH  10  11
ENDBRANCH   9  10
ENDBRANCH   7   9
BRANCH   8  17
HETATM   17  C   UNL     1     -41.921 -45.447  11.504  1.00  0.00     0.235 C 
BRANCH  17  18
HETATM   18  C   UNL     1     -40.643 -45.258  10.710  1.00  0.00     0.233 C 
HETATM   19  O   UNL     1     -40.335 -44.154  10.250  1.00  0.00    -0.272 OA
HETATM   20  N   UNL     1     -39.846 -46.327  10.447  1.00  0.00    -0.369 N 
HETATM   21  H   UNL     1     -39.916 -47.220  10.912  1.00  0.00     0.159 HD
HETATM   22  H   UNL     1     -38.982 -46.134   9.951  1.00  0.00     0.159 HD
ENDBRANCH  17  18
ENDBRANCH   8  17
TORSDOF 6
ENDMDL
MODEL 8
REMARK VINA RESULT:      -5.2      2.016      2.767
REMARK  6 active torsions:
REMARK  status: ('A' for Active; 'I' for Inactive)
REMARK    1  A    between atoms: C_7  and  S_8 
REMARK    2  A    between atoms: S_8  and  C_9 
REMARK    3  A    between atoms: C_9  and  C_10 
REMARK    4  A    between atoms: C_10  and  C_11 
REMARK    5  A    between atoms: N_16  and  C_17 
REMARK    6  A    between atoms: C_17  and  C_18 
REMARK       I    between atoms: C_18  and  N_20 
ROOT
HETATM    1  C   UNL     1     -37.979 -51.219  16.041  1.00  0.00     0.091 C 
HETATM    2  C   UNL     1     -38.964 -51.918  15.184  1.00  0.00     0.096 A 
HETATM    3  N   UNL     1     -39.609 -53.017  15.517  1.00  0.00    -0.287 N 
ATOM      4  HN  UNL     1     -39.497 -53.534  16.388  1.00  0.00     0.188 HD
HETATM    5  N   UNL     1     -40.455 -53.346  14.493  1.00  0.00    -0.278 N 
ATOM      6  HN  UNL     1     -41.084 -54.150  14.469  1.00  0.00     0.189 HD
HETATM    7  C   UNL     1     -40.318 -52.447  13.548  1.00  0.00     0.163 A 
HETATM    8  N   UNL     1     -39.376 -51.523  13.927  1.00  0.00    -0.306 N 
ENDROOT
BRANCH   7   9
HETATM    9  S   UNL     1     -41.216 -52.411  12.071  1.00  0.00    -0.092 SA
BRANCH   9  10
HETATM   10  C   UNL     1     -42.899 -52.061  12.721  1.00  0.00     0.083 C 
BRANCH  10  11
HETATM   11  C   UNL     1     -43.852 -53.220  12.418  1.00  0.00     0.015 C 
BRANCH  11  12
HETATM   12  C   UNL     1     -45.302 -52.964  12.866  1.00  0.00    -0.014 C 
HETATM   13  C   UNL     1     -45.685 -51.492  13.072  1.00  0.00     0.005 C 
HETATM   14  C   UNL     1     -46.690 -51.466  14.230  1.00  0.00     0.000 C 
HETATM   15  C   UNL     1     -46.876 -52.912  14.669  1.00  0.00     0.000 C 
HETATM   16  C   UNL     1     -45.597 -53.602  14.225  1.00  0.00     0.005 C 
ENDBRANCH  11  12
ENDBRANCH  10  11
ENDBRANCH   9  10
ENDBRANCH   7   9
BRANCH   8  17
HETATM   17  C   UNL     1     -38.863 -50.403  13.164  1.00  0.00     0.235 C 
BRANCH  17  18
HETATM   18  C   UNL     1     -37.843 -50.741  12.094  1.00  0.00     0.233 C 
HETATM   19  O   UNL     1     -36.921 -51.531  12.318  1.00  0.00    -0.272 OA
HETATM   20  N   UNL     1     -37.903 -50.126  10.884  1.00  0.00    -0.369 N 
HETATM   21  H   UNL     1     -38.700 -49.606  10.547  1.00  0.00     0.159 HD
HETATM   22  H   UNL     1     -37.224 -50.424  10.192  1.00  0.00     0.159 HD
ENDBRANCH  17  18
ENDBRANCH   8  17
TORSDOF 6
ENDMDL
MODEL 9
REMARK VINA RESULT:      -5.2      4.025      5.208
REMARK  6 active torsions:
REMARK  status: ('A' for Active; 'I' for Inactive)
REMARK    1  A    between atoms: C_7  and  S_8 
REMARK    2  A    between atoms: S_8  and  C_9 
REMARK    3  A    between atoms: C_9  and  C_10 
REMARK    4  A    between atoms: C_10  and  C_11 
REMARK    5  A    between atoms: N_16  and  C_17 
REMARK    6  A    between atoms: C_17  and  C_18 
REMARK       I    between atoms: C_18  and  N_20 
ROOT
HETATM    1  C   UNL     1     -39.152 -54.303  14.186  1.00  0.00     0.091 C 
HETATM    2  C   UNL     1     -40.536 -54.131  13.689  1.00  0.00     0.096 A 
HETATM    3  N   UNL     1     -40.865 -53.903  12.434  1.00  0.00    -0.287 N 
ATOM      4  HN  UNL     1     -40.214 -53.794  11.656  1.00  0.00     0.188 HD
HETATM    5  N   UNL     1     -42.229 -53.837  12.352  1.00  0.00    -0.278 N 
ATOM      6  HN  UNL     1     -42.772 -53.671  11.503  1.00  0.00     0.189 HD
HETATM    7  C   UNL     1     -42.717 -54.024  13.554  1.00  0.00     0.163 A 
HETATM    8  N   UNL     1     -41.689 -54.204  14.445  1.00  0.00    -0.306 N 
ENDROOT
BRANCH   7   9
HETATM    9  S   UNL     1     -44.401 -54.077  13.947  1.00  0.00    -0.092 SA
BRANCH   9  10
HETATM   10  C   UNL     1     -45.063 -52.900  12.701  1.00  0.00     0.083 C 
BRANCH  10  11
HETATM   11  C   UNL     1     -45.604 -51.637  13.378  1.00  0.00     0.015 C 
BRANCH  11  12
HETATM   12  C   UNL     1     -45.747 -51.766  14.905  1.00  0.00    -0.014 C 
HETATM   13  C   UNL     1     -47.171 -51.610  15.456  1.00  0.00     0.005 C 
HETATM   14  C   UNL     1     -47.032 -50.931  16.824  1.00  0.00     0.000 C 
HETATM   15  C   UNL     1     -45.541 -50.712  17.045  1.00  0.00     0.000 C 
HETATM   16  C   UNL     1     -44.959 -50.680  15.642  1.00  0.00     0.005 C 
ENDBRANCH  11  12
ENDBRANCH  10  11
ENDBRANCH   9  10
ENDBRANCH   7   9
BRANCH   8  17
HETATM   17  C   UNL     1     -41.768 -54.374  15.882  1.00  0.00     0.235 C 
BRANCH  17  18
HETATM   18  C   UNL     1     -41.810 -55.806  16.379  1.00  0.00     0.233 C 
HETATM   19  O   UNL     1     -42.877 -56.421  16.461  1.00  0.00    -0.272 OA
HETATM   20  N   UNL     1     -40.667 -56.410  16.797  1.00  0.00    -0.369 N 
HETATM   21  H   UNL     1     -39.737 -56.062  16.614  1.00  0.00     0.159 HD
HETATM   22  H   UNL     1     -40.746 -57.382  17.076  1.00  0.00     0.159 HD
ENDBRANCH  17  18
ENDBRANCH   8  17
TORSDOF 6
ENDMDL
