MODEL 1
REMARK VINA RESULT:      -6.8      0.000      0.000
REMARK  4 active torsions:
REMARK  status: ('A' for Active; 'I' for Inactive)
REMARK    1  A    between atoms: S_2  and  N_5 
REMARK       I    between atoms: N_8  and  C_11 
REMARK       I    between atoms: C_11  and  N_13 
REMARK    2  A    between atoms: N_13  and  C_14 
REMARK    3  A    between atoms: C_14  and  C_15 
REMARK    4  A    between atoms: C_15  and  C_16 
ROOT
HETATM    1  N   UNL     1     -44.003 -53.234  14.699  1.00  0.00    -0.208 NA
HETATM    2  C   UNL     1     -44.297 -51.821  14.300  1.00  0.00     0.127 C 
HETATM    3  C   UNL     1     -43.811 -51.487  12.880  1.00  0.00     0.143 C 
HETATM    4  N   UNL     1     -42.404 -51.859  12.683  1.00  0.00    -0.332 N 
HETATM    5  C   UNL     1     -42.061 -53.226  13.104  1.00  0.00     0.143 C 
HETATM    6  C   UNL     1     -42.536 -53.518  14.533  1.00  0.00     0.127 C 
HETATM    7  C   UNL     1     -41.425 -51.070  12.113  1.00  0.00     0.318 C 
HETATM    8  O   UNL     1     -40.240 -51.389  12.090  1.00  0.00    -0.247 OA
HETATM    9  N   UNL     1     -41.870 -49.881  11.587  1.00  0.00    -0.343 N 
HETATM   10  H   UNL     1     -42.752 -49.973  11.106  1.00  0.00     0.164 HD
ENDROOT
BRANCH   9  11
HETATM   11  C   UNL     1     -40.914 -48.982  10.950  1.00  0.00     0.130 C 
BRANCH  11  12
HETATM   12  C   UNL     1     -41.517 -47.601  10.718  1.00  0.00     0.076 C 
BRANCH  12  13
HETATM   13  C   UNL     1     -42.768 -47.651   9.882  1.00  0.00     0.010 A 
HETATM   14  C   UNL     1     -44.018 -47.438  10.459  1.00  0.00     0.025 A 
HETATM   15  C   UNL     1     -45.155 -47.538   9.660  1.00  0.00     0.003 A 
HETATM   16  C   UNL     1     -45.016 -47.837   8.312  1.00  0.00     0.017 A 
HETATM   17  C   UNL     1     -43.736 -48.016   7.811  1.00  0.00     0.088 A 
HETATM   18  N   UNL     1     -42.615 -47.929   8.565  1.00  0.00    -0.369 N 
ATOM     19  HN  UNL     1     -41.691 -48.069   8.156  1.00  0.00     0.165 HD
ENDBRANCH  12  13
ENDBRANCH  11  12
ENDBRANCH   9  11
BRANCH   1  20
HETATM   20  S   UNL     1     -45.036 -54.447  14.115  1.00  0.00     0.207 S 
HETATM   21  C   UNL     1     -46.540 -54.150  15.026  1.00  0.00     0.180 C 
HETATM   22  O   UNL     1     -44.509 -55.724  14.546  1.00  0.00    -0.212 OA
HETATM   23  O   UNL     1     -45.298 -54.189  12.716  1.00  0.00    -0.212 OA
ENDBRANCH   1  20
TORSDOF 4
ENDMDL
MODEL 2
REMARK VINA RESULT:      -6.3      1.707      2.509
REMARK  4 active torsions:
REMARK  status: ('A' for Active; 'I' for Inactive)
REMARK    1  A    between atoms: S_2  and  N_5 
REMARK       I    between atoms: N_8  and  C_11 
REMARK       I    between atoms: C_11  and  N_13 
REMARK    2  A    between atoms: N_13  and  C_14 
REMARK    3  A    between atoms: C_14  and  C_15 
REMARK    4  A    between atoms: C_15  and  C_16 
ROOT
HETATM    1  N   UNL     1     -43.798 -53.376  14.693  1.00  0.00    -0.208 NA
HETATM    2  C   UNL     1     -44.178 -51.957  14.406  1.00  0.00     0.127 C 
HETATM    3  C   UNL     1     -43.815 -51.517  12.978  1.00  0.00     0.143 C 
HETATM    4  N   UNL     1     -42.414 -51.814  12.655  1.00  0.00    -0.332 N 
HETATM    5  C   UNL     1     -41.984 -53.186  12.963  1.00  0.00     0.143 C 
HETATM    6  C   UNL     1     -42.337 -53.584  14.402  1.00  0.00     0.127 C 
HETATM    7  C   UNL     1     -41.513 -50.949  12.065  1.00  0.00     0.318 C 
HETATM    8  O   UNL     1     -40.322 -51.213  11.935  1.00  0.00    -0.247 OA
HETATM    9  N   UNL     1     -42.045 -49.753  11.649  1.00  0.00    -0.343 N 
HETATM   10  H   UNL     1     -42.956 -49.855  11.229  1.00  0.00     0.164 HD
ENDROOT
BRANCH   9  11
HETATM   11  C   UNL     1     -41.177 -48.775  11.001  1.00  0.00     0.130 C 
BRANCH  11  12
HETATM   12  C   UNL     1     -41.985 -47.668  10.332  1.00  0.00     0.076 C 
BRANCH  12  13
HETATM   13  C   UNL     1     -41.414 -46.299  10.592  1.00  0.00     0.010 A 
HETATM   14  C   UNL     1     -42.183 -45.314  11.209  1.00  0.00     0.025 A 
HETATM   15  C   UNL     1     -41.634 -44.047  11.391  1.00  0.00     0.003 A 
HETATM   16  C   UNL     1     -40.336 -43.799  10.964  1.00  0.00     0.017 A 
HETATM   17  C   UNL     1     -39.632 -44.838  10.376  1.00  0.00     0.088 A 
HETATM   18  N   UNL     1     -40.142 -46.076  10.183  1.00  0.00    -0.369 N 
ATOM     19  HN  UNL     1     -39.590 -46.813   9.746  1.00  0.00     0.165 HD
ENDBRANCH  12  13
ENDBRANCH  11  12
ENDBRANCH   9  11
BRANCH   1  20
HETATM   20  S   UNL     1     -44.822 -54.598  14.111  1.00  0.00     0.207 S 
HETATM   21  C   UNL     1     -46.346 -54.274  14.980  1.00  0.00     0.180 C 
HETATM   22  O   UNL     1     -44.311 -55.867  14.583  1.00  0.00    -0.212 OA
HETATM   23  O   UNL     1     -45.050 -54.370  12.702  1.00  0.00    -0.212 OA
ENDBRANCH   1  20
TORSDOF 4
ENDMDL
MODEL 3
REMARK VINA RESULT:      -6.2      1.897      2.605
REMARK  4 active torsions:
REMARK  status: ('A' for Active; 'I' for Inactive)
REMARK    1  A    between atoms: S_2  and  N_5 
REMARK       I    between atoms: N_8  and  C_11 
REMARK       I    between atoms: C_11  and  N_13 
REMARK    2  A    between atoms: N_13  and  C_14 
REMARK    3  A    between atoms: C_14  and  C_15 
REMARK    4  A    between atoms: C_15  and  C_16 
ROOT
HETATM    1  N   UNL     1     -44.098 -53.973  14.839  1.00  0.00    -0.208 NA
HETATM    2  C   UNL     1     -43.745 -52.534  15.052  1.00  0.00     0.127 C 
HETATM    3  C   UNL     1     -42.938 -51.937  13.887  1.00  0.00     0.143 C 
HETATM    4  N   UNL     1     -41.778 -52.769  13.543  1.00  0.00    -0.332 N 
HETATM    5  C   UNL     1     -42.072 -54.200  13.369  1.00  0.00     0.143 C 
HETATM    6  C   UNL     1     -42.854 -54.769  14.559  1.00  0.00     0.127 C 
HETATM    7  C   UNL     1     -40.488 -52.322  13.335  1.00  0.00     0.318 C 
HETATM    8  O   UNL     1     -39.537 -53.081  13.175  1.00  0.00    -0.247 OA
HETATM    9  N   UNL     1     -40.339 -50.957  13.342  1.00  0.00    -0.343 N 
HETATM   10  H   UNL     1     -41.093 -50.478  12.873  1.00  0.00     0.164 HD
ENDROOT
BRANCH   9  11
HETATM   11  C   UNL     1     -39.015 -50.384  13.119  1.00  0.00     0.130 C 
BRANCH  11  12
HETATM   12  C   UNL     1     -38.872 -49.850  11.698  1.00  0.00     0.076 C 
BRANCH  12  13
HETATM   13  C   UNL     1     -39.876 -48.773  11.382  1.00  0.00     0.010 A 
HETATM   14  C   UNL     1     -39.763 -47.507  11.952  1.00  0.00     0.025 A 
HETATM   15  C   UNL     1     -40.737 -46.552  11.670  1.00  0.00     0.003 A 
HETATM   16  C   UNL     1     -41.788 -46.880  10.824  1.00  0.00     0.017 A 
HETATM   17  C   UNL     1     -41.817 -48.156  10.283  1.00  0.00     0.088 A 
HETATM   18  N   UNL     1     -40.888 -49.104  10.543  1.00  0.00    -0.369 N 
ATOM     19  HN  UNL     1     -40.947 -50.032  10.124  1.00  0.00     0.165 HD
ENDBRANCH  12  13
ENDBRANCH  11  12
ENDBRANCH   9  11
BRANCH   1  20
HETATM   20  S   UNL     1     -45.410 -54.319  13.820  1.00  0.00     0.207 S 
HETATM   21  C   UNL     1     -46.748 -53.427  14.592  1.00  0.00     0.180 C 
HETATM   22  O   UNL     1     -45.702 -55.732  13.936  1.00  0.00    -0.212 OA
HETATM   23  O   UNL     1     -45.156 -53.720  12.529  1.00  0.00    -0.212 OA
ENDBRANCH   1  20
TORSDOF 4
ENDMDL
MODEL 4
REMARK VINA RESULT:      -6.1      3.970      7.726
REMARK  4 active torsions:
REMARK  status: ('A' for Active; 'I' for Inactive)
REMARK    1  A    between atoms: S_2  and  N_5 
REMARK       I    between atoms: N_8  and  C_11 
REMARK       I    between atoms: C_11  and  N_13 
REMARK    2  A    between atoms: N_13  and  C_14 
REMARK    3  A    between atoms: C_14  and  C_15 
REMARK    4  A    between atoms: C_15  and  C_16 
ROOT
HETATM    1  N   UNL     1     -41.695 -45.205  10.069  1.00  0.00    -0.208 NA
HETATM    2  C   UNL     1     -42.592 -46.386   9.857  1.00  0.00     0.127 C 
HETATM    3  C   UNL     1     -42.536 -47.394  11.017  1.00  0.00     0.143 C 
HETATM    4  N   UNL     1     -41.156 -47.771  11.347  1.00  0.00    -0.332 N 
HETATM    5  C   UNL     1     -40.230 -46.643  11.520  1.00  0.00     0.143 C 
HETATM    6  C   UNL     1     -40.290 -45.670  10.334  1.00  0.00     0.127 C 
HETATM    7  C   UNL     1     -40.689 -49.055  11.545  1.00  0.00     0.318 C 
HETATM    8  O   UNL     1     -39.499 -49.316  11.695  1.00  0.00    -0.247 OA
HETATM    9  N   UNL     1     -41.654 -50.032  11.541  1.00  0.00    -0.343 N 
HETATM   10  H   UNL     1     -42.497 -49.751  12.019  1.00  0.00     0.164 HD
ENDROOT
BRANCH   9  11
HETATM   11  C   UNL     1     -41.263 -51.422  11.755  1.00  0.00     0.130 C 
BRANCH  11  12
HETATM   12  C   UNL     1     -41.506 -51.854  13.196  1.00  0.00     0.076 C 
BRANCH  12  13
HETATM   13  C   UNL     1     -42.682 -52.787  13.328  1.00  0.00     0.010 A 
HETATM   14  C   UNL     1     -42.693 -53.783  14.303  1.00  0.00     0.025 A 
HETATM   15  C   UNL     1     -43.778 -54.654  14.362  1.00  0.00     0.003 A 
HETATM   16  C   UNL     1     -44.823 -54.504  13.460  1.00  0.00     0.017 A 
HETATM   17  C   UNL     1     -44.743 -53.476  12.534  1.00  0.00     0.088 A 
HETATM   18  N   UNL     1     -43.700 -52.619  12.450  1.00  0.00    -0.369 N 
ATOM     19  HN  UNL     1     -43.681 -51.876  11.752  1.00  0.00     0.165 HD
ENDBRANCH  12  13
ENDBRANCH  11  12
ENDBRANCH   9  11
BRANCH   1  20
HETATM   20  S   UNL     1     -42.245 -43.973  11.098  1.00  0.00     0.207 S 
HETATM   21  C   UNL     1     -40.773 -43.001  11.362  1.00  0.00     0.180 C 
HETATM   22  O   UNL     1     -42.602 -44.578  12.363  1.00  0.00    -0.212 OA
HETATM   23  O   UNL     1     -43.196 -43.162  10.371  1.00  0.00    -0.212 OA
ENDBRANCH   1  20
TORSDOF 4
ENDMDL
MODEL 5
REMARK VINA RESULT:      -5.8      3.498      5.222
REMARK  4 active torsions:
REMARK  status: ('A' for Active; 'I' for Inactive)
REMARK    1  A    between atoms: S_2  and  N_5 
REMARK       I    between atoms: N_8  and  C_11 
REMARK       I    between atoms: C_11  and  N_13 
REMARK    2  A    between atoms: N_13  and  C_14 
REMARK    3  A    between atoms: C_14  and  C_15 
REMARK    4  A    between atoms: C_15  and  C_16 
ROOT
HETATM    1  N   UNL     1     -44.115 -53.512  14.752  1.00  0.00    -0.208 NA
HETATM    2  C   UNL     1     -43.785 -52.079  14.470  1.00  0.00     0.127 C 
HETATM    3  C   UNL     1     -42.892 -51.903  13.231  1.00  0.00     0.143 C 
HETATM    4  N   UNL     1     -41.706 -52.767  13.286  1.00  0.00    -0.332 N 
HETATM    5  C   UNL     1     -41.980 -54.176  13.604  1.00  0.00     0.143 C 
HETATM    6  C   UNL     1     -42.850 -54.317  14.859  1.00  0.00     0.127 C 
HETATM    7  C   UNL     1     -40.405 -52.382  13.027  1.00  0.00     0.318 C 
HETATM    8  O   UNL     1     -39.441 -53.119  13.211  1.00  0.00    -0.247 OA
HETATM    9  N   UNL     1     -40.261 -51.096  12.565  1.00  0.00    -0.343 N 
HETATM   10  H   UNL     1     -40.978 -50.835  11.905  1.00  0.00     0.164 HD
ENDROOT
BRANCH   9  11
HETATM   11  C   UNL     1     -38.926 -50.598  12.250  1.00  0.00     0.130 C 
BRANCH  11  12
HETATM   12  C   UNL     1     -38.746 -49.156  12.713  1.00  0.00     0.076 C 
BRANCH  12  13
HETATM   13  C   UNL     1     -37.891 -49.051  13.949  1.00  0.00     0.010 A 
HETATM   14  C   UNL     1     -37.398 -47.816  14.369  1.00  0.00     0.025 A 
HETATM   15  C   UNL     1     -36.574 -47.767  15.490  1.00  0.00     0.003 A 
HETATM   16  C   UNL     1     -36.271 -48.941  16.166  1.00  0.00     0.017 A 
HETATM   17  C   UNL     1     -36.816 -50.125  15.694  1.00  0.00     0.088 A 
HETATM   18  N   UNL     1     -37.616 -50.203  14.606  1.00  0.00    -0.369 N 
ATOM     19  HN  UNL     1     -37.996 -51.096  14.292  1.00  0.00     0.165 HD
ENDBRANCH  12  13
ENDBRANCH  11  12
ENDBRANCH   9  11
BRANCH   1  20
HETATM   20  S   UNL     1     -45.343 -54.232  13.828  1.00  0.00     0.207 S 
HETATM   21  C   UNL     1     -46.826 -53.622  14.609  1.00  0.00     0.180 C 
HETATM   22  O   UNL     1     -45.287 -55.661  14.052  1.00  0.00    -0.212 OA
HETATM   23  O   UNL     1     -45.285 -53.690  12.489  1.00  0.00    -0.212 OA
ENDBRANCH   1  20
TORSDOF 4
ENDMDL
MODEL 6
REMARK VINA RESULT:      -5.5      3.388      7.024
REMARK  4 active torsions:
REMARK  status: ('A' for Active; 'I' for Inactive)
REMARK    1  A    between atoms: S_2  and  N_5 
REMARK       I    between atoms: N_8  and  C_11 
REMARK       I    between atoms: C_11  and  N_13 
REMARK    2  A    between atoms: N_13  and  C_14 
REMARK    3  A    between atoms: C_14  and  C_15 
REMARK    4  A    between atoms: C_15  and  C_16 
ROOT
HETATM    1  N   UNL     1     -41.355 -46.707  11.165  1.00  0.00    -0.208 NA
HETATM    2  C   UNL     1     -42.497 -47.597  10.783  1.00  0.00     0.127 C 
HETATM    3  C   UNL     1     -42.840 -48.629  11.869  1.00  0.00     0.143 C 
HETATM    4  N   UNL     1     -41.654 -49.374  12.310  1.00  0.00    -0.332 N 
HETATM    5  C   UNL     1     -40.492 -48.540  12.653  1.00  0.00     0.143 C 
HETATM    6  C   UNL     1     -40.160 -47.540  11.538  1.00  0.00     0.127 C 
HETATM    7  C   UNL     1     -41.562 -50.743  12.464  1.00  0.00     0.318 C 
HETATM    8  O   UNL     1     -40.507 -51.317  12.715  1.00  0.00    -0.247 OA
HETATM    9  N   UNL     1     -42.742 -51.427  12.295  1.00  0.00    -0.343 N 
HETATM   10  H   UNL     1     -43.532 -50.951  12.704  1.00  0.00     0.164 HD
ENDROOT
BRANCH   9  11
HETATM   11  C   UNL     1     -42.752 -52.878  12.450  1.00  0.00     0.130 C 
BRANCH  11  12
HETATM   12  C   UNL     1     -44.175 -53.425  12.482  1.00  0.00     0.076 C 
BRANCH  12  13
HETATM   13  C   UNL     1     -45.022 -52.768  13.541  1.00  0.00     0.010 A 
HETATM   14  C   UNL     1     -46.135 -52.007  13.190  1.00  0.00     0.025 A 
HETATM   15  C   UNL     1     -46.865 -51.379  14.195  1.00  0.00     0.003 A 
HETATM   16  C   UNL     1     -46.475 -51.533  15.519  1.00  0.00     0.017 A 
HETATM   17  C   UNL     1     -45.367 -52.322  15.785  1.00  0.00     0.088 A 
HETATM   18  N   UNL     1     -44.637 -52.939  14.828  1.00  0.00    -0.369 N 
ATOM     19  HN  UNL     1     -43.827 -53.511  15.067  1.00  0.00     0.165 HD
ENDBRANCH  12  13
ENDBRANCH  11  12
ENDBRANCH   9  11
BRANCH   1  20
HETATM   20  S   UNL     1     -41.682 -45.416  12.217  1.00  0.00     0.207 S 
HETATM   21  C   UNL     1     -42.244 -44.141  11.104  1.00  0.00     0.180 C 
HETATM   22  O   UNL     1     -40.425 -44.978  12.784  1.00  0.00    -0.212 OA
HETATM   23  O   UNL     1     -42.788 -45.790  13.069  1.00  0.00    -0.212 OA
ENDBRANCH   1  20
TORSDOF 4
ENDMDL
MODEL 7
REMARK VINA RESULT:      -5.5      5.077      7.757
REMARK  4 active torsions:
REMARK  status: ('A' for Active; 'I' for Inactive)
REMARK    1  A    between atoms: S_2  and  N_5 
REMARK       I    between atoms: N_8  and  C_11 
REMARK       I    between atoms: C_11  and  N_13 
REMARK    2  A    between atoms: N_13  and  C_14 
REMARK    3  A    between atoms: C_14  and  C_15 
REMARK    4  A    between atoms: C_15  and  C_16 
ROOT
HETATM    1  N   UNL     1     -37.164 -48.554  16.754  1.00  0.00    -0.208 NA
HETATM    2  C   UNL     1     -38.175 -49.659  16.760  1.00  0.00     0.127 C 
HETATM    3  C   UNL     1     -38.287 -50.374  15.403  1.00  0.00     0.143 C 
HETATM    4  N   UNL     1     -38.479 -49.425  14.299  1.00  0.00    -0.332 N 
HETATM    5  C   UNL     1     -37.534 -48.298  14.281  1.00  0.00     0.143 C 
HETATM    6  C   UNL     1     -37.466 -47.590  15.640  1.00  0.00     0.127 C 
HETATM    7  C   UNL     1     -39.414 -49.530  13.289  1.00  0.00     0.318 C 
HETATM    8  O   UNL     1     -39.609 -48.641  12.466  1.00  0.00    -0.247 OA
HETATM    9  N   UNL     1     -40.133 -50.700  13.282  1.00  0.00    -0.343 N 
HETATM   10  H   UNL     1     -39.568 -51.507  13.496  1.00  0.00     0.164 HD
ENDROOT
BRANCH   9  11
HETATM   11  C   UNL     1     -41.138 -50.912  12.245  1.00  0.00     0.130 C 
BRANCH  11  12
HETATM   12  C   UNL     1     -41.229 -52.382  11.850  1.00  0.00     0.076 C 
BRANCH  12  13
HETATM   13  C   UNL     1     -42.328 -53.108  12.579  1.00  0.00     0.010 A 
HETATM   14  C   UNL     1     -42.049 -53.856  13.722  1.00  0.00     0.025 A 
HETATM   15  C   UNL     1     -43.085 -54.550  14.342  1.00  0.00     0.003 A 
HETATM   16  C   UNL     1     -44.368 -54.474  13.815  1.00  0.00     0.017 A 
HETATM   17  C   UNL     1     -44.565 -53.694  12.687  1.00  0.00     0.088 A 
HETATM   18  N   UNL     1     -43.577 -53.013  12.062  1.00  0.00    -0.369 N 
ATOM     19  HN  UNL     1     -43.765 -52.450  11.232  1.00  0.00     0.165 HD
ENDBRANCH  12  13
ENDBRANCH  11  12
ENDBRANCH   9  11
BRANCH   1  20
HETATM   20  S   UNL     1     -35.529 -48.982  16.903  1.00  0.00     0.207 S 
HETATM   21  C   UNL     1     -35.303 -49.043  18.671  1.00  0.00     0.180 C 
HETATM   22  O   UNL     1     -34.735 -47.883  16.398  1.00  0.00    -0.212 OA
HETATM   23  O   UNL     1     -35.358 -50.320  16.381  1.00  0.00    -0.212 OA
ENDBRANCH   1  20
TORSDOF 4
ENDMDL
MODEL 8
REMARK VINA RESULT:      -5.4      4.730      8.179
REMARK  4 active torsions:
REMARK  status: ('A' for Active; 'I' for Inactive)
REMARK    1  A    between atoms: S_2  and  N_5 
REMARK       I    between atoms: N_8  and  C_11 
REMARK       I    between atoms: C_11  and  N_13 
REMARK    2  A    between atoms: N_13  and  C_14 
REMARK    3  A    between atoms: C_14  and  C_15 
REMARK    4  A    between atoms: C_15  and  C_16 
ROOT
HETATM    1  N   UNL     1     -41.663 -44.918  12.425  1.00  0.00    -0.208 NA
HETATM    2  C   UNL     1     -40.725 -45.432  13.474  1.00  0.00     0.127 C 
HETATM    3  C   UNL     1     -39.524 -46.188  12.883  1.00  0.00     0.143 C 
HETATM    4  N   UNL     1     -39.945 -47.223  11.931  1.00  0.00    -0.332 N 
HETATM    5  C   UNL     1     -40.902 -46.774  10.910  1.00  0.00     0.143 C 
HETATM    6  C   UNL     1     -42.100 -46.047  11.533  1.00  0.00     0.127 C 
HETATM    7  C   UNL     1     -39.494 -48.528  11.895  1.00  0.00     0.318 C 
HETATM    8  O   UNL     1     -39.976 -49.381  11.155  1.00  0.00    -0.247 OA
HETATM    9  N   UNL     1     -38.473 -48.814  12.768  1.00  0.00    -0.343 N 
HETATM   10  H   UNL     1     -37.790 -48.073  12.828  1.00  0.00     0.164 HD
ENDROOT
BRANCH   9  11
HETATM   11  C   UNL     1     -37.917 -50.163  12.798  1.00  0.00     0.130 C 
BRANCH  11  12
HETATM   12  C   UNL     1     -38.366 -50.924  14.041  1.00  0.00     0.076 C 
BRANCH  12  13
HETATM   13  C   UNL     1     -39.287 -52.069  13.715  1.00  0.00     0.010 A 
HETATM   14  C   UNL     1     -39.217 -53.263  14.431  1.00  0.00     0.025 A 
HETATM   15  C   UNL     1     -40.056 -54.315  14.070  1.00  0.00     0.003 A 
HETATM   16  C   UNL     1     -40.944 -54.147  13.016  1.00  0.00     0.017 A 
HETATM   17  C   UNL     1     -40.964 -52.922  12.368  1.00  0.00     0.088 A 
HETATM   18  N   UNL     1     -40.159 -51.886  12.694  1.00  0.00    -0.369 N 
ATOM     19  HN  UNL     1     -40.205 -51.000  12.191  1.00  0.00     0.165 HD
ENDBRANCH  12  13
ENDBRANCH  11  12
ENDBRANCH   9  11
BRANCH   1  20
HETATM   20  S   UNL     1     -41.230 -43.493  11.612  1.00  0.00     0.207 S 
HETATM   21  C   UNL     1     -42.814 -42.815  11.148  1.00  0.00     0.180 C 
HETATM   22  O   UNL     1     -40.542 -43.867  10.396  1.00  0.00    -0.212 OA
HETATM   23  O   UNL     1     -40.617 -42.593  12.563  1.00  0.00    -0.212 OA
ENDBRANCH   1  20
TORSDOF 4
ENDMDL
MODEL 9
REMARK VINA RESULT:      -5.2      3.212      4.127
REMARK  4 active torsions:
REMARK  status: ('A' for Active; 'I' for Inactive)
REMARK    1  A    between atoms: S_2  and  N_5 
REMARK       I    between atoms: N_8  and  C_11 
REMARK       I    between atoms: C_11  and  N_13 
REMARK    2  A    between atoms: N_13  and  C_14 
REMARK    3  A    between atoms: C_14  and  C_15 
REMARK    4  A    between atoms: C_15  and  C_16 
ROOT
HETATM    1  N   UNL     1     -43.803 -52.932  15.239  1.00  0.00    -0.208 NA
HETATM    2  C   UNL     1     -43.281 -52.202  14.040  1.00  0.00     0.127 C 
HETATM    3  C   UNL     1     -41.901 -52.706  13.587  1.00  0.00     0.143 C 
HETATM    4  N   UNL     1     -40.942 -52.746  14.698  1.00  0.00    -0.332 N 
HETATM    5  C   UNL     1     -41.430 -53.416  15.913  1.00  0.00     0.143 C 
HETATM    6  C   UNL     1     -42.795 -52.872  16.353  1.00  0.00     0.127 C 
HETATM    7  C   UNL     1     -39.649 -52.262  14.675  1.00  0.00     0.318 C 
HETATM    8  O   UNL     1     -38.938 -52.212  15.675  1.00  0.00    -0.247 OA
HETATM    9  N   UNL     1     -39.217 -51.816  13.450  1.00  0.00    -0.343 N 
HETATM   10  H   UNL     1     -39.520 -52.406  12.690  1.00  0.00     0.164 HD
ENDROOT
BRANCH   9  11
HETATM   11  C   UNL     1     -37.860 -51.296  13.319  1.00  0.00     0.130 C 
BRANCH  11  12
HETATM   12  C   UNL     1     -37.737 -50.353  12.128  1.00  0.00     0.076 C 
BRANCH  12  13
HETATM   13  C   UNL     1     -38.414 -49.029  12.367  1.00  0.00     0.010 A 
HETATM   14  C   UNL     1     -38.223 -48.340  13.563  1.00  0.00     0.025 A 
HETATM   15  C   UNL     1     -38.903 -47.141  13.765  1.00  0.00     0.003 A 
HETATM   16  C   UNL     1     -39.744 -46.658  12.771  1.00  0.00     0.017 A 
HETATM   17  C   UNL     1     -39.863 -47.395  11.603  1.00  0.00     0.088 A 
HETATM   18  N   UNL     1     -39.219 -48.564  11.382  1.00  0.00    -0.369 N 
ATOM     19  HN  UNL     1     -39.336 -49.076  10.508  1.00  0.00     0.165 HD
ENDBRANCH  12  13
ENDBRANCH  11  12
ENDBRANCH   9  11
BRANCH   1  20
HETATM   20  S   UNL     1     -44.500 -54.459  14.989  1.00  0.00     0.207 S 
HETATM   21  C   UNL     1     -45.116 -54.336  13.319  1.00  0.00     0.180 C 
HETATM   22  O   UNL     1     -45.643 -54.574  15.869  1.00  0.00    -0.212 OA
HETATM   23  O   UNL     1     -43.447 -55.450  15.009  1.00  0.00    -0.212 OA
ENDBRANCH   1  20
TORSDOF 4
ENDMDL
