MODEL 1
REMARK VINA RESULT:      -6.1      0.000      0.000
REMARK  3 active torsions:
REMARK  status: ('A' for Active; 'I' for Inactive)
REMARK    1  A    between atoms: N_2  and  C_4 
REMARK    2  A    between atoms: C_8  and  N_9 
REMARK       I    between atoms: N_9  and  C_10 
REMARK       I    between atoms: C_10  and  N_12 
REMARK    3  A    between atoms: N_12  and  C_13 
ROOT
HETATM    1  N   UNL     1     -41.253 -50.150  11.490  1.00  0.00    -0.295 N 
HETATM    2  C   UNL     1     -41.707 -51.298  12.070  1.00  0.00     0.322 C 
HETATM    3  O   UNL     1     -40.962 -52.276  12.149  1.00  0.00    -0.247 OA
HETATM    4  N   UNL     1     -42.986 -51.290  12.515  1.00  0.00    -0.338 N 
HETATM    5  H   UNL     1     -40.315 -50.238  11.128  1.00  0.00     0.172 HD
HETATM    6  H   UNL     1     -43.479 -50.417  12.341  1.00  0.00     0.164 HD
ENDROOT
BRANCH   1   7
HETATM    7  C   UNL     1     -41.902 -48.912  11.355  1.00  0.00     0.110 A 
HETATM    8  C   UNL     1     -41.874 -48.048  12.438  1.00  0.00     0.049 A 
HETATM    9  C   UNL     1     -42.479 -46.803  12.311  1.00  0.00     0.007 A 
HETATM   10  C   UNL     1     -43.103 -46.470  11.114  1.00  0.00     0.042 A 
HETATM   11  C   UNL     1     -43.139 -47.396  10.076  1.00  0.00     0.083 A 
HETATM   12  N   UNL     1     -42.530 -48.599  10.196  1.00  0.00    -0.333 N 
ATOM     13  HN  UNL     1     -42.545 -49.263   9.422  1.00  0.00     0.168 HD
BRANCH  11  14
HETATM   14  N   UNL     1     -43.860 -47.068   8.907  1.00  0.00    -0.278 NA
HETATM   15  C   UNL     1     -45.302 -47.020   9.123  1.00  0.00     0.118 C 
HETATM   16  C   UNL     1     -43.428 -47.865   7.760  1.00  0.00     0.118 C 
ENDBRANCH  11  14
ENDBRANCH   1   7
BRANCH   4  17
HETATM   17  C   UNL     1     -43.667 -52.393  13.175  1.00  0.00     0.089 C 
HETATM   18  C   UNL     1     -45.027 -52.712  12.547  1.00  0.00     0.055 C 
HETATM   19  C   UNL     1     -46.074 -51.644  12.867  1.00  0.00     0.274 C 
HETATM   20  N   UNL     1     -46.217 -51.339  14.298  1.00  0.00     0.084 N 
HETATM   21  C   UNL     1     -46.915 -52.390  15.033  1.00  0.00     0.309 C 
HETATM   22  C   UNL     1     -44.919 -51.019  14.894  1.00  0.00     0.274 C 
HETATM   23  C   UNL     1     -43.848 -52.095  14.666  1.00  0.00     0.055 C 
ENDBRANCH   4  17
TORSDOF 3
ENDMDL
MODEL 2
REMARK VINA RESULT:      -6.0      3.457      6.522
REMARK  3 active torsions:
REMARK  status: ('A' for Active; 'I' for Inactive)
REMARK    1  A    between atoms: N_2  and  C_4 
REMARK    2  A    between atoms: C_8  and  N_9 
REMARK       I    between atoms: N_9  and  C_10 
REMARK       I    between atoms: C_10  and  N_12 
REMARK    3  A    between atoms: N_12  and  C_13 
ROOT
HETATM    1  N   UNL     1     -41.070 -51.628  11.312  1.00  0.00    -0.295 N 
HETATM    2  C   UNL     1     -40.463 -50.462  11.677  1.00  0.00     0.322 C 
HETATM    3  O   UNL     1     -40.020 -49.708  10.810  1.00  0.00    -0.247 OA
HETATM    4  N   UNL     1     -40.370 -50.215  13.005  1.00  0.00    -0.338 N 
HETATM    5  H   UNL     1     -41.056 -51.782  10.314  1.00  0.00     0.172 HD
HETATM    6  H   UNL     1     -40.751 -50.955  13.592  1.00  0.00     0.164 HD
ENDROOT
BRANCH   1   7
HETATM    7  C   UNL     1     -41.694 -52.591  12.122  1.00  0.00     0.110 A 
HETATM    8  C   UNL     1     -40.892 -53.332  12.975  1.00  0.00     0.049 A 
HETATM    9  C   UNL     1     -41.496 -54.265  13.810  1.00  0.00     0.007 A 
HETATM   10  C   UNL     1     -42.875 -54.435  13.756  1.00  0.00     0.042 A 
HETATM   11  C   UNL     1     -43.623 -53.693  12.847  1.00  0.00     0.083 A 
HETATM   12  N   UNL     1     -43.034 -52.771  12.049  1.00  0.00    -0.333 N 
ATOM     13  HN  UNL     1     -43.594 -52.219  11.400  1.00  0.00     0.168 HD
BRANCH  11  14
HETATM   14  N   UNL     1     -45.007 -53.953  12.746  1.00  0.00    -0.278 NA
HETATM   15  C   UNL     1     -45.809 -52.738  12.644  1.00  0.00     0.118 C 
HETATM   16  C   UNL     1     -45.456 -54.912  13.754  1.00  0.00     0.118 C 
ENDBRANCH  11  14
ENDBRANCH   1   7
BRANCH   4  17
HETATM   17  C   UNL     1     -39.779 -49.033  13.615  1.00  0.00     0.089 C 
HETATM   18  C   UNL     1     -38.248 -49.055  13.588  1.00  0.00     0.055 C 
HETATM   19  C   UNL     1     -37.669 -50.069  14.577  1.00  0.00     0.274 C 
HETATM   20  N   UNL     1     -38.167 -49.932  15.954  1.00  0.00     0.084 N 
HETATM   21  C   UNL     1     -37.603 -48.777  16.647  1.00  0.00     0.309 C 
HETATM   22  C   UNL     1     -39.631 -49.927  15.979  1.00  0.00     0.274 C 
HETATM   23  C   UNL     1     -40.265 -48.875  15.058  1.00  0.00     0.055 C 
ENDBRANCH   4  17
TORSDOF 3
ENDMDL
MODEL 3
REMARK VINA RESULT:      -5.8      3.001      5.847
REMARK  3 active torsions:
REMARK  status: ('A' for Active; 'I' for Inactive)
REMARK    1  A    between atoms: N_2  and  C_4 
REMARK    2  A    between atoms: C_8  and  N_9 
REMARK       I    between atoms: N_9  and  C_10 
REMARK       I    between atoms: C_10  and  N_12 
REMARK    3  A    between atoms: N_12  and  C_13 
ROOT
HETATM    1  N   UNL     1     -41.014 -51.695  11.339  1.00  0.00    -0.295 N 
HETATM    2  C   UNL     1     -40.646 -50.412  11.622  1.00  0.00     0.322 C 
HETATM    3  O   UNL     1     -40.127 -49.720  10.746  1.00  0.00    -0.247 OA
HETATM    4  N   UNL     1     -40.866 -49.983  12.887  1.00  0.00    -0.338 N 
HETATM    5  H   UNL     1     -40.772 -51.974  10.399  1.00  0.00     0.172 HD
HETATM    6  H   UNL     1     -41.268 -50.689  13.501  1.00  0.00     0.164 HD
ENDROOT
BRANCH   1   7
HETATM    7  C   UNL     1     -41.672 -52.627  12.157  1.00  0.00     0.110 A 
HETATM    8  C   UNL     1     -40.901 -53.358  13.048  1.00  0.00     0.049 A 
HETATM    9  C   UNL     1     -41.538 -54.260  13.892  1.00  0.00     0.007 A 
HETATM   10  C   UNL     1     -42.918 -54.412  13.809  1.00  0.00     0.042 A 
HETATM   11  C   UNL     1     -43.634 -53.683  12.864  1.00  0.00     0.083 A 
HETATM   12  N   UNL     1     -43.012 -52.791  12.057  1.00  0.00    -0.333 N 
ATOM     13  HN  UNL     1     -43.549 -52.248  11.381  1.00  0.00     0.168 HD
BRANCH  11  14
HETATM   14  N   UNL     1     -45.019 -53.926  12.736  1.00  0.00    -0.278 NA
HETATM   15  C   UNL     1     -45.804 -52.701  12.630  1.00  0.00     0.118 C 
HETATM   16  C   UNL     1     -45.496 -54.888  13.728  1.00  0.00     0.118 C 
ENDBRANCH  11  14
ENDBRANCH   1   7
BRANCH   4  17
HETATM   17  C   UNL     1     -40.567 -48.655  13.402  1.00  0.00     0.089 C 
HETATM   18  C   UNL     1     -40.266 -48.655  14.904  1.00  0.00     0.055 C 
HETATM   19  C   UNL     1     -41.524 -48.889  15.743  1.00  0.00     0.274 C 
HETATM   20  N   UNL     1     -42.642 -47.985  15.433  1.00  0.00     0.084 N 
HETATM   21  C   UNL     1     -42.431 -46.631  15.938  1.00  0.00     0.309 C 
HETATM   22  C   UNL     1     -42.938 -47.998  14.000  1.00  0.00     0.274 C 
HETATM   23  C   UNL     1     -41.724 -47.696  13.111  1.00  0.00     0.055 C 
ENDBRANCH   4  17
TORSDOF 3
ENDMDL
MODEL 4
REMARK VINA RESULT:      -5.7      3.659      5.270
REMARK  3 active torsions:
REMARK  status: ('A' for Active; 'I' for Inactive)
REMARK    1  A    between atoms: N_2  and  C_4 
REMARK    2  A    between atoms: C_8  and  N_9 
REMARK       I    between atoms: N_9  and  C_10 
REMARK       I    between atoms: C_10  and  N_12 
REMARK    3  A    between atoms: N_12  and  C_13 
ROOT
HETATM    1  N   UNL     1     -43.875 -53.098  12.025  1.00  0.00    -0.295 N 
HETATM    2  C   UNL     1     -45.041 -52.698  12.608  1.00  0.00     0.322 C 
HETATM    3  O   UNL     1     -46.095 -52.769  11.975  1.00  0.00    -0.247 OA
HETATM    4  N   UNL     1     -44.954 -52.219  13.872  1.00  0.00    -0.338 N 
HETATM    5  H   UNL     1     -43.996 -53.390  11.065  1.00  0.00     0.172 HD
HETATM    6  H   UNL     1     -44.006 -52.190  14.240  1.00  0.00     0.164 HD
ENDROOT
BRANCH   1   7
HETATM    7  C   UNL     1     -42.586 -53.162  12.578  1.00  0.00     0.110 A 
HETATM    8  C   UNL     1     -42.337 -54.150  13.519  1.00  0.00     0.049 A 
HETATM    9  C   UNL     1     -41.057 -54.252  14.051  1.00  0.00     0.007 A 
HETATM   10  C   UNL     1     -40.075 -53.358  13.638  1.00  0.00     0.042 A 
HETATM   11  C   UNL     1     -40.395 -52.359  12.723  1.00  0.00     0.083 A 
HETATM   12  N   UNL     1     -41.638 -52.275  12.192  1.00  0.00    -0.333 N 
ATOM     13  HN  UNL     1     -41.857 -51.551  11.508  1.00  0.00     0.168 HD
BRANCH  11  14
HETATM   14  N   UNL     1     -39.405 -51.408  12.393  1.00  0.00    -0.278 NA
HETATM   15  C   UNL     1     -38.415 -51.228  13.449  1.00  0.00     0.118 C 
HETATM   16  C   UNL     1     -39.990 -50.174  11.870  1.00  0.00     0.118 C 
ENDBRANCH  11  14
ENDBRANCH   1   7
BRANCH   4  17
HETATM   17  C   UNL     1     -46.067 -51.753  14.686  1.00  0.00     0.089 C 
HETATM   18  C   UNL     1     -45.619 -50.857  15.845  1.00  0.00     0.055 C 
HETATM   19  C   UNL     1     -44.915 -51.651  16.948  1.00  0.00     0.274 C 
HETATM   20  N   UNL     1     -45.672 -52.810  17.444  1.00  0.00     0.084 N 
HETATM   21  C   UNL     1     -46.797 -52.430  18.293  1.00  0.00     0.309 C 
HETATM   22  C   UNL     1     -46.085 -53.673  16.337  1.00  0.00     0.274 C 
HETATM   23  C   UNL     1     -46.862 -52.941  15.234  1.00  0.00     0.055 C 
ENDBRANCH   4  17
TORSDOF 3
ENDMDL
MODEL 5
REMARK VINA RESULT:      -5.5      1.247      1.532
REMARK  3 active torsions:
REMARK  status: ('A' for Active; 'I' for Inactive)
REMARK    1  A    between atoms: N_2  and  C_4 
REMARK    2  A    between atoms: C_8  and  N_9 
REMARK       I    between atoms: N_9  and  C_10 
REMARK       I    between atoms: C_10  and  N_12 
REMARK    3  A    between atoms: N_12  and  C_13 
ROOT
HETATM    1  N   UNL     1     -40.952 -50.630  12.036  1.00  0.00    -0.295 N 
HETATM    2  C   UNL     1     -41.458 -51.892  12.145  1.00  0.00     0.322 C 
HETATM    3  O   UNL     1     -40.701 -52.860  12.075  1.00  0.00    -0.247 OA
HETATM    4  N   UNL     1     -42.798 -51.996  12.309  1.00  0.00    -0.338 N 
HETATM    5  H   UNL     1     -39.957 -50.620  11.857  1.00  0.00     0.172 HD
HETATM    6  H   UNL     1     -43.287 -51.103  12.309  1.00  0.00     0.164 HD
ENDROOT
BRANCH   1   7
HETATM    7  C   UNL     1     -41.616 -49.398  12.149  1.00  0.00     0.110 A 
HETATM    8  C   UNL     1     -41.757 -48.857  13.417  1.00  0.00     0.049 A 
HETATM    9  C   UNL     1     -42.379 -47.620  13.546  1.00  0.00     0.007 A 
HETATM   10  C   UNL     1     -42.852 -46.975  12.408  1.00  0.00     0.042 A 
HETATM   11  C   UNL     1     -42.721 -47.588  11.166  1.00  0.00     0.083 A 
HETATM   12  N   UNL     1     -42.097 -48.783  11.042  1.00  0.00    -0.333 N 
ATOM     13  HN  UNL     1     -41.989 -49.215  10.125  1.00  0.00     0.168 HD
BRANCH  11  14
HETATM   14  N   UNL     1     -43.293 -46.955  10.041  1.00  0.00    -0.278 NA
HETATM   15  C   UNL     1     -43.319 -47.810   8.859  1.00  0.00     0.118 C 
HETATM   16  C   UNL     1     -42.741 -45.618   9.830  1.00  0.00     0.118 C 
ENDBRANCH  11  14
ENDBRANCH   1   7
BRANCH   4  17
HETATM   17  C   UNL     1     -43.545 -53.236  12.463  1.00  0.00     0.089 C 
HETATM   18  C   UNL     1     -45.057 -53.038  12.323  1.00  0.00     0.055 C 
HETATM   19  C   UNL     1     -45.658 -52.320  13.534  1.00  0.00     0.274 C 
HETATM   20  N   UNL     1     -45.327 -52.930  14.831  1.00  0.00     0.084 N 
HETATM   21  C   UNL     1     -46.055 -54.171  15.075  1.00  0.00     0.309 C 
HETATM   22  C   UNL     1     -43.880 -53.104  14.969  1.00  0.00     0.274 C 
HETATM   23  C   UNL     1     -43.235 -53.883  13.815  1.00  0.00     0.055 C 
ENDBRANCH   4  17
TORSDOF 3
ENDMDL
MODEL 6
REMARK VINA RESULT:      -5.4      2.664      3.569
REMARK  3 active torsions:
REMARK  status: ('A' for Active; 'I' for Inactive)
REMARK    1  A    between atoms: N_2  and  C_4 
REMARK    2  A    between atoms: C_8  and  N_9 
REMARK       I    between atoms: N_9  and  C_10 
REMARK       I    between atoms: C_10  and  N_12 
REMARK    3  A    between atoms: N_12  and  C_13 
ROOT
HETATM    1  N   UNL     1     -37.836 -49.641  12.308  1.00  0.00    -0.295 N 
HETATM    2  C   UNL     1     -38.069 -50.942  12.647  1.00  0.00     0.322 C 
HETATM    3  O   UNL     1     -37.167 -51.772  12.531  1.00  0.00    -0.247 OA
HETATM    4  N   UNL     1     -39.316 -51.242  13.081  1.00  0.00    -0.338 N 
HETATM    5  H   UNL     1     -36.909 -49.492  11.937  1.00  0.00     0.172 HD
HETATM    6  H   UNL     1     -39.956 -50.451  13.084  1.00  0.00     0.164 HD
ENDROOT
BRANCH   1   7
HETATM    7  C   UNL     1     -38.690 -48.532  12.420  1.00  0.00     0.110 A 
HETATM    8  C   UNL     1     -38.646 -47.802  13.598  1.00  0.00     0.049 A 
HETATM    9  C   UNL     1     -39.458 -46.679  13.713  1.00  0.00     0.007 A 
HETATM   10  C   UNL     1     -40.294 -46.333  12.658  1.00  0.00     0.042 A 
HETATM   11  C   UNL     1     -40.328 -47.130  11.518  1.00  0.00     0.083 A 
HETATM   12  N   UNL     1     -39.522 -48.211  11.401  1.00  0.00    -0.333 N 
ATOM     13  HN  UNL     1     -39.541 -48.778  10.553  1.00  0.00     0.168 HD
BRANCH  11  14
HETATM   14  N   UNL     1     -41.255 -46.810  10.502  1.00  0.00    -0.278 NA
HETATM   15  C   UNL     1     -41.935 -45.540  10.731  1.00  0.00     0.118 C 
HETATM   16  C   UNL     1     -42.131 -47.938  10.189  1.00  0.00     0.118 C 
ENDBRANCH  11  14
ENDBRANCH   1   7
BRANCH   4  17
HETATM   17  C   UNL     1     -39.778 -52.555  13.508  1.00  0.00     0.089 C 
HETATM   18  C   UNL     1     -40.773 -53.181  12.526  1.00  0.00     0.055 C 
HETATM   19  C   UNL     1     -42.138 -52.491  12.573  1.00  0.00     0.274 C 
HETATM   20  N   UNL     1     -42.724 -52.387  13.918  1.00  0.00     0.084 N 
HETATM   21  C   UNL     1     -43.236 -53.662  14.412  1.00  0.00     0.309 C 
HETATM   22  C   UNL     1     -41.777 -51.775  14.851  1.00  0.00     0.274 C 
HETATM   23  C   UNL     1     -40.411 -52.473  14.899  1.00  0.00     0.055 C 
ENDBRANCH   4  17
TORSDOF 3
ENDMDL
MODEL 7
REMARK VINA RESULT:      -5.1      2.829      4.684
REMARK  3 active torsions:
REMARK  status: ('A' for Active; 'I' for Inactive)
REMARK    1  A    between atoms: N_2  and  C_4 
REMARK    2  A    between atoms: C_8  and  N_9 
REMARK       I    between atoms: N_9  and  C_10 
REMARK       I    between atoms: C_10  and  N_12 
REMARK    3  A    between atoms: N_12  and  C_13 
ROOT
HETATM    1  N   UNL     1     -42.296 -50.135  11.846  1.00  0.00    -0.295 N 
HETATM    2  C   UNL     1     -41.309 -50.948  12.320  1.00  0.00     0.322 C 
HETATM    3  O   UNL     1     -41.555 -52.131  12.555  1.00  0.00    -0.247 OA
HETATM    4  N   UNL     1     -40.098 -50.377  12.523  1.00  0.00    -0.338 N 
HETATM    5  H   UNL     1     -43.188 -50.603  11.772  1.00  0.00     0.172 HD
HETATM    6  H   UNL     1     -40.069 -49.381  12.315  1.00  0.00     0.164 HD
ENDROOT
BRANCH   1   7
HETATM    7  C   UNL     1     -42.221 -48.788  11.455  1.00  0.00     0.110 A 
HETATM    8  C   UNL     1     -41.621 -47.896  12.329  1.00  0.00     0.049 A 
HETATM    9  C   UNL     1     -41.505 -46.566  11.944  1.00  0.00     0.007 A 
HETATM   10  C   UNL     1     -42.003 -46.169  10.708  1.00  0.00     0.042 A 
HETATM   11  C   UNL     1     -42.635 -47.101   9.891  1.00  0.00     0.083 A 
HETATM   12  N   UNL     1     -42.729 -48.400  10.261  1.00  0.00    -0.333 N 
ATOM     13  HN  UNL     1     -43.178 -49.079   9.646  1.00  0.00     0.168 HD
BRANCH  11  14
HETATM   14  N   UNL     1     -43.216 -46.653   8.684  1.00  0.00    -0.278 NA
HETATM   15  C   UNL     1     -44.347 -45.756   8.895  1.00  0.00     0.118 C 
HETATM   16  C   UNL     1     -43.460 -47.756   7.755  1.00  0.00     0.118 C 
ENDBRANCH  11  14
ENDBRANCH   1   7
BRANCH   4  17
HETATM   17  C   UNL     1     -38.905 -51.057  13.006  1.00  0.00     0.089 C 
HETATM   18  C   UNL     1     -39.005 -51.452  14.482  1.00  0.00     0.055 C 
HETATM   19  C   UNL     1     -38.904 -50.241  15.411  1.00  0.00     0.274 C 
HETATM   20  N   UNL     1     -37.730 -49.386  15.176  1.00  0.00     0.084 N 
HETATM   21  C   UNL     1     -36.489 -49.987  15.655  1.00  0.00     0.309 C 
HETATM   22  C   UNL     1     -37.645 -48.997  13.767  1.00  0.00     0.274 C 
HETATM   23  C   UNL     1     -37.667 -50.181  12.792  1.00  0.00     0.055 C 
ENDBRANCH   4  17
TORSDOF 3
ENDMDL
MODEL 8
REMARK VINA RESULT:      -5.1      4.544      7.616
REMARK  3 active torsions:
REMARK  status: ('A' for Active; 'I' for Inactive)
REMARK    1  A    between atoms: N_2  and  C_4 
REMARK    2  A    between atoms: C_8  and  N_9 
REMARK       I    between atoms: N_9  and  C_10 
REMARK       I    between atoms: C_10  and  N_12 
REMARK    3  A    between atoms: N_12  and  C_13 
ROOT
HETATM    1  N   UNL     1     -46.009 -53.825  14.054  1.00  0.00    -0.295 N 
HETATM    2  C   UNL     1     -44.837 -53.802  13.357  1.00  0.00     0.322 C 
HETATM    3  O   UNL     1     -44.747 -54.419  12.295  1.00  0.00    -0.247 OA
HETATM    4  N   UNL     1     -43.818 -53.098  13.906  1.00  0.00    -0.338 N 
HETATM    5  H   UNL     1     -46.709 -54.412  13.624  1.00  0.00     0.172 HD
HETATM    6  H   UNL     1     -44.042 -52.677  14.805  1.00  0.00     0.164 HD
ENDROOT
BRANCH   1   7
HETATM    7  C   UNL     1     -46.348 -53.150  15.238  1.00  0.00     0.110 A 
HETATM    8  C   UNL     1     -47.024 -51.945  15.121  1.00  0.00     0.049 A 
HETATM    9  C   UNL     1     -47.400 -51.280  16.283  1.00  0.00     0.007 A 
HETATM   10  C   UNL     1     -47.075 -51.831  17.518  1.00  0.00     0.042 A 
HETATM   11  C   UNL     1     -46.355 -53.021  17.572  1.00  0.00     0.083 A 
HETATM   12  N   UNL     1     -46.009 -53.676  16.439  1.00  0.00    -0.333 N 
ATOM     13  HN  UNL     1     -45.498 -54.558  16.490  1.00  0.00     0.168 HD
BRANCH  11  14
HETATM   14  N   UNL     1     -45.957 -53.509  18.835  1.00  0.00    -0.278 NA
HETATM   15  C   UNL     1     -46.394 -54.879  19.080  1.00  0.00     0.118 C 
HETATM   16  C   UNL     1     -46.260 -52.559  19.905  1.00  0.00     0.118 C 
ENDBRANCH  11  14
ENDBRANCH   1   7
BRANCH   4  17
HETATM   17  C   UNL     1     -42.492 -52.927  13.331  1.00  0.00     0.089 C 
HETATM   18  C   UNL     1     -41.596 -54.152  13.533  1.00  0.00     0.055 C 
HETATM   19  C   UNL     1     -41.139 -54.298  14.986  1.00  0.00     0.274 C 
HETATM   20  N   UNL     1     -40.515 -53.093  15.553  1.00  0.00     0.084 N 
HETATM   21  C   UNL     1     -39.167 -52.861  15.044  1.00  0.00     0.309 C 
HETATM   22  C   UNL     1     -41.380 -51.926  15.373  1.00  0.00     0.274 C 
HETATM   23  C   UNL     1     -41.810 -51.689  13.919  1.00  0.00     0.055 C 
ENDBRANCH   4  17
TORSDOF 3
ENDMDL
MODEL 9
REMARK VINA RESULT:      -4.9      2.069      2.746
REMARK  3 active torsions:
REMARK  status: ('A' for Active; 'I' for Inactive)
REMARK    1  A    between atoms: N_2  and  C_4 
REMARK    2  A    between atoms: C_8  and  N_9 
REMARK       I    between atoms: N_9  and  C_10 
REMARK       I    between atoms: C_10  and  N_12 
REMARK    3  A    between atoms: N_12  and  C_13 
ROOT
HETATM    1  N   UNL     1     -42.618 -48.453  14.217  1.00  0.00    -0.295 N 
HETATM    2  C   UNL     1     -43.404 -49.324  14.911  1.00  0.00     0.322 C 
HETATM    3  O   UNL     1     -43.499 -49.217  16.135  1.00  0.00    -0.247 OA
HETATM    4  N   UNL     1     -44.029 -50.286  14.191  1.00  0.00    -0.338 N 
HETATM    5  H   UNL     1     -42.134 -47.798  14.815  1.00  0.00     0.172 HD
HETATM    6  H   UNL     1     -43.817 -50.262  13.196  1.00  0.00     0.164 HD
ENDROOT
BRANCH   1   7
HETATM    7  C   UNL     1     -42.419 -48.355  12.830  1.00  0.00     0.110 A 
HETATM    8  C   UNL     1     -41.282 -48.944  12.299  1.00  0.00     0.049 A 
HETATM    9  C   UNL     1     -41.086 -48.888  10.924  1.00  0.00     0.007 A 
HETATM   10  C   UNL     1     -42.022 -48.236  10.129  1.00  0.00     0.042 A 
HETATM   11  C   UNL     1     -43.122 -47.624  10.724  1.00  0.00     0.083 A 
HETATM   12  N   UNL     1     -43.320 -47.697  12.061  1.00  0.00    -0.333 N 
ATOM     13  HN  UNL     1     -44.139 -47.262  12.485  1.00  0.00     0.168 HD
BRANCH  11  14
HETATM   14  N   UNL     1     -44.005 -46.888   9.905  1.00  0.00    -0.278 NA
HETATM   15  C   UNL     1     -45.244 -47.604   9.617  1.00  0.00     0.118 C 
HETATM   16  C   UNL     1     -43.326 -46.326   8.739  1.00  0.00     0.118 C 
ENDBRANCH  11  14
ENDBRANCH   1   7
BRANCH   4  17
HETATM   17  C   UNL     1     -44.922 -51.305  14.722  1.00  0.00     0.089 C 
HETATM   18  C   UNL     1     -44.171 -52.493  15.332  1.00  0.00     0.055 C 
HETATM   19  C   UNL     1     -43.518 -53.371  14.263  1.00  0.00     0.274 C 
HETATM   20  N   UNL     1     -44.430 -53.819  13.200  1.00  0.00     0.084 N 
HETATM   21  C   UNL     1     -45.349 -54.863  13.645  1.00  0.00     0.309 C 
HETATM   22  C   UNL     1     -45.135 -52.681  12.607  1.00  0.00     0.274 C 
HETATM   23  C   UNL     1     -45.872 -51.805  13.630  1.00  0.00     0.055 C 
ENDBRANCH   4  17
TORSDOF 3
ENDMDL
