MODEL 1
REMARK VINA RESULT:      -6.0      0.000      0.000
REMARK  2 active torsions:
REMARK  status: ('A' for Active; 'I' for Inactive)
REMARK    1  A    between atoms: N_1  and  C_2 
REMARK    2  A    between atoms: C_9  and  C_10 
REMARK       I    between atoms: C_10  and  N_12 
ROOT
HETATM    1  C   UNL     1     -44.120 -48.052   7.767  1.00  0.00     0.110 A 
HETATM    2  N   UNL     1     -45.232 -48.639   7.262  1.00  0.00    -0.354 N 
ATOM      3  HN  UNL     1     -45.223 -49.120   6.363  1.00  0.00     0.166 HD
HETATM    4  C   UNL     1     -46.353 -48.554   8.011  1.00  0.00     0.106 A 
HETATM    5  C   UNL     1     -46.379 -47.920   9.236  1.00  0.00     0.105 A 
HETATM    6  N   UNL     1     -45.292 -47.320   9.757  1.00  0.00    -0.357 N 
ATOM      7  HN  UNL     1     -45.315 -46.854  10.664  1.00  0.00     0.165 HD
HETATM    8  C   UNL     1     -44.154 -47.369   9.000  1.00  0.00     0.141 A 
ENDROOT
BRANCH   8   9
HETATM    9  C   UNL     1     -42.924 -46.662   9.516  1.00  0.00     0.297 C 
HETATM   10  O   UNL     1     -42.593 -45.572   9.039  1.00  0.00    -0.264 OA
HETATM   11  N   UNL     1     -42.134 -47.298  10.474  1.00  0.00    -0.221 N 
HETATM   12  C   UNL     1     -40.960 -46.652  11.038  1.00  0.00     0.160 C 
HETATM   13  O   UNL     1     -42.852 -47.927  11.531  1.00  0.00    -0.275 OA
HETATM   14  C   UNL     1     -40.031 -47.733  11.587  1.00  0.00     0.024 C 
HETATM   15  C   UNL     1     -40.790 -48.674  12.528  1.00  0.00     0.030 C 
HETATM   16  C   UNL     1     -42.122 -49.098  11.913  1.00  0.00     0.201 C 
ENDBRANCH   8   9
BRANCH   1  17
HETATM   17  N   UNL     1     -42.965 -48.318   7.040  1.00  0.00    -0.287 NA
HETATM   18  H   UNL     1     -42.241 -48.680   7.649  1.00  0.00     0.125 HD
HETATM   19  H   UNL     1     -43.140 -48.853   6.190  1.00  0.00     0.125 HD
ENDBRANCH   1  17
TORSDOF 2
ENDMDL
MODEL 2
REMARK VINA RESULT:      -5.5      6.697      8.207
REMARK  2 active torsions:
REMARK  status: ('A' for Active; 'I' for Inactive)
REMARK    1  A    between atoms: N_1  and  C_2 
REMARK    2  A    between atoms: C_9  and  C_10 
REMARK       I    between atoms: C_10  and  N_12 
ROOT
HETATM    1  C   UNL     1     -41.734 -53.394  12.606  1.00  0.00     0.110 A 
HETATM    2  N   UNL     1     -40.401 -53.542  12.803  1.00  0.00    -0.354 N 
ATOM      3  HN  UNL     1     -39.718 -53.221  12.117  1.00  0.00     0.166 HD
HETATM    4  C   UNL     1     -40.023 -54.138  13.955  1.00  0.00     0.106 A 
HETATM    5  C   UNL     1     -40.933 -54.565  14.901  1.00  0.00     0.105 A 
HETATM    6  N   UNL     1     -42.262 -54.439  14.727  1.00  0.00    -0.357 N 
ATOM      7  HN  UNL     1     -42.931 -54.754  15.430  1.00  0.00     0.165 HD
HETATM    8  C   UNL     1     -42.666 -53.864  13.553  1.00  0.00     0.141 A 
ENDROOT
BRANCH   8   9
HETATM    9  C   UNL     1     -44.148 -53.753  13.287  1.00  0.00     0.297 C 
HETATM   10  O   UNL     1     -44.655 -54.374  12.348  1.00  0.00    -0.264 OA
HETATM   11  N   UNL     1     -44.907 -52.880  14.066  1.00  0.00    -0.221 N 
HETATM   12  C   UNL     1     -46.344 -52.757  13.885  1.00  0.00     0.160 C 
HETATM   13  O   UNL     1     -44.632 -52.919  15.463  1.00  0.00    -0.275 OA
HETATM   14  C   UNL     1     -46.787 -51.403  14.435  1.00  0.00     0.024 C 
HETATM   15  C   UNL     1     -46.278 -51.205  15.865  1.00  0.00     0.030 C 
HETATM   16  C   UNL     1     -44.804 -51.593  15.975  1.00  0.00     0.201 C 
ENDBRANCH   8   9
BRANCH   1  17
HETATM   17  N   UNL     1     -42.054 -52.625  11.493  1.00  0.00    -0.287 NA
HETATM   18  H   UNL     1     -41.474 -52.889  10.704  1.00  0.00     0.125 HD
HETATM   19  H   UNL     1     -43.055 -52.577  11.312  1.00  0.00     0.125 HD
ENDBRANCH   1  17
TORSDOF 2
ENDMDL
MODEL 3
REMARK VINA RESULT:      -5.4      1.516      2.141
REMARK  2 active torsions:
REMARK  status: ('A' for Active; 'I' for Inactive)
REMARK    1  A    between atoms: N_1  and  C_2 
REMARK    2  A    between atoms: C_9  and  C_10 
REMARK       I    between atoms: C_10  and  N_12 
ROOT
HETATM    1  C   UNL     1     -44.128 -45.370   9.434  1.00  0.00     0.110 A 
HETATM    2  N   UNL     1     -45.385 -45.552   8.961  1.00  0.00    -0.354 N 
ATOM      3  HN  UNL     1     -46.036 -44.775   8.855  1.00  0.00     0.166 HD
HETATM    4  C   UNL     1     -45.731 -46.817   8.636  1.00  0.00     0.106 A 
HETATM    5  C   UNL     1     -44.858 -47.879   8.759  1.00  0.00     0.105 A 
HETATM    6  N   UNL     1     -43.607 -47.728   9.236  1.00  0.00    -0.357 N 
ATOM      7  HN  UNL     1     -42.965 -48.516   9.322  1.00  0.00     0.165 HD
HETATM    8  C   UNL     1     -43.247 -46.460   9.597  1.00  0.00     0.141 A 
ENDROOT
BRANCH   8   9
HETATM    9  C   UNL     1     -41.875 -46.250  10.191  1.00  0.00     0.297 C 
HETATM   10  O   UNL     1     -41.252 -45.211   9.954  1.00  0.00    -0.264 OA
HETATM   11  N   UNL     1     -41.301 -47.280  10.936  1.00  0.00    -0.221 N 
HETATM   12  C   UNL     1     -39.999 -47.125  11.565  1.00  0.00     0.160 C 
HETATM   13  O   UNL     1     -42.174 -47.918  11.862  1.00  0.00    -0.275 OA
HETATM   14  C   UNL     1     -39.410 -48.514  11.805  1.00  0.00     0.024 C 
HETATM   15  C   UNL     1     -40.407 -49.405  12.551  1.00  0.00     0.030 C 
HETATM   16  C   UNL     1     -41.799 -49.299  11.930  1.00  0.00     0.201 C 
ENDBRANCH   8   9
BRANCH   1  17
HETATM   17  N   UNL     1     -43.774 -44.035   9.587  1.00  0.00    -0.287 NA
HETATM   18  H   UNL     1     -43.906 -43.534   8.716  1.00  0.00     0.125 HD
HETATM   19  H   UNL     1     -44.181 -43.603  10.415  1.00  0.00     0.125 HD
ENDBRANCH   1  17
TORSDOF 2
ENDMDL
MODEL 4
REMARK VINA RESULT:      -5.3      4.959      6.982
REMARK  2 active torsions:
REMARK  status: ('A' for Active; 'I' for Inactive)
REMARK    1  A    between atoms: N_1  and  C_2 
REMARK    2  A    between atoms: C_9  and  C_10 
REMARK       I    between atoms: C_10  and  N_12 
ROOT
HETATM    1  C   UNL     1     -41.173 -52.470  12.157  1.00  0.00     0.110 A 
HETATM    2  N   UNL     1     -40.143 -51.648  11.841  1.00  0.00    -0.354 N 
ATOM      3  HN  UNL     1     -39.205 -52.008  11.664  1.00  0.00     0.166 HD
HETATM    4  C   UNL     1     -40.422 -50.328  11.773  1.00  0.00     0.106 A 
HETATM    5  C   UNL     1     -41.687 -49.826  11.996  1.00  0.00     0.105 A 
HETATM    6  N   UNL     1     -42.727 -50.618  12.320  1.00  0.00    -0.357 N 
ATOM      7  HN  UNL     1     -43.662 -50.243  12.481  1.00  0.00     0.165 HD
HETATM    8  C   UNL     1     -42.459 -51.955  12.423  1.00  0.00     0.141 A 
ENDROOT
BRANCH   8   9
HETATM    9  C   UNL     1     -43.580 -52.877  12.840  1.00  0.00     0.297 C 
HETATM   10  O   UNL     1     -43.693 -53.988  12.315  1.00  0.00    -0.264 OA
HETATM   11  N   UNL     1     -44.520 -52.417  13.762  1.00  0.00    -0.221 N 
HETATM   12  C   UNL     1     -45.599 -53.270  14.233  1.00  0.00     0.160 C 
HETATM   13  O   UNL     1     -43.982 -51.716  14.878  1.00  0.00    -0.275 OA
HETATM   14  C   UNL     1     -46.728 -52.380  14.750  1.00  0.00     0.024 C 
HETATM   15  C   UNL     1     -46.195 -51.361  15.762  1.00  0.00     0.030 C 
HETATM   16  C   UNL     1     -44.920 -50.698  15.244  1.00  0.00     0.201 C 
ENDBRANCH   8   9
BRANCH   1  17
HETATM   17  N   UNL     1     -40.868 -53.821  12.043  1.00  0.00    -0.287 NA
HETATM   18  H   UNL     1     -40.508 -54.024  11.118  1.00  0.00     0.125 HD
HETATM   19  H   UNL     1     -40.316 -54.176  12.823  1.00  0.00     0.125 HD
ENDBRANCH   1  17
TORSDOF 2
ENDMDL
MODEL 5
REMARK VINA RESULT:      -5.2      2.527      3.959
REMARK  2 active torsions:
REMARK  status: ('A' for Active; 'I' for Inactive)
REMARK    1  A    between atoms: N_1  and  C_2 
REMARK    2  A    between atoms: C_9  and  C_10 
REMARK       I    between atoms: C_10  and  N_12 
ROOT
HETATM    1  C   UNL     1     -43.086 -47.643  10.925  1.00  0.00     0.110 A 
HETATM    2  N   UNL     1     -44.241 -48.009  10.316  1.00  0.00    -0.354 N 
ATOM      3  HN  UNL     1     -44.868 -48.701  10.726  1.00  0.00     0.166 HD
HETATM    4  C   UNL     1     -44.519 -47.408   9.138  1.00  0.00     0.106 A 
HETATM    5  C   UNL     1     -43.690 -46.459   8.577  1.00  0.00     0.105 A 
HETATM    6  N   UNL     1     -42.532 -46.085   9.155  1.00  0.00    -0.357 N 
ATOM      7  HN  UNL     1     -41.924 -45.381   8.737  1.00  0.00     0.165 HD
HETATM    8  C   UNL     1     -42.219 -46.702  10.334  1.00  0.00     0.141 A 
ENDROOT
BRANCH   8   9
HETATM    9  C   UNL     1     -40.904 -46.358  10.991  1.00  0.00     0.297 C 
HETATM   10  O   UNL     1     -40.072 -47.243  11.209  1.00  0.00    -0.264 OA
HETATM   11  N   UNL     1     -40.688 -45.047  11.415  1.00  0.00    -0.221 N 
HETATM   12  C   UNL     1     -39.428 -44.643  12.018  1.00  0.00     0.160 C 
HETATM   13  O   UNL     1     -41.087 -44.038  10.493  1.00  0.00    -0.275 OA
HETATM   14  C   UNL     1     -39.672 -43.388  12.854  1.00  0.00     0.024 C 
HETATM   15  C   UNL     1     -40.386 -42.316  12.027  1.00  0.00     0.030 C 
HETATM   16  C   UNL     1     -41.558 -42.919  11.253  1.00  0.00     0.201 C 
ENDBRANCH   8   9
BRANCH   1  17
HETATM   17  N   UNL     1     -42.940 -48.162  12.206  1.00  0.00    -0.287 NA
HETATM   18  H   UNL     1     -43.836 -48.194  12.678  1.00  0.00     0.125 HD
HETATM   19  H   UNL     1     -42.392 -49.021  12.232  1.00  0.00     0.125 HD
ENDBRANCH   1  17
TORSDOF 2
ENDMDL
MODEL 6
REMARK VINA RESULT:      -5.2      2.453      3.386
REMARK  2 active torsions:
REMARK  status: ('A' for Active; 'I' for Inactive)
REMARK    1  A    between atoms: N_1  and  C_2 
REMARK    2  A    between atoms: C_9  and  C_10 
REMARK       I    between atoms: C_10  and  N_12 
ROOT
HETATM    1  C   UNL     1     -43.470 -45.211   9.800  1.00  0.00     0.110 A 
HETATM    2  N   UNL     1     -44.359 -46.047   9.210  1.00  0.00    -0.354 N 
ATOM      3  HN  UNL     1     -45.273 -45.723   8.897  1.00  0.00     0.166 HD
HETATM    4  C   UNL     1     -43.970 -47.332   9.057  1.00  0.00     0.106 A 
HETATM    5  C   UNL     1     -42.730 -47.783   9.462  1.00  0.00     0.105 A 
HETATM    6  N   UNL     1     -41.832 -46.977  10.060  1.00  0.00    -0.357 N 
ATOM      7  HN  UNL     1     -40.916 -47.315  10.354  1.00  0.00     0.165 HD
HETATM    8  C   UNL     1     -42.218 -45.679  10.249  1.00  0.00     0.141 A 
ENDROOT
BRANCH   8   9
HETATM    9  C   UNL     1     -41.268 -44.751  10.967  1.00  0.00     0.297 C 
HETATM   10  O   UNL     1     -41.020 -43.637  10.496  1.00  0.00    -0.264 OA
HETATM   11  N   UNL     1     -40.623 -45.207  12.116  1.00  0.00    -0.221 N 
HETATM   12  C   UNL     1     -39.727 -44.348  12.873  1.00  0.00     0.160 C 
HETATM   13  O   UNL     1     -41.449 -45.915  13.035  1.00  0.00    -0.275 OA
HETATM   14  C   UNL     1     -38.783 -45.231  13.687  1.00  0.00     0.024 C 
HETATM   15  C   UNL     1     -39.571 -46.257  14.507  1.00  0.00     0.030 C 
HETATM   16  C   UNL     1     -40.644 -46.928  13.649  1.00  0.00     0.201 C 
ENDBRANCH   8   9
BRANCH   1  17
HETATM   17  N   UNL     1     -43.854 -43.875   9.774  1.00  0.00    -0.287 NA
HETATM   18  H   UNL     1     -43.363 -43.382   9.037  1.00  0.00     0.125 HD
HETATM   19  H   UNL     1     -44.865 -43.747   9.799  1.00  0.00     0.125 HD
ENDBRANCH   1  17
TORSDOF 2
ENDMDL
MODEL 7
REMARK VINA RESULT:      -5.2      4.091      6.202
REMARK  2 active torsions:
REMARK  status: ('A' for Active; 'I' for Inactive)
REMARK    1  A    between atoms: N_1  and  C_2 
REMARK    2  A    between atoms: C_9  and  C_10 
REMARK       I    between atoms: C_10  and  N_12 
ROOT
HETATM    1  C   UNL     1     -39.616 -50.188  11.810  1.00  0.00     0.110 A 
HETATM    2  N   UNL     1     -39.231 -48.908  11.581  1.00  0.00    -0.354 N 
ATOM      3  HN  UNL     1     -38.255 -48.622  11.643  1.00  0.00     0.166 HD
HETATM    4  C   UNL     1     -40.210 -48.031  11.265  1.00  0.00     0.106 A 
HETATM    5  C   UNL     1     -41.534 -48.405  11.162  1.00  0.00     0.105 A 
HETATM    6  N   UNL     1     -41.945 -49.666  11.394  1.00  0.00    -0.357 N 
ATOM      7  HN  UNL     1     -42.924 -49.938  11.314  1.00  0.00     0.165 HD
HETATM    8  C   UNL     1     -40.973 -50.563  11.744  1.00  0.00     0.141 A 
ENDROOT
BRANCH   8   9
HETATM    9  C   UNL     1     -41.392 -51.976  12.070  1.00  0.00     0.297 C 
HETATM   10  O   UNL     1     -40.626 -52.916  11.839  1.00  0.00    -0.264 OA
HETATM   11  N   UNL     1     -42.680 -52.200  12.555  1.00  0.00    -0.221 N 
HETATM   12  C   UNL     1     -43.130 -53.533  12.924  1.00  0.00     0.160 C 
HETATM   13  O   UNL     1     -43.119 -51.286  13.554  1.00  0.00    -0.275 OA
HETATM   14  C   UNL     1     -44.656 -53.560  12.872  1.00  0.00     0.024 C 
HETATM   15  C   UNL     1     -45.248 -52.408  13.690  1.00  0.00     0.030 C 
HETATM   16  C   UNL     1     -44.528 -51.096  13.379  1.00  0.00     0.201 C 
ENDBRANCH   8   9
BRANCH   1  17
HETATM   17  N   UNL     1     -38.555 -51.073  11.960  1.00  0.00    -0.287 NA
HETATM   18  H   UNL     1     -38.192 -51.345  11.053  1.00  0.00     0.125 HD
HETATM   19  H   UNL     1     -37.863 -50.761  12.640  1.00  0.00     0.125 HD
ENDBRANCH   1  17
TORSDOF 2
ENDMDL
MODEL 8
REMARK VINA RESULT:      -5.1      6.622      8.044
REMARK  2 active torsions:
REMARK  status: ('A' for Active; 'I' for Inactive)
REMARK    1  A    between atoms: N_1  and  C_2 
REMARK    2  A    between atoms: C_9  and  C_10 
REMARK       I    between atoms: C_10  and  N_12 
ROOT
HETATM    1  C   UNL     1     -45.852 -53.825  13.982  1.00  0.00     0.110 A 
HETATM    2  N   UNL     1     -46.667 -53.087  13.188  1.00  0.00    -0.354 N 
ATOM      3  HN  UNL     1     -47.558 -53.449  12.850  1.00  0.00     0.166 HD
HETATM    4  C   UNL     1     -46.236 -51.848  12.867  1.00  0.00     0.106 A 
HETATM    5  C   UNL     1     -45.040 -51.337  13.327  1.00  0.00     0.105 A 
HETATM    6  N   UNL     1     -44.207 -52.051  14.109  1.00  0.00    -0.357 N 
ATOM      7  HN  UNL     1     -43.325 -51.668  14.449  1.00  0.00     0.165 HD
HETATM    8  C   UNL     1     -44.612 -53.320  14.422  1.00  0.00     0.141 A 
ENDROOT
BRANCH   8   9
HETATM    9  C   UNL     1     -43.686 -54.179  15.248  1.00  0.00     0.297 C 
HETATM   10  O   UNL     1     -44.114 -54.762  16.249  1.00  0.00    -0.264 OA
HETATM   11  N   UNL     1     -42.335 -54.233  14.906  1.00  0.00    -0.221 N 
HETATM   12  C   UNL     1     -41.401 -55.073  15.639  1.00  0.00     0.160 C 
HETATM   13  O   UNL     1     -42.067 -54.372  13.515  1.00  0.00    -0.275 OA
HETATM   14  C   UNL     1     -39.991 -54.524  15.430  1.00  0.00     0.024 C 
HETATM   15  C   UNL     1     -39.695 -54.345  13.938  1.00  0.00     0.030 C 
HETATM   16  C   UNL     1     -40.861 -53.654  13.233  1.00  0.00     0.201 C 
ENDBRANCH   8   9
BRANCH   1  17
HETATM   17  N   UNL     1     -46.422 -55.017  14.417  1.00  0.00    -0.287 NA
HETATM   18  H   UNL     1     -47.384 -55.081  14.105  1.00  0.00     0.125 HD
HETATM   19  H   UNL     1     -45.839 -55.831  14.233  1.00  0.00     0.125 HD
ENDBRANCH   1  17
TORSDOF 2
ENDMDL
MODEL 9
REMARK VINA RESULT:      -5.1      2.907      4.783
REMARK  2 active torsions:
REMARK  status: ('A' for Active; 'I' for Inactive)
REMARK    1  A    between atoms: N_1  and  C_2 
REMARK    2  A    between atoms: C_9  and  C_10 
REMARK       I    between atoms: C_10  and  N_12 
ROOT
HETATM    1  C   UNL     1     -41.597 -48.201  10.413  1.00  0.00     0.110 A 
HETATM    2  N   UNL     1     -41.186 -49.465  10.677  1.00  0.00    -0.354 N 
ATOM      3  HN  UNL     1     -41.738 -50.277  10.400  1.00  0.00     0.166 HD
HETATM    4  C   UNL     1     -40.009 -49.595  11.326  1.00  0.00     0.106 A 
HETATM    5  C   UNL     1     -39.242 -48.509  11.694  1.00  0.00     0.105 A 
HETATM    6  N   UNL     1     -39.630 -47.242  11.453  1.00  0.00    -0.357 N 
ATOM      7  HN  UNL     1     -39.058 -46.442  11.725  1.00  0.00     0.165 HD
HETATM    8  C   UNL     1     -40.834 -47.088  10.823  1.00  0.00     0.141 A 
ENDROOT
BRANCH   8   9
HETATM    9  C   UNL     1     -41.338 -45.685  10.582  1.00  0.00     0.297 C 
HETATM   10  O   UNL     1     -42.047 -45.444   9.600  1.00  0.00    -0.264 OA
HETATM   11  N   UNL     1     -40.922 -44.666  11.437  1.00  0.00    -0.221 N 
HETATM   12  C   UNL     1     -41.403 -43.303  11.282  1.00  0.00     0.160 C 
HETATM   13  O   UNL     1     -40.940 -44.992  12.823  1.00  0.00    -0.275 OA
HETATM   14  C   UNL     1     -40.403 -42.358  11.945  1.00  0.00     0.024 C 
HETATM   15  C   UNL     1     -40.110 -42.799  13.382  1.00  0.00     0.030 C 
HETATM   16  C   UNL     1     -39.848 -44.304  13.444  1.00  0.00     0.201 C 
ENDBRANCH   8   9
BRANCH   1  17
HETATM   17  N   UNL     1     -42.721 -48.134   9.598  1.00  0.00    -0.287 NA
HETATM   18  H   UNL     1     -43.546 -47.939  10.152  1.00  0.00     0.125 HD
HETATM   19  H   UNL     1     -42.587 -47.547   8.776  1.00  0.00     0.125 HD
ENDBRANCH   1  17
TORSDOF 2
ENDMDL
