MODEL 1
REMARK VINA RESULT:      -5.9      0.000      0.000
REMARK  6 active torsions:
REMARK  status: ('A' for Active; 'I' for Inactive)
REMARK    1  A    between atoms: C_7  and  O_8 
REMARK    2  A    between atoms: O_8  and  C_9 
REMARK    3  A    between atoms: C_9  and  C_10 
REMARK    4  A    between atoms: C_10  and  N_11 
REMARK       I    between atoms: N_11  and  C_12 
REMARK    5  A    between atoms: C_12  and  C_14 
REMARK    6  A    between atoms: C_14  and  N_15 
ROOT
HETATM    1  N   UNL     1     -42.206 -54.290  13.650  1.00  0.00    -0.358 N 
HETATM    2  C   UNL     1     -43.097 -53.563  12.892  1.00  0.00     0.236 C 
HETATM    3  O   UNL     1     -42.771 -52.603  12.195  1.00  0.00    -0.272 OA
HETATM    4  H   UNL     1     -42.460 -55.253  13.874  1.00  0.00     0.162 HD
ENDROOT
BRANCH   1   5
HETATM    5  C   UNL     1     -40.787 -53.992  13.616  1.00  0.00     0.148 C 
BRANCH   5   6
HETATM    6  C   UNL     1     -40.351 -53.152  14.814  1.00  0.00     0.187 C 
BRANCH   6   7
HETATM    7  O   UNL     1     -40.379 -51.761  14.469  1.00  0.00    -0.384 OA
BRANCH   7   8
HETATM    8  C   UNL     1     -39.615 -51.449  13.296  1.00  0.00     0.125 C 
HETATM    9  C   UNL     1     -38.101 -51.323  13.584  1.00  0.00     0.010 C 
HETATM   10  C   UNL     1     -37.802 -50.389  14.764  1.00  0.00     0.012 C 
HETATM   11  C   UNL     1     -37.348 -50.895  12.317  1.00  0.00     0.007 C 
HETATM   12  C   UNL     1     -37.902 -49.612  11.705  1.00  0.00     0.001 C 
HETATM   13  C   UNL     1     -39.404 -49.705  11.456  1.00  0.00     0.002 C 
HETATM   14  C   UNL     1     -40.175 -50.151  12.698  1.00  0.00     0.032 C 
ENDBRANCH   7   8
ENDBRANCH   6   7
ENDBRANCH   5   6
ENDBRANCH   1   5
BRANCH   2  15
HETATM   15  C   UNL     1     -44.534 -54.072  12.945  1.00  0.00     0.235 C 
BRANCH  15  16
HETATM   16  N   UNL     1     -45.319 -53.289  13.896  1.00  0.00    -0.301 N 
HETATM   17  C   UNL     1     -46.008 -52.185  13.455  1.00  0.00     0.102 A 
HETATM   18  C   UNL     1     -46.738 -51.440  14.283  1.00  0.00     0.092 A 
HETATM   19  C   UNL     1     -46.811 -51.800  15.708  1.00  0.00     0.252 A 
HETATM   20  O   UNL     1     -47.489 -51.101  16.457  1.00  0.00    -0.268 OA
HETATM   21  N   UNL     1     -46.093 -52.919  16.092  1.00  0.00    -0.271 N 
HETATM   22  C   UNL     1     -46.109 -53.309  17.487  1.00  0.00     0.164 C 
HETATM   23  C   UNL     1     -45.369 -53.726  15.218  1.00  0.00     0.331 A 
HETATM   24  O   UNL     1     -44.804 -54.762  15.576  1.00  0.00    -0.246 OA
ENDBRANCH  15  16
ENDBRANCH   2  15
TORSDOF 6
ENDMDL
MODEL 2
REMARK VINA RESULT:      -5.8      2.305      3.068
REMARK  6 active torsions:
REMARK  status: ('A' for Active; 'I' for Inactive)
REMARK    1  A    between atoms: C_7  and  O_8 
REMARK    2  A    between atoms: O_8  and  C_9 
REMARK    3  A    between atoms: C_9  and  C_10 
REMARK    4  A    between atoms: C_10  and  N_11 
REMARK       I    between atoms: N_11  and  C_12 
REMARK    5  A    between atoms: C_12  and  C_14 
REMARK    6  A    between atoms: C_14  and  N_15 
ROOT
HETATM    1  N   UNL     1     -42.475 -52.689  11.790  1.00  0.00    -0.358 N 
HETATM    2  C   UNL     1     -42.824 -53.519  12.834  1.00  0.00     0.236 C 
HETATM    3  O   UNL     1     -42.070 -53.794  13.765  1.00  0.00    -0.272 OA
HETATM    4  H   UNL     1     -43.232 -52.218  11.295  1.00  0.00     0.162 HD
ENDROOT
BRANCH   1   5
HETATM    5  C   UNL     1     -41.184 -52.028  11.769  1.00  0.00     0.148 C 
BRANCH   5   6
HETATM    6  C   UNL     1     -41.279 -50.575  12.227  1.00  0.00     0.187 C 
BRANCH   6   7
HETATM    7  O   UNL     1     -40.478 -49.744  11.378  1.00  0.00    -0.384 OA
BRANCH   7   8
HETATM    8  C   UNL     1     -41.166 -48.576  10.910  1.00  0.00     0.125 C 
HETATM    9  C   UNL     1     -40.367 -47.274  11.147  1.00  0.00     0.010 C 
HETATM   10  C   UNL     1     -39.870 -47.142  12.593  1.00  0.00     0.012 C 
HETATM   11  C   UNL     1     -41.190 -46.053  10.716  1.00  0.00     0.007 C 
HETATM   12  C   UNL     1     -42.555 -45.992  11.394  1.00  0.00     0.001 C 
HETATM   13  C   UNL     1     -43.339 -47.287  11.208  1.00  0.00     0.002 C 
HETATM   14  C   UNL     1     -42.533 -48.522  11.609  1.00  0.00     0.032 C 
ENDBRANCH   7   8
ENDBRANCH   6   7
ENDBRANCH   5   6
ENDBRANCH   1   5
BRANCH   2  15
HETATM   15  C   UNL     1     -44.255 -54.044  12.770  1.00  0.00     0.235 C 
BRANCH  15  16
HETATM   16  N   UNL     1     -45.115 -53.294  13.681  1.00  0.00    -0.301 N 
HETATM   17  C   UNL     1     -45.765 -52.172  13.226  1.00  0.00     0.102 A 
HETATM   18  C   UNL     1     -46.560 -51.455  14.019  1.00  0.00     0.092 A 
HETATM   19  C   UNL     1     -46.751 -51.868  15.418  1.00  0.00     0.252 A 
HETATM   20  O   UNL     1     -47.489 -51.195  16.133  1.00  0.00    -0.268 OA
HETATM   21  N   UNL     1     -46.068 -53.003  15.818  1.00  0.00    -0.271 N 
HETATM   22  C   UNL     1     -46.201 -53.445  17.191  1.00  0.00     0.164 C 
HETATM   23  C   UNL     1     -45.275 -53.779  14.977  1.00  0.00     0.331 A 
HETATM   24  O   UNL     1     -44.743 -54.831  15.341  1.00  0.00    -0.246 OA
ENDBRANCH  15  16
ENDBRANCH   2  15
TORSDOF 6
ENDMDL
MODEL 3
REMARK VINA RESULT:      -5.8      4.435      7.565
REMARK  6 active torsions:
REMARK  status: ('A' for Active; 'I' for Inactive)
REMARK    1  A    between atoms: C_7  and  O_8 
REMARK    2  A    between atoms: O_8  and  C_9 
REMARK    3  A    between atoms: C_9  and  C_10 
REMARK    4  A    between atoms: C_10  and  N_11 
REMARK       I    between atoms: N_11  and  C_12 
REMARK    5  A    between atoms: C_12  and  C_14 
REMARK    6  A    between atoms: C_14  and  N_15 
ROOT
HETATM    1  N   UNL     1     -41.614 -50.997  11.687  1.00  0.00    -0.358 N 
HETATM    2  C   UNL     1     -42.005 -49.691  11.892  1.00  0.00     0.236 C 
HETATM    3  O   UNL     1     -43.005 -49.374  12.533  1.00  0.00    -0.272 OA
HETATM    4  H   UNL     1     -40.625 -51.165  11.500  1.00  0.00     0.162 HD
ENDROOT
BRANCH   1   5
HETATM    5  C   UNL     1     -42.350 -52.094  12.287  1.00  0.00     0.148 C 
BRANCH   5   6
HETATM    6  C   UNL     1     -41.865 -52.399  13.703  1.00  0.00     0.187 C 
BRANCH   6   7
HETATM    7  O   UNL     1     -42.824 -51.925  14.657  1.00  0.00    -0.384 OA
BRANCH   7   8
HETATM    8  C   UNL     1     -44.181 -52.205  14.289  1.00  0.00     0.125 C 
HETATM    9  C   UNL     1     -45.155 -51.071  14.683  1.00  0.00     0.010 C 
HETATM   10  C   UNL     1     -45.004 -50.649  16.151  1.00  0.00     0.012 C 
HETATM   11  C   UNL     1     -46.600 -51.466  14.353  1.00  0.00     0.007 C 
HETATM   12  C   UNL     1     -47.011 -52.791  14.988  1.00  0.00     0.001 C 
HETATM   13  C   UNL     1     -46.034 -53.911  14.644  1.00  0.00     0.002 C 
HETATM   14  C   UNL     1     -44.584 -53.534  14.944  1.00  0.00     0.032 C 
ENDBRANCH   7   8
ENDBRANCH   6   7
ENDBRANCH   5   6
ENDBRANCH   1   5
BRANCH   2  15
HETATM   15  C   UNL     1     -41.064 -48.650  11.293  1.00  0.00     0.235 C 
BRANCH  15  16
HETATM   16  N   UNL     1     -41.825 -47.544  10.718  1.00  0.00    -0.301 N 
HETATM   17  C   UNL     1     -42.606 -47.767   9.609  1.00  0.00     0.102 A 
HETATM   18  C   UNL     1     -43.318 -46.792   9.049  1.00  0.00     0.092 A 
HETATM   19  C   UNL     1     -43.271 -45.439   9.624  1.00  0.00     0.252 A 
HETATM   20  O   UNL     1     -43.936 -44.551   9.094  1.00  0.00    -0.268 OA
HETATM   21  N   UNL     1     -42.465 -45.275  10.736  1.00  0.00    -0.271 N 
HETATM   22  C   UNL     1     -42.362 -43.959  11.332  1.00  0.00     0.164 C 
HETATM   23  C   UNL     1     -41.757 -46.306  11.351  1.00  0.00     0.331 A 
HETATM   24  O   UNL     1     -41.110 -46.147  12.389  1.00  0.00    -0.246 OA
ENDBRANCH  15  16
ENDBRANCH   2  15
TORSDOF 6
ENDMDL
MODEL 4
REMARK VINA RESULT:      -5.8      4.643      7.719
REMARK  6 active torsions:
REMARK  status: ('A' for Active; 'I' for Inactive)
REMARK    1  A    between atoms: C_7  and  O_8 
REMARK    2  A    between atoms: O_8  and  C_9 
REMARK    3  A    between atoms: C_9  and  C_10 
REMARK    4  A    between atoms: C_10  and  N_11 
REMARK       I    between atoms: N_11  and  C_12 
REMARK    5  A    between atoms: C_12  and  C_14 
REMARK    6  A    between atoms: C_14  and  N_15 
ROOT
HETATM    1  N   UNL     1     -41.984 -50.273  11.589  1.00  0.00    -0.358 N 
HETATM    2  C   UNL     1     -41.265 -49.107  11.432  1.00  0.00     0.236 C 
HETATM    3  O   UNL     1     -40.116 -48.957  11.843  1.00  0.00    -0.272 OA
HETATM    4  H   UNL     1     -42.732 -50.454  10.920  1.00  0.00     0.162 HD
ENDROOT
BRANCH   1   5
HETATM    5  C   UNL     1     -41.382 -51.437  12.212  1.00  0.00     0.148 C 
BRANCH   5   6
HETATM    6  C   UNL     1     -42.432 -52.394  12.768  1.00  0.00     0.187 C 
BRANCH   6   7
HETATM    7  O   UNL     1     -43.733 -51.801  12.666  1.00  0.00    -0.384 OA
BRANCH   7   8
HETATM    8  C   UNL     1     -44.575 -52.076  13.795  1.00  0.00     0.125 C 
HETATM    9  C   UNL     1     -45.979 -52.580  13.387  1.00  0.00     0.010 C 
HETATM   10  C   UNL     1     -46.648 -51.678  12.341  1.00  0.00     0.012 C 
HETATM   11  C   UNL     1     -46.863 -52.765  14.627  1.00  0.00     0.007 C 
HETATM   12  C   UNL     1     -46.957 -51.503  15.479  1.00  0.00     0.001 C 
HETATM   13  C   UNL     1     -45.578 -50.967  15.853  1.00  0.00     0.002 C 
HETATM   14  C   UNL     1     -44.669 -50.795  14.636  1.00  0.00     0.032 C 
ENDBRANCH   7   8
ENDBRANCH   6   7
ENDBRANCH   5   6
ENDBRANCH   1   5
BRANCH   2  15
HETATM   15  C   UNL     1     -41.996 -48.016  10.656  1.00  0.00     0.235 C 
BRANCH  15  16
HETATM   16  N   UNL     1     -42.291 -46.881  11.526  1.00  0.00    -0.301 N 
HETATM   17  C   UNL     1     -42.794 -47.108  12.785  1.00  0.00     0.102 A 
HETATM   18  C   UNL     1     -43.078 -46.106  13.616  1.00  0.00     0.092 A 
HETATM   19  C   UNL     1     -42.852 -44.719  13.181  1.00  0.00     0.252 A 
HETATM   20  O   UNL     1     -43.119 -43.808  13.961  1.00  0.00    -0.268 OA
HETATM   21  N   UNL     1     -42.347 -44.554  11.903  1.00  0.00    -0.271 N 
HETATM   22  C   UNL     1     -42.125 -43.209  11.413  1.00  0.00     0.164 C 
HETATM   23  C   UNL     1     -42.005 -45.603  11.053  1.00  0.00     0.331 A 
HETATM   24  O   UNL     1     -41.483 -45.426   9.949  1.00  0.00    -0.246 OA
ENDBRANCH  15  16
ENDBRANCH   2  15
TORSDOF 6
ENDMDL
MODEL 5
REMARK VINA RESULT:      -5.7      3.759      7.405
REMARK  6 active torsions:
REMARK  status: ('A' for Active; 'I' for Inactive)
REMARK    1  A    between atoms: C_7  and  O_8 
REMARK    2  A    between atoms: O_8  and  C_9 
REMARK    3  A    between atoms: C_9  and  C_10 
REMARK    4  A    between atoms: C_10  and  N_11 
REMARK       I    between atoms: N_11  and  C_12 
REMARK    5  A    between atoms: C_12  and  C_14 
REMARK    6  A    between atoms: C_14  and  N_15 
ROOT
HETATM    1  N   UNL     1     -41.254 -51.449  13.365  1.00  0.00    -0.358 N 
HETATM    2  C   UNL     1     -40.878 -50.388  12.571  1.00  0.00     0.236 C 
HETATM    3  O   UNL     1     -40.372 -50.519  11.457  1.00  0.00    -0.272 OA
HETATM    4  H   UNL     1     -41.983 -51.278  14.058  1.00  0.00     0.162 HD
ENDROOT
BRANCH   1   5
HETATM    5  C   UNL     1     -41.127 -52.813  12.889  1.00  0.00     0.148 C 
BRANCH   5   6
HETATM    6  C   UNL     1     -42.462 -53.554  12.917  1.00  0.00     0.187 C 
BRANCH   6   7
HETATM    7  O   UNL     1     -43.452 -52.800  12.206  1.00  0.00    -0.384 OA
BRANCH   7   8
HETATM    8  C   UNL     1     -44.779 -52.976  12.719  1.00  0.00     0.125 C 
HETATM    9  C   UNL     1     -45.435 -51.644  13.151  1.00  0.00     0.010 C 
HETATM   10  C   UNL     1     -44.534 -50.817  14.078  1.00  0.00     0.012 C 
HETATM   11  C   UNL     1     -46.811 -51.903  13.779  1.00  0.00     0.007 C 
HETATM   12  C   UNL     1     -46.754 -52.890  14.940  1.00  0.00     0.001 C 
HETATM   13  C   UNL     1     -46.069 -54.194  14.543  1.00  0.00     0.002 C 
HETATM   14  C   UNL     1     -44.704 -53.963  13.894  1.00  0.00     0.032 C 
ENDBRANCH   7   8
ENDBRANCH   6   7
ENDBRANCH   5   6
ENDBRANCH   1   5
BRANCH   2  15
HETATM   15  C   UNL     1     -41.182 -49.016  13.165  1.00  0.00     0.235 C 
BRANCH  15  16
HETATM   16  N   UNL     1     -41.579 -48.081  12.116  1.00  0.00    -0.301 N 
HETATM   17  C   UNL     1     -42.825 -48.195  11.547  1.00  0.00     0.102 A 
HETATM   18  C   UNL     1     -43.235 -47.367  10.588  1.00  0.00     0.092 A 
HETATM   19  C   UNL     1     -42.335 -46.302  10.118  1.00  0.00     0.252 A 
HETATM   20  O   UNL     1     -42.729 -45.547   9.233  1.00  0.00    -0.268 OA
HETATM   21  N   UNL     1     -41.093 -46.240  10.725  1.00  0.00    -0.271 N 
HETATM   22  C   UNL     1     -40.156 -45.226  10.288  1.00  0.00     0.164 C 
HETATM   23  C   UNL     1     -40.683 -47.076  11.762  1.00  0.00     0.331 A 
HETATM   24  O   UNL     1     -39.600 -46.946  12.338  1.00  0.00    -0.246 OA
ENDBRANCH  15  16
ENDBRANCH   2  15
TORSDOF 6
ENDMDL
MODEL 6
REMARK VINA RESULT:      -5.7      3.416      7.690
REMARK  6 active torsions:
REMARK  status: ('A' for Active; 'I' for Inactive)
REMARK    1  A    between atoms: C_7  and  O_8 
REMARK    2  A    between atoms: O_8  and  C_9 
REMARK    3  A    between atoms: C_9  and  C_10 
REMARK    4  A    between atoms: C_10  and  N_11 
REMARK       I    between atoms: N_11  and  C_12 
REMARK    5  A    between atoms: C_12  and  C_14 
REMARK    6  A    between atoms: C_14  and  N_15 
ROOT
HETATM    1  N   UNL     1     -40.524 -51.182  11.537  1.00  0.00    -0.358 N 
HETATM    2  C   UNL     1     -39.315 -51.047  12.185  1.00  0.00     0.236 C 
HETATM    3  O   UNL     1     -38.920 -51.820  13.055  1.00  0.00    -0.272 OA
HETATM    4  H   UNL     1     -40.606 -50.766  10.609  1.00  0.00     0.162 HD
ENDROOT
BRANCH   1   5
HETATM    5  C   UNL     1     -41.390 -52.313  11.813  1.00  0.00     0.148 C 
BRANCH   5   6
HETATM    6  C   UNL     1     -42.606 -51.911  12.643  1.00  0.00     0.187 C 
BRANCH   6   7
HETATM    7  O   UNL     1     -42.980 -52.990  13.510  1.00  0.00    -0.384 OA
BRANCH   7   8
HETATM    8  C   UNL     1     -44.105 -52.684  14.346  1.00  0.00     0.125 C 
HETATM    9  C   UNL     1     -44.843 -53.949  14.843  1.00  0.00     0.010 C 
HETATM   10  C   UNL     1     -45.185 -54.918  13.702  1.00  0.00     0.012 C 
HETATM   11  C   UNL     1     -46.088 -53.561  15.650  1.00  0.00     0.007 C 
HETATM   12  C   UNL     1     -47.030 -52.641  14.878  1.00  0.00     0.001 C 
HETATM   13  C   UNL     1     -46.306 -51.409  14.343  1.00  0.00     0.002 C 
HETATM   14  C   UNL     1     -45.048 -51.768  13.553  1.00  0.00     0.032 C 
ENDBRANCH   7   8
ENDBRANCH   6   7
ENDBRANCH   5   6
ENDBRANCH   1   5
BRANCH   2  15
HETATM   15  C   UNL     1     -38.469 -49.873  11.702  1.00  0.00     0.235 C 
BRANCH  15  16
HETATM   16  N   UNL     1     -38.644 -48.720  12.581  1.00  0.00    -0.301 N 
HETATM   17  C   UNL     1     -37.791 -48.547  13.645  1.00  0.00     0.102 A 
HETATM   18  C   UNL     1     -37.910 -47.512  14.475  1.00  0.00     0.092 A 
HETATM   19  C   UNL     1     -38.980 -46.527  14.256  1.00  0.00     0.252 A 
HETATM   20  O   UNL     1     -39.074 -45.579  15.031  1.00  0.00    -0.268 OA
HETATM   21  N   UNL     1     -39.809 -46.757  13.172  1.00  0.00    -0.271 N 
HETATM   22  C   UNL     1     -40.895 -45.832  12.919  1.00  0.00     0.164 C 
HETATM   23  C   UNL     1     -39.655 -47.813  12.276  1.00  0.00     0.331 A 
HETATM   24  O   UNL     1     -40.360 -47.948  11.273  1.00  0.00    -0.246 OA
ENDBRANCH  15  16
ENDBRANCH   2  15
TORSDOF 6
ENDMDL
MODEL 7
REMARK VINA RESULT:      -5.6      2.359      7.149
REMARK  6 active torsions:
REMARK  status: ('A' for Active; 'I' for Inactive)
REMARK    1  A    between atoms: C_7  and  O_8 
REMARK    2  A    between atoms: O_8  and  C_9 
REMARK    3  A    between atoms: C_9  and  C_10 
REMARK    4  A    between atoms: C_10  and  N_11 
REMARK       I    between atoms: N_11  and  C_12 
REMARK    5  A    between atoms: C_12  and  C_14 
REMARK    6  A    between atoms: C_14  and  N_15 
ROOT
HETATM    1  N   UNL     1     -40.803 -54.019  15.272  1.00  0.00    -0.358 N 
HETATM    2  C   UNL     1     -40.025 -53.548  14.236  1.00  0.00     0.236 C 
HETATM    3  O   UNL     1     -40.173 -53.892  13.065  1.00  0.00    -0.272 OA
HETATM    4  H   UNL     1     -40.882 -53.431  16.102  1.00  0.00     0.162 HD
ENDROOT
BRANCH   1   5
HETATM    5  C   UNL     1     -41.909 -54.923  15.018  1.00  0.00     0.148 C 
BRANCH   5   6
HETATM    6  C   UNL     1     -43.172 -54.504  15.765  1.00  0.00     0.187 C 
BRANCH   6   7
HETATM    7  O   UNL     1     -44.330 -54.988  15.072  1.00  0.00    -0.384 OA
BRANCH   7   8
HETATM    8  C   UNL     1     -45.296 -53.965  14.793  1.00  0.00     0.125 C 
HETATM    9  C   UNL     1     -45.489 -53.721  13.279  1.00  0.00     0.010 C 
HETATM   10  C   UNL     1     -44.159 -53.512  12.541  1.00  0.00     0.012 C 
HETATM   11  C   UNL     1     -46.458 -52.555  13.043  1.00  0.00     0.007 C 
HETATM   12  C   UNL     1     -46.030 -51.277  13.757  1.00  0.00     0.001 C 
HETATM   13  C   UNL     1     -45.791 -51.511  15.246  1.00  0.00     0.002 C 
HETATM   14  C   UNL     1     -44.846 -52.683  15.508  1.00  0.00     0.032 C 
ENDBRANCH   7   8
ENDBRANCH   6   7
ENDBRANCH   5   6
ENDBRANCH   1   5
BRANCH   2  15
HETATM   15  C   UNL     1     -38.980 -52.518  14.651  1.00  0.00     0.235 C 
BRANCH  15  16
HETATM   16  N   UNL     1     -39.079 -51.324  13.815  1.00  0.00    -0.301 N 
HETATM   17  C   UNL     1     -40.097 -50.428  14.038  1.00  0.00     0.102 A 
HETATM   18  C   UNL     1     -40.230 -49.325  13.303  1.00  0.00     0.092 A 
HETATM   19  C   UNL     1     -39.269 -49.054  12.223  1.00  0.00     0.252 A 
HETATM   20  O   UNL     1     -39.407 -48.032  11.556  1.00  0.00    -0.268 OA
HETATM   21  N   UNL     1     -38.269 -49.995  12.045  1.00  0.00    -0.271 N 
HETATM   22  C   UNL     1     -37.307 -49.792  10.981  1.00  0.00     0.164 C 
HETATM   23  C   UNL     1     -38.102 -51.123  12.844  1.00  0.00     0.331 A 
HETATM   24  O   UNL     1     -37.155 -51.902  12.712  1.00  0.00    -0.246 OA
ENDBRANCH  15  16
ENDBRANCH   2  15
TORSDOF 6
ENDMDL
MODEL 8
REMARK VINA RESULT:      -5.6      3.682      5.257
REMARK  6 active torsions:
REMARK  status: ('A' for Active; 'I' for Inactive)
REMARK    1  A    between atoms: C_7  and  O_8 
REMARK    2  A    between atoms: O_8  and  C_9 
REMARK    3  A    between atoms: C_9  and  C_10 
REMARK    4  A    between atoms: C_10  and  N_11 
REMARK       I    between atoms: N_11  and  C_12 
REMARK    5  A    between atoms: C_12  and  C_14 
REMARK    6  A    between atoms: C_14  and  N_15 
ROOT
HETATM    1  N   UNL     1     -42.250 -49.648  11.437  1.00  0.00    -0.358 N 
HETATM    2  C   UNL     1     -42.017 -50.380  12.582  1.00  0.00     0.236 C 
HETATM    3  O   UNL     1     -42.251 -49.962  13.715  1.00  0.00    -0.272 OA
HETATM    4  H   UNL     1     -42.399 -50.169  10.573  1.00  0.00     0.162 HD
ENDROOT
BRANCH   1   5
HETATM    5  C   UNL     1     -42.860 -48.334  11.509  1.00  0.00     0.148 C 
BRANCH   5   6
HETATM    6  C   UNL     1     -42.275 -47.376  10.474  1.00  0.00     0.187 C 
BRANCH   6   7
HETATM    7  O   UNL     1     -40.912 -47.079  10.802  1.00  0.00    -0.384 OA
BRANCH   7   8
HETATM    8  C   UNL     1     -40.767 -45.931  11.649  1.00  0.00     0.125 C 
HETATM    9  C   UNL     1     -40.469 -44.637  10.858  1.00  0.00     0.010 C 
HETATM   10  C   UNL     1     -39.310 -44.805   9.866  1.00  0.00     0.012 C 
HETATM   11  C   UNL     1     -40.229 -43.465  11.818  1.00  0.00     0.007 C 
HETATM   12  C   UNL     1     -39.131 -43.751  12.838  1.00  0.00     0.001 C 
HETATM   13  C   UNL     1     -39.387 -45.050  13.596  1.00  0.00     0.002 C 
HETATM   14  C   UNL     1     -39.651 -46.230  12.662  1.00  0.00     0.032 C 
ENDBRANCH   7   8
ENDBRANCH   6   7
ENDBRANCH   5   6
ENDBRANCH   1   5
BRANCH   2  15
HETATM   15  C   UNL     1     -41.481 -51.786  12.333  1.00  0.00     0.235 C 
BRANCH  15  16
HETATM   16  N   UNL     1     -42.379 -52.784  12.908  1.00  0.00    -0.301 N 
HETATM   17  C   UNL     1     -43.624 -52.970  12.356  1.00  0.00     0.102 A 
HETATM   18  C   UNL     1     -44.478 -53.868  12.845  1.00  0.00     0.092 A 
HETATM   19  C   UNL     1     -44.087 -54.683  14.005  1.00  0.00     0.252 A 
HETATM   20  O   UNL     1     -44.887 -55.507  14.441  1.00  0.00    -0.268 OA
HETATM   21  N   UNL     1     -42.823 -54.448  14.518  1.00  0.00    -0.271 N 
HETATM   22  C   UNL     1     -42.392 -55.206  15.675  1.00  0.00     0.164 C 
HETATM   23  C   UNL     1     -41.912 -53.543  13.978  1.00  0.00     0.331 A 
HETATM   24  O   UNL     1     -40.764 -53.413  14.409  1.00  0.00    -0.246 OA
ENDBRANCH  15  16
ENDBRANCH   2  15
TORSDOF 6
ENDMDL
MODEL 9
REMARK VINA RESULT:      -5.4      1.286      1.998
REMARK  6 active torsions:
REMARK  status: ('A' for Active; 'I' for Inactive)
REMARK    1  A    between atoms: C_7  and  O_8 
REMARK    2  A    between atoms: O_8  and  C_9 
REMARK    3  A    between atoms: C_9  and  C_10 
REMARK    4  A    between atoms: C_10  and  N_11 
REMARK       I    between atoms: N_11  and  C_12 
REMARK    5  A    between atoms: C_12  and  C_14 
REMARK    6  A    between atoms: C_14  and  N_15 
ROOT
HETATM    1  N   UNL     1     -43.026 -53.033  13.858  1.00  0.00    -0.358 N 
HETATM    2  C   UNL     1     -44.099 -53.763  13.393  1.00  0.00     0.236 C 
HETATM    3  O   UNL     1     -44.371 -53.886  12.200  1.00  0.00    -0.272 OA
HETATM    4  H   UNL     1     -42.651 -53.285  14.772  1.00  0.00     0.162 HD
ENDROOT
BRANCH   1   5
HETATM    5  C   UNL     1     -42.099 -52.407  12.934  1.00  0.00     0.148 C 
BRANCH   5   6
HETATM    6  C   UNL     1     -40.767 -53.149  12.872  1.00  0.00     0.187 C 
BRANCH   6   7
HETATM    7  O   UNL     1     -39.753 -52.285  12.342  1.00  0.00    -0.384 OA
BRANCH   7   8
HETATM    8  C   UNL     1     -39.431 -51.187  13.208  1.00  0.00     0.125 C 
HETATM    9  C   UNL     1     -38.593 -50.095  12.504  1.00  0.00     0.010 C 
HETATM   10  C   UNL     1     -37.370 -50.669  11.775  1.00  0.00     0.012 C 
HETATM   11  C   UNL     1     -38.198 -48.997  13.499  1.00  0.00     0.007 C 
HETATM   12  C   UNL     1     -37.472 -49.544  14.724  1.00  0.00     0.001 C 
HETATM   13  C   UNL     1     -38.265 -50.655  15.405  1.00  0.00     0.002 C 
HETATM   14  C   UNL     1     -38.691 -51.752  14.429  1.00  0.00     0.032 C 
ENDBRANCH   7   8
ENDBRANCH   6   7
ENDBRANCH   5   6
ENDBRANCH   1   5
BRANCH   2  15
HETATM   15  C   UNL     1     -44.911 -54.455  14.484  1.00  0.00     0.235 C 
BRANCH  15  16
HETATM   16  N   UNL     1     -45.718 -53.482  15.216  1.00  0.00    -0.301 N 
HETATM   17  C   UNL     1     -46.332 -52.462  14.529  1.00  0.00     0.102 A 
HETATM   18  C   UNL     1     -47.078 -51.551  15.151  1.00  0.00     0.092 A 
HETATM   19  C   UNL     1     -47.252 -51.630  16.610  1.00  0.00     0.252 A 
HETATM   20  O   UNL     1     -47.944 -50.782  17.166  1.00  0.00    -0.268 OA
HETATM   21  N   UNL     1     -46.606 -52.676  17.245  1.00  0.00    -0.271 N 
HETATM   22  C   UNL     1     -46.723 -52.792  18.685  1.00  0.00     0.164 C 
HETATM   23  C   UNL     1     -45.865 -53.656  16.589  1.00  0.00     0.331 A 
HETATM   24  O   UNL     1     -45.367 -54.622  17.173  1.00  0.00    -0.246 OA
ENDBRANCH  15  16
ENDBRANCH   2  15
TORSDOF 6
ENDMDL
