MODEL 1
REMARK VINA RESULT:      -6.1      0.000      0.000
REMARK  6 active torsions:
REMARK  status: ('A' for Active; 'I' for Inactive)
REMARK    1  A    between atoms: C_2  and  O_3 
REMARK    2  A    between atoms: O_3  and  C_4 
REMARK    3  A    between atoms: C_4  and  C_6 
REMARK       I    between atoms: C_6  and  N_8 
REMARK    4  A    between atoms: N_8  and  C_9 
REMARK    5  A    between atoms: C_9  and  C_10 
REMARK    6  A    between atoms: C_15  and  N_17 
ROOT
HETATM    1  C   UNL     1     -42.405 -50.296  12.552  1.00  0.00    -0.036 A 
HETATM    2  C   UNL     1     -41.342 -50.955  11.941  1.00  0.00     0.026 A 
HETATM    3  C   UNL     1     -41.322 -52.336  11.981  1.00  0.00     0.090 A 
HETATM    4  N   UNL     1     -42.281 -53.096  12.563  1.00  0.00    -0.352 N 
ATOM      5  HN  UNL     1     -42.240 -54.115  12.528  1.00  0.00     0.166 HD
HETATM    6  C   UNL     1     -43.290 -52.460  13.188  1.00  0.00     0.103 A 
HETATM    7  C   UNL     1     -43.355 -51.066  13.222  1.00  0.00     0.057 A 
ENDROOT
BRANCH   1   8
HETATM    8  C   UNL     1     -42.583 -48.811  12.446  1.00  0.00     0.161 C 
BRANCH   8   9
HETATM    9  N   UNL     1     -43.497 -48.436  11.401  1.00  0.00    -0.355 N 
HETATM   10  C   UNL     1     -43.003 -47.835  10.257  1.00  0.00     0.246 C 
HETATM   11  O   UNL     1     -41.800 -47.770  10.018  1.00  0.00    -0.271 OA
HETATM   12  H   UNL     1     -44.464 -48.230  11.624  1.00  0.00     0.162 HD
BRANCH  10  13
HETATM   13  C   UNL     1     -44.094 -47.331   9.293  1.00  0.00     0.209 C 
HETATM   14  C   UNL     1     -43.778 -45.894   8.883  1.00  0.00     0.049 C 
BRANCH  13  15
HETATM   15  O   UNL     1     -45.383 -47.443   9.914  1.00  0.00    -0.377 OA
BRANCH  15  16
HETATM   16  C   UNL     1     -46.464 -47.416   8.983  1.00  0.00     0.164 C 
HETATM   17  C   UNL     1     -46.506 -48.740   8.244  1.00  0.00     0.033 C 
ENDBRANCH  15  16
ENDBRANCH  13  15
ENDBRANCH  10  13
ENDBRANCH   8   9
ENDBRANCH   1   8
BRANCH   6  18
HETATM   18  N   UNL     1     -44.368 -53.161  13.682  1.00  0.00    -0.363 N 
HETATM   19  C   UNL     1     -44.202 -54.577  14.013  1.00  0.00     0.150 C 
HETATM   20  C   UNL     1     -45.592 -55.224  13.865  1.00  0.00     0.187 C 
HETATM   21  O   UNL     1     -46.568 -54.590  14.719  1.00  0.00    -0.388 OA
HETATM   22  C   UNL     1     -46.665 -53.180  14.434  1.00  0.00     0.187 C 
HETATM   23  C   UNL     1     -45.304 -52.476  14.578  1.00  0.00     0.150 C 
ENDBRANCH   6  18
TORSDOF 6
ENDMDL
MODEL 2
REMARK VINA RESULT:      -5.9      3.409      4.560
REMARK  6 active torsions:
REMARK  status: ('A' for Active; 'I' for Inactive)
REMARK    1  A    between atoms: C_2  and  O_3 
REMARK    2  A    between atoms: O_3  and  C_4 
REMARK    3  A    between atoms: C_4  and  C_6 
REMARK       I    between atoms: C_6  and  N_8 
REMARK    4  A    between atoms: N_8  and  C_9 
REMARK    5  A    between atoms: C_9  and  C_10 
REMARK    6  A    between atoms: C_15  and  N_17 
ROOT
HETATM    1  C   UNL     1     -40.366 -46.828  11.856  1.00  0.00    -0.036 A 
HETATM    2  C   UNL     1     -39.617 -46.187  12.838  1.00  0.00     0.026 A 
HETATM    3  C   UNL     1     -39.052 -46.959  13.836  1.00  0.00     0.090 A 
HETATM    4  N   UNL     1     -39.166 -48.307  13.912  1.00  0.00    -0.352 N 
ATOM      5  HN  UNL     1     -38.694 -48.835  14.646  1.00  0.00     0.166 HD
HETATM    6  C   UNL     1     -39.922 -48.925  12.985  1.00  0.00     0.103 A 
HETATM    7  C   UNL     1     -40.556 -48.205  11.971  1.00  0.00     0.057 A 
ENDROOT
BRANCH   1   8
HETATM    8  C   UNL     1     -40.904 -46.094  10.664  1.00  0.00     0.161 C 
BRANCH   8   9
HETATM    9  N   UNL     1     -41.857 -46.872   9.918  1.00  0.00    -0.355 N 
HETATM   10  C   UNL     1     -43.031 -46.277   9.497  1.00  0.00     0.246 C 
HETATM   11  O   UNL     1     -43.217 -45.065   9.576  1.00  0.00    -0.271 OA
HETATM   12  H   UNL     1     -41.891 -47.879  10.036  1.00  0.00     0.162 HD
BRANCH  10  13
HETATM   13  C   UNL     1     -44.037 -47.255   8.859  1.00  0.00     0.209 C 
HETATM   14  C   UNL     1     -43.411 -47.878   7.613  1.00  0.00     0.049 C 
BRANCH  13  15
HETATM   15  O   UNL     1     -45.261 -46.567   8.561  1.00  0.00    -0.377 OA
BRANCH  15  16
HETATM   16  C   UNL     1     -46.382 -47.068   9.288  1.00  0.00     0.164 C 
HETATM   17  C   UNL     1     -46.678 -48.480   8.820  1.00  0.00     0.033 C 
ENDBRANCH  15  16
ENDBRANCH  13  15
ENDBRANCH  10  13
ENDBRANCH   8   9
ENDBRANCH   1   8
BRANCH   6  18
HETATM   18  N   UNL     1     -39.974 -50.301  12.918  1.00  0.00    -0.363 N 
HETATM   19  C   UNL     1     -40.629 -50.929  11.770  1.00  0.00     0.150 C 
HETATM   20  C   UNL     1     -41.136 -52.300  12.256  1.00  0.00     0.187 C 
HETATM   21  O   UNL     1     -40.059 -53.115  12.766  1.00  0.00    -0.388 OA
HETATM   22  C   UNL     1     -39.374 -52.449  13.846  1.00  0.00     0.187 C 
HETATM   23  C   UNL     1     -38.833 -51.075  13.414  1.00  0.00     0.150 C 
ENDBRANCH   6  18
TORSDOF 6
ENDMDL
MODEL 3
REMARK VINA RESULT:      -5.8      2.307      6.847
REMARK  6 active torsions:
REMARK  status: ('A' for Active; 'I' for Inactive)
REMARK    1  A    between atoms: C_2  and  O_3 
REMARK    2  A    between atoms: O_3  and  C_4 
REMARK    3  A    between atoms: C_4  and  C_6 
REMARK       I    between atoms: C_6  and  N_8 
REMARK    4  A    between atoms: N_8  and  C_9 
REMARK    5  A    between atoms: C_9  and  C_10 
REMARK    6  A    between atoms: C_15  and  N_17 
ROOT
HETATM    1  C   UNL     1     -40.705 -51.289  12.171  1.00  0.00    -0.036 A 
HETATM    2  C   UNL     1     -39.861 -51.183  13.272  1.00  0.00     0.026 A 
HETATM    3  C   UNL     1     -39.403 -49.927  13.625  1.00  0.00     0.090 A 
HETATM    4  N   UNL     1     -39.738 -48.785  12.977  1.00  0.00    -0.352 N 
ATOM      5  HN  UNL     1     -39.406 -47.877  13.303  1.00  0.00     0.166 HD
HETATM    6  C   UNL     1     -40.523 -48.889  11.888  1.00  0.00     0.103 A 
HETATM    7  C   UNL     1     -40.990 -50.130  11.450  1.00  0.00     0.057 A 
ENDROOT
BRANCH   1   8
HETATM    8  C   UNL     1     -41.357 -52.586  11.794  1.00  0.00     0.161 C 
BRANCH   8   9
HETATM    9  N   UNL     1     -42.760 -52.614  12.111  1.00  0.00    -0.355 N 
HETATM   10  C   UNL     1     -43.195 -53.377  13.178  1.00  0.00     0.246 C 
HETATM   11  O   UNL     1     -42.417 -53.890  13.977  1.00  0.00    -0.271 OA
HETATM   12  H   UNL     1     -43.446 -52.440  11.384  1.00  0.00     0.162 HD
BRANCH  10  13
HETATM   13  C   UNL     1     -44.728 -53.457  13.308  1.00  0.00     0.209 C 
HETATM   14  C   UNL     1     -45.129 -54.886  13.666  1.00  0.00     0.049 C 
BRANCH  13  15
HETATM   15  O   UNL     1     -45.344 -53.014  12.090  1.00  0.00    -0.377 OA
BRANCH  15  16
HETATM   16  C   UNL     1     -46.525 -52.242  12.301  1.00  0.00     0.164 C 
HETATM   17  C   UNL     1     -46.363 -51.438  13.577  1.00  0.00     0.033 C 
ENDBRANCH  15  16
ENDBRANCH  13  15
ENDBRANCH  10  13
ENDBRANCH   8   9
ENDBRANCH   1   8
BRANCH   6  18
HETATM   18  N   UNL     1     -41.014 -47.765  11.260  1.00  0.00    -0.363 N 
HETATM   19  C   UNL     1     -40.116 -46.632  11.033  1.00  0.00     0.150 C 
HETATM   20  C   UNL     1     -41.006 -45.375  10.985  1.00  0.00     0.187 C 
HETATM   21  O   UNL     1     -42.010 -45.474   9.952  1.00  0.00    -0.388 OA
HETATM   22  C   UNL     1     -42.838 -46.639  10.146  1.00  0.00     0.187 C 
HETATM   23  C   UNL     1     -42.001 -47.930  10.190  1.00  0.00     0.150 C 
ENDBRANCH   6  18
TORSDOF 6
ENDMDL
MODEL 4
REMARK VINA RESULT:      -5.6      2.240      6.773
REMARK  6 active torsions:
REMARK  status: ('A' for Active; 'I' for Inactive)
REMARK    1  A    between atoms: C_2  and  O_3 
REMARK    2  A    between atoms: O_3  and  C_4 
REMARK    3  A    between atoms: C_4  and  C_6 
REMARK       I    between atoms: C_6  and  N_8 
REMARK    4  A    between atoms: N_8  and  C_9 
REMARK    5  A    between atoms: C_9  and  C_10 
REMARK    6  A    between atoms: C_15  and  N_17 
ROOT
HETATM    1  C   UNL     1     -42.203 -50.014  13.010  1.00  0.00    -0.036 A 
HETATM    2  C   UNL     1     -41.074 -50.659  12.513  1.00  0.00     0.026 A 
HETATM    3  C   UNL     1     -40.526 -50.196  11.331  1.00  0.00     0.090 A 
HETATM    4  N   UNL     1     -41.008 -49.141  10.630  1.00  0.00    -0.352 N 
ATOM      5  HN  UNL     1     -40.542 -48.814   9.783  1.00  0.00     0.166 HD
HETATM    6  C   UNL     1     -42.123 -48.541  11.088  1.00  0.00     0.103 A 
HETATM    7  C   UNL     1     -42.753 -48.979  12.254  1.00  0.00     0.057 A 
ENDROOT
BRANCH   1   8
HETATM    8  C   UNL     1     -42.787 -50.357  14.348  1.00  0.00     0.161 C 
BRANCH   8   9
HETATM    9  N   UNL     1     -44.201 -50.613  14.286  1.00  0.00    -0.355 N 
HETATM   10  C   UNL     1     -44.644 -51.898  14.035  1.00  0.00     0.246 C 
HETATM   11  O   UNL     1     -43.887 -52.865  14.040  1.00  0.00    -0.271 OA
HETATM   12  H   UNL     1     -44.839 -49.868  14.026  1.00  0.00     0.162 HD
BRANCH  10  13
HETATM   13  C   UNL     1     -46.167 -52.007  13.828  1.00  0.00     0.209 C 
HETATM   14  C   UNL     1     -46.511 -51.586  12.401  1.00  0.00     0.049 C 
BRANCH  13  15
HETATM   15  O   UNL     1     -46.850 -51.208  14.805  1.00  0.00    -0.377 OA
BRANCH  15  16
HETATM   16  C   UNL     1     -47.317 -51.960  15.924  1.00  0.00     0.164 C 
HETATM   17  C   UNL     1     -47.900 -51.004  16.947  1.00  0.00     0.033 C 
ENDBRANCH  15  16
ENDBRANCH  13  15
ENDBRANCH  10  13
ENDBRANCH   8   9
ENDBRANCH   1   8
BRANCH   6  18
HETATM   18  N   UNL     1     -42.592 -47.383  10.506  1.00  0.00    -0.363 N 
HETATM   19  C   UNL     1     -43.628 -47.477   9.477  1.00  0.00     0.150 C 
HETATM   20  C   UNL     1     -43.460 -46.237   8.577  1.00  0.00     0.187 C 
HETATM   21  O   UNL     1     -43.572 -45.013   9.334  1.00  0.00    -0.388 OA
HETATM   22  C   UNL     1     -42.595 -44.969  10.394  1.00  0.00     0.187 C 
HETATM   23  C   UNL     1     -42.723 -46.181  11.334  1.00  0.00     0.150 C 
ENDBRANCH   6  18
TORSDOF 6
ENDMDL
MODEL 5
REMARK VINA RESULT:      -5.4      3.864      6.987
REMARK  6 active torsions:
REMARK  status: ('A' for Active; 'I' for Inactive)
REMARK    1  A    between atoms: C_2  and  O_3 
REMARK    2  A    between atoms: O_3  and  C_4 
REMARK    3  A    between atoms: C_4  and  C_6 
REMARK       I    between atoms: C_6  and  N_8 
REMARK    4  A    between atoms: N_8  and  C_9 
REMARK    5  A    between atoms: C_9  and  C_10 
REMARK    6  A    between atoms: C_15  and  N_17 
ROOT
HETATM    1  C   UNL     1     -42.528 -53.938  13.500  1.00  0.00    -0.036 A 
HETATM    2  C   UNL     1     -42.111 -54.577  14.664  1.00  0.00     0.026 A 
HETATM    3  C   UNL     1     -40.876 -54.241  15.186  1.00  0.00     0.090 A 
HETATM    4  N   UNL     1     -40.047 -53.314  14.647  1.00  0.00    -0.352 N 
ATOM      5  HN  UNL     1     -39.163 -53.073  15.095  1.00  0.00     0.166 HD
HETATM    6  C   UNL     1     -40.431 -52.723  13.500  1.00  0.00     0.103 A 
HETATM    7  C   UNL     1     -41.648 -53.041  12.894  1.00  0.00     0.057 A 
ENDROOT
BRANCH   1   8
HETATM    8  C   UNL     1     -43.902 -54.137  12.934  1.00  0.00     0.161 C 
BRANCH   8   9
HETATM    9  N   UNL     1     -44.870 -53.237  13.501  1.00  0.00    -0.355 N 
HETATM   10  C   UNL     1     -45.838 -53.736  14.352  1.00  0.00     0.246 C 
HETATM   11  O   UNL     1     -45.799 -54.884  14.787  1.00  0.00    -0.271 OA
HETATM   12  H   UNL     1     -45.111 -52.381  13.014  1.00  0.00     0.162 HD
BRANCH  10  13
HETATM   13  C   UNL     1     -46.911 -52.706  14.756  1.00  0.00     0.209 C 
HETATM   14  C   UNL     1     -46.727 -51.437  13.927  1.00  0.00     0.049 C 
BRANCH  13  15
HETATM   15  O   UNL     1     -46.829 -52.446  16.165  1.00  0.00    -0.377 OA
BRANCH  15  16
HETATM   16  C   UNL     1     -47.651 -51.359  16.589  1.00  0.00     0.164 C 
HETATM   17  C   UNL     1     -46.963 -50.643  17.736  1.00  0.00     0.033 C 
ENDBRANCH  15  16
ENDBRANCH  13  15
ENDBRANCH  10  13
ENDBRANCH   8   9
ENDBRANCH   1   8
BRANCH   6  18
HETATM   18  N   UNL     1     -39.708 -51.677  12.968  1.00  0.00    -0.363 N 
HETATM   19  C   UNL     1     -40.410 -50.451  12.589  1.00  0.00     0.150 C 
HETATM   20  C   UNL     1     -39.576 -49.800  11.469  1.00  0.00     0.187 C 
HETATM   21  O   UNL     1     -38.226 -49.528  11.902  1.00  0.00    -0.388 OA
HETATM   22  C   UNL     1     -37.572 -50.735  12.344  1.00  0.00     0.187 C 
HETATM   23  C   UNL     1     -38.357 -51.424  13.475  1.00  0.00     0.150 C 
ENDBRANCH   6  18
TORSDOF 6
ENDMDL
MODEL 6
REMARK VINA RESULT:      -5.2      2.047      6.713
REMARK  6 active torsions:
REMARK  status: ('A' for Active; 'I' for Inactive)
REMARK    1  A    between atoms: C_2  and  O_3 
REMARK    2  A    between atoms: O_3  and  C_4 
REMARK    3  A    between atoms: C_4  and  C_6 
REMARK       I    between atoms: C_6  and  N_8 
REMARK    4  A    between atoms: N_8  and  C_9 
REMARK    5  A    between atoms: C_9  and  C_10 
REMARK    6  A    between atoms: C_15  and  N_17 
ROOT
HETATM    1  C   UNL     1     -42.494 -50.274  13.387  1.00  0.00    -0.036 A 
HETATM    2  C   UNL     1     -41.516 -51.175  12.975  1.00  0.00     0.026 A 
HETATM    3  C   UNL     1     -40.822 -50.897  11.813  1.00  0.00     0.090 A 
HETATM    4  N   UNL     1     -41.019 -49.792  11.053  1.00  0.00    -0.352 N 
ATOM      5  HN  UNL     1     -40.450 -49.613  10.225  1.00  0.00     0.166 HD
HETATM    6  C   UNL     1     -41.991 -48.939  11.428  1.00  0.00     0.103 A 
HETATM    7  C   UNL     1     -42.759 -49.176  12.570  1.00  0.00     0.057 A 
ENDROOT
BRANCH   1   8
HETATM    8  C   UNL     1     -43.204 -50.421  14.699  1.00  0.00     0.161 C 
BRANCH   8   9
HETATM    9  N   UNL     1     -44.447 -51.135  14.580  1.00  0.00    -0.355 N 
HETATM   10  C   UNL     1     -44.467 -52.497  14.815  1.00  0.00     0.246 C 
HETATM   11  O   UNL     1     -43.507 -53.094  15.295  1.00  0.00    -0.271 OA
HETATM   12  H   UNL     1     -45.177 -50.782  13.971  1.00  0.00     0.162 HD
BRANCH  10  13
HETATM   13  C   UNL     1     -45.815 -53.170  14.492  1.00  0.00     0.209 C 
HETATM   14  C   UNL     1     -45.557 -54.542  13.873  1.00  0.00     0.049 C 
BRANCH  13  15
HETATM   15  O   UNL     1     -46.586 -52.324  13.625  1.00  0.00    -0.377 OA
BRANCH  15  16
HETATM   16  C   UNL     1     -46.275 -52.497  12.243  1.00  0.00     0.164 C 
HETATM   17  C   UNL     1     -47.217 -51.641  11.419  1.00  0.00     0.033 C 
ENDBRANCH  15  16
ENDBRANCH  13  15
ENDBRANCH  10  13
ENDBRANCH   8   9
ENDBRANCH   1   8
BRANCH   6  18
HETATM   18  N   UNL     1     -42.158 -47.732  10.786  1.00  0.00    -0.363 N 
HETATM   19  C   UNL     1     -41.071 -46.753  10.824  1.00  0.00     0.150 C 
HETATM   20  C   UNL     1     -41.728 -45.367  10.673  1.00  0.00     0.187 C 
HETATM   21  O   UNL     1     -42.490 -45.270   9.451  1.00  0.00    -0.388 OA
HETATM   22  C   UNL     1     -43.508 -46.290   9.394  1.00  0.00     0.187 C 
HETATM   23  C   UNL     1     -42.907 -47.700   9.527  1.00  0.00     0.150 C 
ENDBRANCH   6  18
TORSDOF 6
ENDMDL
MODEL 7
REMARK VINA RESULT:      -5.2      2.875      7.844
REMARK  6 active torsions:
REMARK  status: ('A' for Active; 'I' for Inactive)
REMARK    1  A    between atoms: C_2  and  O_3 
REMARK    2  A    between atoms: O_3  and  C_4 
REMARK    3  A    between atoms: C_4  and  C_6 
REMARK       I    between atoms: C_6  and  N_8 
REMARK    4  A    between atoms: N_8  and  C_9 
REMARK    5  A    between atoms: C_9  and  C_10 
REMARK    6  A    between atoms: C_15  and  N_17 
ROOT
HETATM    1  C   UNL     1     -42.248 -49.562  12.229  1.00  0.00    -0.036 A 
HETATM    2  C   UNL     1     -41.089 -50.285  11.961  1.00  0.00     0.026 A 
HETATM    3  C   UNL     1     -40.034 -49.627  11.357  1.00  0.00     0.090 A 
HETATM    4  N   UNL     1     -40.046 -48.314  11.023  1.00  0.00    -0.352 N 
ATOM      5  HN  UNL     1     -39.225 -47.866  10.617  1.00  0.00     0.166 HD
HETATM    6  C   UNL     1     -41.179 -47.621  11.246  1.00  0.00     0.103 A 
HETATM    7  C   UNL     1     -42.299 -48.230  11.816  1.00  0.00     0.057 A 
ENDROOT
BRANCH   1   8
HETATM    8  C   UNL     1     -43.391 -50.152  12.998  1.00  0.00     0.161 C 
BRANCH   8   9
HETATM    9  N   UNL     1     -43.550 -51.561  12.761  1.00  0.00    -0.355 N 
HETATM   10  C   UNL     1     -43.411 -52.444  13.816  1.00  0.00     0.246 C 
HETATM   11  O   UNL     1     -43.336 -52.064  14.982  1.00  0.00    -0.271 OA
HETATM   12  H   UNL     1     -43.363 -51.943  11.840  1.00  0.00     0.162 HD
BRANCH  10  13
HETATM   13  C   UNL     1     -43.437 -53.927  13.402  1.00  0.00     0.209 C 
HETATM   14  C   UNL     1     -44.646 -54.607  14.041  1.00  0.00     0.049 C 
BRANCH  13  15
HETATM   15  O   UNL     1     -42.204 -54.558  13.777  1.00  0.00    -0.377 OA
BRANCH  15  16
HETATM   16  C   UNL     1     -41.098 -54.167  12.964  1.00  0.00     0.164 C 
HETATM   17  C   UNL     1     -39.925 -53.827  13.864  1.00  0.00     0.033 C 
ENDBRANCH  15  16
ENDBRANCH  13  15
ENDBRANCH  10  13
ENDBRANCH   8   9
ENDBRANCH   1   8
BRANCH   6  18
HETATM   18  N   UNL     1     -41.222 -46.257  11.059  1.00  0.00    -0.363 N 
HETATM   19  C   UNL     1     -40.021 -45.569  10.582  1.00  0.00     0.150 C 
HETATM   20  C   UNL     1     -40.112 -44.123  11.105  1.00  0.00     0.187 C 
HETATM   21  O   UNL     1     -41.316 -43.468  10.651  1.00  0.00    -0.388 OA
HETATM   22  C   UNL     1     -42.488 -44.199  11.063  1.00  0.00     0.187 C 
HETATM   23  C   UNL     1     -42.458 -45.652  10.557  1.00  0.00     0.150 C 
ENDBRANCH   6  18
TORSDOF 6
ENDMDL
MODEL 8
REMARK VINA RESULT:      -5.1      3.410      7.347
REMARK  6 active torsions:
REMARK  status: ('A' for Active; 'I' for Inactive)
REMARK    1  A    between atoms: C_2  and  O_3 
REMARK    2  A    between atoms: O_3  and  C_4 
REMARK    3  A    between atoms: C_4  and  C_6 
REMARK       I    between atoms: C_6  and  N_8 
REMARK    4  A    between atoms: N_8  and  C_9 
REMARK    5  A    between atoms: C_9  and  C_10 
REMARK    6  A    between atoms: C_15  and  N_17 
ROOT
HETATM    1  C   UNL     1     -38.520 -50.766  13.285  1.00  0.00    -0.036 A 
HETATM    2  C   UNL     1     -37.459 -50.813  12.386  1.00  0.00     0.026 A 
HETATM    3  C   UNL     1     -37.483 -49.955  11.302  1.00  0.00     0.090 A 
HETATM    4  N   UNL     1     -38.468 -49.055  11.065  1.00  0.00    -0.352 N 
ATOM      5  HN  UNL     1     -38.418 -48.415  10.272  1.00  0.00     0.166 HD
HETATM    6  C   UNL     1     -39.515 -49.034  11.912  1.00  0.00     0.103 A 
HETATM    7  C   UNL     1     -39.577 -49.899  13.006  1.00  0.00     0.057 A 
ENDROOT
BRANCH   1   8
HETATM    8  C   UNL     1     -38.518 -51.559  14.557  1.00  0.00     0.161 C 
BRANCH   8   9
HETATM    9  N   UNL     1     -39.793 -52.164  14.835  1.00  0.00    -0.355 N 
HETATM   10  C   UNL     1     -40.112 -53.370  14.240  1.00  0.00     0.246 C 
HETATM   11  O   UNL     1     -39.284 -54.037  13.625  1.00  0.00    -0.271 OA
HETATM   12  H   UNL     1     -40.581 -51.584  15.103  1.00  0.00     0.162 HD
BRANCH  10  13
HETATM   13  C   UNL     1     -41.564 -53.826  14.483  1.00  0.00     0.209 C 
HETATM   14  C   UNL     1     -41.571 -54.951  15.516  1.00  0.00     0.049 C 
BRANCH  13  15
HETATM   15  O   UNL     1     -42.161 -54.230  13.242  1.00  0.00    -0.377 OA
BRANCH  15  16
HETATM   16  C   UNL     1     -43.268 -53.416  12.855  1.00  0.00     0.164 C 
HETATM   17  C   UNL     1     -44.545 -54.218  13.017  1.00  0.00     0.033 C 
ENDBRANCH  15  16
ENDBRANCH  13  15
ENDBRANCH  10  13
ENDBRANCH   8   9
ENDBRANCH   1   8
BRANCH   6  18
HETATM   18  N   UNL     1     -40.484 -48.060  11.813  1.00  0.00    -0.363 N 
HETATM   19  C   UNL     1     -41.445 -47.904  12.906  1.00  0.00     0.150 C 
HETATM   20  C   UNL     1     -42.720 -47.307  12.282  1.00  0.00     0.187 C 
HETATM   21  O   UNL     1     -42.452 -46.049  11.625  1.00  0.00    -0.388 OA
HETATM   22  C   UNL     1     -41.448 -46.204  10.603  1.00  0.00     0.187 C 
HETATM   23  C   UNL     1     -40.142 -46.787  11.173  1.00  0.00     0.150 C 
ENDBRANCH   6  18
TORSDOF 6
ENDMDL
MODEL 9
REMARK VINA RESULT:      -5.0      3.650      5.032
REMARK  6 active torsions:
REMARK  status: ('A' for Active; 'I' for Inactive)
REMARK    1  A    between atoms: C_2  and  O_3 
REMARK    2  A    between atoms: O_3  and  C_4 
REMARK    3  A    between atoms: C_4  and  C_6 
REMARK       I    between atoms: C_6  and  N_8 
REMARK    4  A    between atoms: N_8  and  C_9 
REMARK    5  A    between atoms: C_9  and  C_10 
REMARK    6  A    between atoms: C_15  and  N_17 
ROOT
HETATM    1  C   UNL     1     -41.709 -52.910  13.028  1.00  0.00    -0.036 A 
HETATM    2  C   UNL     1     -41.060 -53.959  13.671  1.00  0.00     0.026 A 
HETATM    3  C   UNL     1     -41.676 -54.534  14.767  1.00  0.00     0.090 A 
HETATM    4  N   UNL     1     -42.884 -54.154  15.249  1.00  0.00    -0.352 N 
ATOM      5  HN  UNL     1     -43.314 -54.639  16.036  1.00  0.00     0.166 HD
HETATM    6  C   UNL     1     -43.497 -53.114  14.652  1.00  0.00     0.103 A 
HETATM    7  C   UNL     1     -42.915 -52.459  13.565  1.00  0.00     0.057 A 
ENDROOT
BRANCH   1   8
HETATM    8  C   UNL     1     -41.186 -52.314  11.757  1.00  0.00     0.161 C 
BRANCH   8   9
HETATM    9  N   UNL     1     -40.038 -51.473  11.970  1.00  0.00    -0.355 N 
HETATM   10  C   UNL     1     -40.122 -50.127  11.670  1.00  0.00     0.246 C 
HETATM   11  O   UNL     1     -41.189 -49.581  11.397  1.00  0.00    -0.271 OA
HETATM   12  H   UNL     1     -39.106 -51.873  11.943  1.00  0.00     0.162 HD
BRANCH  10  13
HETATM   13  C   UNL     1     -38.783 -49.373  11.782  1.00  0.00     0.209 C 
HETATM   14  C   UNL     1     -37.641 -50.385  11.844  1.00  0.00     0.049 C 
BRANCH  13  15
HETATM   15  O   UNL     1     -38.804 -48.513  12.931  1.00  0.00    -0.377 OA
BRANCH  15  16
HETATM   16  C   UNL     1     -37.900 -48.919  13.958  1.00  0.00     0.164 C 
HETATM   17  C   UNL     1     -37.210 -47.690  14.517  1.00  0.00     0.033 C 
ENDBRANCH  15  16
ENDBRANCH  13  15
ENDBRANCH  10  13
ENDBRANCH   8   9
ENDBRANCH   1   8
BRANCH   6  18
HETATM   18  N   UNL     1     -44.782 -52.758  14.997  1.00  0.00    -0.363 N 
HETATM   19  C   UNL     1     -45.719 -52.376  13.941  1.00  0.00     0.150 C 
HETATM   20  C   UNL     1     -46.744 -51.427  14.590  1.00  0.00     0.187 C 
HETATM   21  O   UNL     1     -47.421 -52.054  15.700  1.00  0.00    -0.388 OA
HETATM   22  C   UNL     1     -46.478 -52.494  16.699  1.00  0.00     0.187 C 
HETATM   23  C   UNL     1     -45.434 -53.458  16.108  1.00  0.00     0.150 C 
ENDBRANCH   6  18
TORSDOF 6
ENDMDL
