MODEL 1
REMARK VINA RESULT:      -5.8      0.000      0.000
REMARK  6 active torsions:
REMARK  status: ('A' for Active; 'I' for Inactive)
REMARK    1  A    between atoms: O_1  and  C_2 
REMARK    2  A    between atoms: C_2  and  C_3 
REMARK    3  A    between atoms: C_3  and  C_4 
REMARK    4  A    between atoms: C_4  and  C_5 
REMARK    5  A    between atoms: C_5  and  N_6 
REMARK       I    between atoms: N_6  and  C_7 
REMARK       I    between atoms: C_7  and  N_9 
REMARK    6  A    between atoms: N_9  and  C_10 
ROOT
HETATM    1  N   UNL     1     -42.763 -51.285  12.334  1.00  0.00    -0.342 N 
HETATM    2  C   UNL     1     -42.487 -49.934  12.368  1.00  0.00     0.320 C 
HETATM    3  O   UNL     1     -42.826 -49.228  13.311  1.00  0.00    -0.247 OA
HETATM    4  N   UNL     1     -41.778 -49.521  11.261  1.00  0.00    -0.308 N 
HETATM    5  H   UNL     1     -42.955 -51.647  11.410  1.00  0.00     0.164 HD
HETATM    6  H   UNL     1     -41.258 -50.245  10.785  1.00  0.00     0.170 HD
ENDROOT
BRANCH   1   7
HETATM    7  C   UNL     1     -43.542 -51.825  13.436  1.00  0.00     0.134 C 
BRANCH   7   8
HETATM    8  C   UNL     1     -43.098 -53.228  13.915  1.00  0.00    -0.022 C 
HETATM    9  C   UNL     1     -43.703 -53.505  15.314  1.00  0.00     0.011 C 
HETATM   10  C   UNL     1     -45.028 -54.235  15.096  1.00  0.00     0.001 C 
HETATM   11  C   UNL     1     -45.151 -54.483  13.600  1.00  0.00     0.001 C 
HETATM   12  C   UNL     1     -43.735 -54.340  13.060  1.00  0.00     0.011 C 
BRANCH   8  13
HETATM   13  C   UNL     1     -41.558 -53.362  13.937  1.00  0.00     0.037 C 
BRANCH  13  14
HETATM   14  C   UNL     1     -40.976 -54.239  12.830  1.00  0.00     0.165 C 
BRANCH  14  15
HETATM   15  O   UNL     1     -40.603 -53.406  11.739  1.00  0.00    -0.401 OA
HETATM   16  H   UNL     1     -40.131 -53.971  11.102  1.00  0.00     0.209 HD
ENDBRANCH  14  15
ENDBRANCH  13  14
ENDBRANCH   8  13
ENDBRANCH   7   8
ENDBRANCH   1   7
BRANCH   4  17
HETATM   17  C   UNL     1     -41.417 -48.178  10.999  1.00  0.00     0.051 A 
HETATM   18  C   UNL     1     -40.269 -47.577  11.519  1.00  0.00     0.032 A 
HETATM   19  C   UNL     1     -39.944 -46.269  11.169  1.00  0.00     0.019 A 
HETATM   20  C   UNL     1     -40.796 -45.586  10.320  1.00  0.00     0.088 A 
HETATM   21  N   UNL     1     -41.940 -46.109   9.829  1.00  0.00    -0.373 N 
HETATM   22  C   UNL     1     -42.223 -47.387  10.184  1.00  0.00     0.117 A 
ATOM     23  HN  UNL     1     -42.559 -45.571   9.223  1.00  0.00     0.164 HD
ENDBRANCH   4  17
TORSDOF 6
ENDMDL
MODEL 2
REMARK VINA RESULT:      -5.8      1.870      2.504
REMARK  6 active torsions:
REMARK  status: ('A' for Active; 'I' for Inactive)
REMARK    1  A    between atoms: O_1  and  C_2 
REMARK    2  A    between atoms: C_2  and  C_3 
REMARK    3  A    between atoms: C_3  and  C_4 
REMARK    4  A    between atoms: C_4  and  C_5 
REMARK    5  A    between atoms: C_5  and  N_6 
REMARK       I    between atoms: N_6  and  C_7 
REMARK       I    between atoms: C_7  and  N_9 
REMARK    6  A    between atoms: N_9  and  C_10 
ROOT
HETATM    1  N   UNL     1     -43.998 -50.315  12.747  1.00  0.00    -0.342 N 
HETATM    2  C   UNL     1     -43.216 -49.180  12.713  1.00  0.00     0.320 C 
HETATM    3  O   UNL     1     -42.830 -48.629  13.737  1.00  0.00    -0.247 OA
HETATM    4  N   UNL     1     -42.914 -48.796  11.424  1.00  0.00    -0.308 N 
HETATM    5  H   UNL     1     -44.674 -50.377  11.999  1.00  0.00     0.164 HD
HETATM    6  H   UNL     1     -42.970 -49.528  10.730  1.00  0.00     0.170 HD
ENDROOT
BRANCH   1   7
HETATM    7  C   UNL     1     -44.410 -50.791  14.057  1.00  0.00     0.134 C 
BRANCH   7   8
HETATM    8  C   UNL     1     -45.441 -51.944  14.033  1.00  0.00    -0.022 C 
HETATM    9  C   UNL     1     -45.168 -52.899  15.220  1.00  0.00     0.011 C 
HETATM   10  C   UNL     1     -46.040 -52.432  16.385  1.00  0.00     0.001 C 
HETATM   11  C   UNL     1     -46.895 -51.289  15.861  1.00  0.00     0.001 C 
HETATM   12  C   UNL     1     -46.860 -51.433  14.346  1.00  0.00     0.011 C 
BRANCH   8  13
HETATM   13  C   UNL     1     -45.413 -52.705  12.686  1.00  0.00     0.037 C 
BRANCH  13  14
HETATM   14  C   UNL     1     -44.279 -53.720  12.549  1.00  0.00     0.165 C 
BRANCH  14  15
HETATM   15  O   UNL     1     -43.237 -53.135  11.777  1.00  0.00    -0.401 OA
HETATM   16  H   UNL     1     -42.400 -53.500  12.114  1.00  0.00     0.209 HD
ENDBRANCH  14  15
ENDBRANCH  13  14
ENDBRANCH   8  13
ENDBRANCH   7   8
ENDBRANCH   1   7
BRANCH   4  17
HETATM   17  C   UNL     1     -42.185 -47.631  11.088  1.00  0.00     0.051 A 
HETATM   18  C   UNL     1     -42.776 -46.376  10.932  1.00  0.00     0.032 A 
HETATM   19  C   UNL     1     -41.989 -45.259  10.660  1.00  0.00     0.019 A 
HETATM   20  C   UNL     1     -40.623 -45.437  10.528  1.00  0.00     0.088 A 
HETATM   21  N   UNL     1     -40.013 -46.637  10.624  1.00  0.00    -0.373 N 
HETATM   22  C   UNL     1     -40.808 -47.702  10.896  1.00  0.00     0.117 A 
ATOM     23  HN  UNL     1     -39.006 -46.738  10.499  1.00  0.00     0.164 HD
ENDBRANCH   4  17
TORSDOF 6
ENDMDL
MODEL 3
REMARK VINA RESULT:      -5.8      2.815      6.629
REMARK  6 active torsions:
REMARK  status: ('A' for Active; 'I' for Inactive)
REMARK    1  A    between atoms: O_1  and  C_2 
REMARK    2  A    between atoms: C_2  and  C_3 
REMARK    3  A    between atoms: C_3  and  C_4 
REMARK    4  A    between atoms: C_4  and  C_5 
REMARK    5  A    between atoms: C_5  and  N_6 
REMARK       I    between atoms: N_6  and  C_7 
REMARK       I    between atoms: C_7  and  N_9 
REMARK    6  A    between atoms: N_9  and  C_10 
ROOT
HETATM    1  N   UNL     1     -41.844 -51.238  11.853  1.00  0.00    -0.342 N 
HETATM    2  C   UNL     1     -42.658 -51.733  12.849  1.00  0.00     0.320 C 
HETATM    3  O   UNL     1     -42.201 -52.196  13.889  1.00  0.00    -0.247 OA
HETATM    4  N   UNL     1     -43.995 -51.602  12.541  1.00  0.00    -0.308 N 
HETATM    5  H   UNL     1     -42.193 -51.390  10.917  1.00  0.00     0.164 HD
HETATM    6  H   UNL     1     -44.215 -50.886  11.863  1.00  0.00     0.170 HD
ENDROOT
BRANCH   1   7
HETATM    7  C   UNL     1     -40.409 -51.358  12.055  1.00  0.00     0.134 C 
BRANCH   7   8
HETATM    8  C   UNL     1     -39.697 -50.038  12.435  1.00  0.00    -0.022 C 
HETATM    9  C   UNL     1     -39.053 -50.190  13.835  1.00  0.00     0.011 C 
HETATM   10  C   UNL     1     -37.612 -50.655  13.621  1.00  0.00     0.001 C 
HETATM   11  C   UNL     1     -37.376 -50.670  12.119  1.00  0.00     0.001 C 
HETATM   12  C   UNL     1     -38.470 -49.785  11.538  1.00  0.00     0.011 C 
BRANCH   8  13
HETATM   13  C   UNL     1     -40.668 -48.835  12.395  1.00  0.00     0.037 C 
BRANCH  13  14
HETATM   14  C   UNL     1     -40.628 -48.024  11.100  1.00  0.00     0.165 C 
BRANCH  14  15
HETATM   15  O   UNL     1     -41.446 -48.673  10.134  1.00  0.00    -0.401 OA
HETATM   16  H   UNL     1     -42.292 -48.874  10.572  1.00  0.00     0.209 HD
ENDBRANCH  14  15
ENDBRANCH  13  14
ENDBRANCH   8  13
ENDBRANCH   7   8
ENDBRANCH   1   7
BRANCH   4  17
HETATM   17  C   UNL     1     -45.052 -52.084  13.348  1.00  0.00     0.051 A 
HETATM   18  C   UNL     1     -45.740 -51.288  14.266  1.00  0.00     0.032 A 
HETATM   19  C   UNL     1     -46.812 -51.813  14.984  1.00  0.00     0.019 A 
HETATM   20  C   UNL     1     -47.153 -53.138  14.778  1.00  0.00     0.088 A 
HETATM   21  N   UNL     1     -46.489 -53.958  13.936  1.00  0.00    -0.373 N 
HETATM   22  C   UNL     1     -45.455 -53.413  13.247  1.00  0.00     0.117 A 
ATOM     23  HN  UNL     1     -46.752 -54.937  13.823  1.00  0.00     0.164 HD
ENDBRANCH   4  17
TORSDOF 6
ENDMDL
MODEL 4
REMARK VINA RESULT:      -5.7      2.555      6.629
REMARK  6 active torsions:
REMARK  status: ('A' for Active; 'I' for Inactive)
REMARK    1  A    between atoms: O_1  and  C_2 
REMARK    2  A    between atoms: C_2  and  C_3 
REMARK    3  A    between atoms: C_3  and  C_4 
REMARK    4  A    between atoms: C_4  and  C_5 
REMARK    5  A    between atoms: C_5  and  N_6 
REMARK       I    between atoms: N_6  and  C_7 
REMARK       I    between atoms: C_7  and  N_9 
REMARK    6  A    between atoms: N_9  and  C_10 
ROOT
HETATM    1  N   UNL     1     -40.753 -51.271  11.385  1.00  0.00    -0.342 N 
HETATM    2  C   UNL     1     -41.861 -51.621  12.126  1.00  0.00     0.320 C 
HETATM    3  O   UNL     1     -42.573 -50.780  12.663  1.00  0.00    -0.247 OA
HETATM    4  N   UNL     1     -42.065 -52.984  12.143  1.00  0.00    -0.308 N 
HETATM    5  H   UNL     1     -39.985 -51.925  11.450  1.00  0.00     0.164 HD
HETATM    6  H   UNL     1     -41.650 -53.494  11.376  1.00  0.00     0.170 HD
ENDROOT
BRANCH   1   7
HETATM    7  C   UNL     1     -40.419 -49.857  11.328  1.00  0.00     0.134 C 
BRANCH   7   8
HETATM    8  C   UNL     1     -39.137 -49.464  12.099  1.00  0.00    -0.022 C 
HETATM    9  C   UNL     1     -39.095 -47.925  12.268  1.00  0.00     0.011 C 
HETATM   10  C   UNL     1     -39.744 -47.601  13.613  1.00  0.00     0.001 C 
HETATM   11  C   UNL     1     -40.065 -48.931  14.277  1.00  0.00     0.001 C 
HETATM   12  C   UNL     1     -39.189 -49.950  13.560  1.00  0.00     0.011 C 
BRANCH   8  13
HETATM   13  C   UNL     1     -37.864 -49.982  11.390  1.00  0.00     0.037 C 
BRANCH  13  14
HETATM   14  C   UNL     1     -37.125 -51.094  12.134  1.00  0.00     0.165 C 
BRANCH  14  15
HETATM   15  O   UNL     1     -36.635 -52.029  11.180  1.00  0.00    -0.401 OA
HETATM   16  H   UNL     1     -35.690 -52.161  11.377  1.00  0.00     0.209 HD
ENDBRANCH  14  15
ENDBRANCH  13  14
ENDBRANCH   8  13
ENDBRANCH   7   8
ENDBRANCH   1   7
BRANCH   4  17
HETATM   17  C   UNL     1     -43.087 -53.629  12.880  1.00  0.00     0.051 A 
HETATM   18  C   UNL     1     -42.845 -54.367  14.040  1.00  0.00     0.032 A 
HETATM   19  C   UNL     1     -43.906 -54.925  14.749  1.00  0.00     0.019 A 
HETATM   20  C   UNL     1     -45.188 -54.747  14.259  1.00  0.00     0.088 A 
HETATM   21  N   UNL     1     -45.466 -54.082  13.118  1.00  0.00    -0.373 N 
HETATM   22  C   UNL     1     -44.411 -53.545  12.457  1.00  0.00     0.117 A 
ATOM     23  HN  UNL     1     -46.421 -53.987  12.772  1.00  0.00     0.164 HD
ENDBRANCH   4  17
TORSDOF 6
ENDMDL
MODEL 5
REMARK VINA RESULT:      -5.5      1.393      2.462
REMARK  6 active torsions:
REMARK  status: ('A' for Active; 'I' for Inactive)
REMARK    1  A    between atoms: O_1  and  C_2 
REMARK    2  A    between atoms: C_2  and  C_3 
REMARK    3  A    between atoms: C_3  and  C_4 
REMARK    4  A    between atoms: C_4  and  C_5 
REMARK    5  A    between atoms: C_5  and  N_6 
REMARK       I    between atoms: N_6  and  C_7 
REMARK       I    between atoms: C_7  and  N_9 
REMARK    6  A    between atoms: N_9  and  C_10 
ROOT
HETATM    1  N   UNL     1     -42.604 -51.455  12.491  1.00  0.00    -0.342 N 
HETATM    2  C   UNL     1     -42.338 -50.102  12.501  1.00  0.00     0.320 C 
HETATM    3  O   UNL     1     -42.520 -49.414  13.499  1.00  0.00    -0.247 OA
HETATM    4  N   UNL     1     -41.825 -49.664  11.299  1.00  0.00    -0.308 N 
HETATM    5  H   UNL     1     -42.944 -51.805  11.606  1.00  0.00     0.164 HD
HETATM    6  H   UNL     1     -41.386 -50.375  10.731  1.00  0.00     0.170 HD
ENDROOT
BRANCH   1   7
HETATM    7  C   UNL     1     -43.184 -52.020  13.698  1.00  0.00     0.134 C 
BRANCH   7   8
HETATM    8  C   UNL     1     -43.147 -53.565  13.771  1.00  0.00    -0.022 C 
HETATM    9  C   UNL     1     -41.818 -54.074  13.161  1.00  0.00     0.011 C 
HETATM   10  C   UNL     1     -40.817 -54.210  14.308  1.00  0.00     0.001 C 
HETATM   11  C   UNL     1     -41.573 -53.894  15.589  1.00  0.00     0.001 C 
HETATM   12  C   UNL     1     -43.044 -54.055  15.228  1.00  0.00     0.011 C 
BRANCH   8  13
HETATM   13  C   UNL     1     -44.366 -54.199  13.061  1.00  0.00     0.037 C 
BRANCH  13  14
HETATM   14  C   UNL     1     -45.704 -53.524  13.364  1.00  0.00     0.165 C 
BRANCH  14  15
HETATM   15  O   UNL     1     -46.276 -53.083  12.138  1.00  0.00    -0.401 OA
HETATM   16  H   UNL     1     -45.538 -52.797  11.571  1.00  0.00     0.209 HD
ENDBRANCH  14  15
ENDBRANCH  13  14
ENDBRANCH   8  13
ENDBRANCH   7   8
ENDBRANCH   1   7
BRANCH   4  17
HETATM   17  C   UNL     1     -41.525 -48.314  11.003  1.00  0.00     0.051 A 
HETATM   18  C   UNL     1     -40.367 -47.672  11.445  1.00  0.00     0.032 A 
HETATM   19  C   UNL     1     -40.105 -46.358  11.064  1.00  0.00     0.019 A 
HETATM   20  C   UNL     1     -41.030 -45.711  10.263  1.00  0.00     0.088 A 
HETATM   21  N   UNL     1     -42.184 -46.275   9.848  1.00  0.00    -0.373 N 
HETATM   22  C   UNL     1     -42.404 -47.558  10.232  1.00  0.00     0.117 A 
ATOM     23  HN  UNL     1     -42.856 -45.764   9.277  1.00  0.00     0.164 HD
ENDBRANCH   4  17
TORSDOF 6
ENDMDL
MODEL 6
REMARK VINA RESULT:      -5.5      2.236      7.107
REMARK  6 active torsions:
REMARK  status: ('A' for Active; 'I' for Inactive)
REMARK    1  A    between atoms: O_1  and  C_2 
REMARK    2  A    between atoms: C_2  and  C_3 
REMARK    3  A    between atoms: C_3  and  C_4 
REMARK    4  A    between atoms: C_4  and  C_5 
REMARK    5  A    between atoms: C_5  and  N_6 
REMARK       I    between atoms: N_6  and  C_7 
REMARK       I    between atoms: C_7  and  N_9 
REMARK    6  A    between atoms: N_9  and  C_10 
ROOT
HETATM    1  N   UNL     1     -41.247 -49.012  10.545  1.00  0.00    -0.342 N 
HETATM    2  C   UNL     1     -41.268 -49.825  11.658  1.00  0.00     0.320 C 
HETATM    3  O   UNL     1     -41.264 -49.366  12.795  1.00  0.00    -0.247 OA
HETATM    4  N   UNL     1     -41.329 -51.160  11.326  1.00  0.00    -0.308 N 
HETATM    5  H   UNL     1     -40.733 -49.392   9.762  1.00  0.00     0.164 HD
HETATM    6  H   UNL     1     -41.702 -51.361  10.408  1.00  0.00     0.170 HD
ENDROOT
BRANCH   1   7
HETATM    7  C   UNL     1     -41.145 -47.581  10.777  1.00  0.00     0.134 C 
BRANCH   7   8
HETATM    8  C   UNL     1     -42.496 -46.826  10.771  1.00  0.00    -0.022 C 
HETATM    9  C   UNL     1     -42.950 -46.580  12.230  1.00  0.00     0.011 C 
HETATM   10  C   UNL     1     -42.428 -45.203  12.639  1.00  0.00     0.001 C 
HETATM   11  C   UNL     1     -41.772 -44.599  11.408  1.00  0.00     0.001 C 
HETATM   12  C   UNL     1     -42.334 -45.391  10.234  1.00  0.00     0.011 C 
BRANCH   8  13
HETATM   13  C   UNL     1     -43.575 -47.595   9.972  1.00  0.00     0.037 C 
BRANCH  13  14
HETATM   14  C   UNL     1     -43.615 -47.274   8.479  1.00  0.00     0.165 C 
BRANCH  14  15
HETATM   15  O   UNL     1     -42.832 -48.238   7.786  1.00  0.00    -0.401 OA
HETATM   16  H   UNL     1     -42.876 -49.061   8.305  1.00  0.00     0.209 HD
ENDBRANCH  14  15
ENDBRANCH  13  14
ENDBRANCH   8  13
ENDBRANCH   7   8
ENDBRANCH   1   7
BRANCH   4  17
HETATM   17  C   UNL     1     -41.294 -52.220  12.263  1.00  0.00     0.051 A 
HETATM   18  C   UNL     1     -42.411 -52.992  12.588  1.00  0.00     0.032 A 
HETATM   19  C   UNL     1     -42.290 -54.060  13.475  1.00  0.00     0.019 A 
HETATM   20  C   UNL     1     -41.049 -54.312  14.033  1.00  0.00     0.088 A 
HETATM   21  N   UNL     1     -39.952 -53.565  13.784  1.00  0.00    -0.373 N 
HETATM   22  C   UNL     1     -40.103 -52.538  12.911  1.00  0.00     0.117 A 
ATOM     23  HN  UNL     1     -39.056 -53.763  14.228  1.00  0.00     0.164 HD
ENDBRANCH   4  17
TORSDOF 6
ENDMDL
MODEL 7
REMARK VINA RESULT:      -5.4      2.247      3.479
REMARK  6 active torsions:
REMARK  status: ('A' for Active; 'I' for Inactive)
REMARK    1  A    between atoms: O_1  and  C_2 
REMARK    2  A    between atoms: C_2  and  C_3 
REMARK    3  A    between atoms: C_3  and  C_4 
REMARK    4  A    between atoms: C_4  and  C_5 
REMARK    5  A    between atoms: C_5  and  N_6 
REMARK       I    between atoms: N_6  and  C_7 
REMARK       I    between atoms: C_7  and  N_9 
REMARK    6  A    between atoms: N_9  and  C_10 
ROOT
HETATM    1  N   UNL     1     -43.864 -50.648  12.882  1.00  0.00    -0.342 N 
HETATM    2  C   UNL     1     -43.211 -49.438  12.784  1.00  0.00     0.320 C 
HETATM    3  O   UNL     1     -42.918 -48.778  13.775  1.00  0.00    -0.247 OA
HETATM    4  N   UNL     1     -42.914 -49.111  11.479  1.00  0.00    -0.308 N 
HETATM    5  H   UNL     1     -44.507 -50.835  12.125  1.00  0.00     0.164 HD
HETATM    6  H   UNL     1     -42.869 -49.891  10.837  1.00  0.00     0.170 HD
ENDROOT
BRANCH   1   7
HETATM    7  C   UNL     1     -44.260 -51.076  14.213  1.00  0.00     0.134 C 
BRANCH   7   8
HETATM    8  C   UNL     1     -45.402 -52.119  14.244  1.00  0.00    -0.022 C 
HETATM    9  C   UNL     1     -45.529 -52.780  12.850  1.00  0.00     0.011 C 
HETATM   10  C   UNL     1     -44.666 -54.042  12.869  1.00  0.00     0.001 C 
HETATM   11  C   UNL     1     -44.128 -54.184  14.284  1.00  0.00     0.001 C 
HETATM   12  C   UNL     1     -45.042 -53.319  15.141  1.00  0.00     0.011 C 
BRANCH   8  13
HETATM   13  C   UNL     1     -46.742 -51.484  14.685  1.00  0.00     0.037 C 
BRANCH  13  14
HETATM   14  C   UNL     1     -46.868 -51.233  16.187  1.00  0.00     0.165 C 
BRANCH  14  15
HETATM   15  O   UNL     1     -48.183 -51.588  16.597  1.00  0.00    -0.401 OA
HETATM   16  H   UNL     1     -48.755 -51.497  15.815  1.00  0.00     0.209 HD
ENDBRANCH  14  15
ENDBRANCH  13  14
ENDBRANCH   8  13
ENDBRANCH   7   8
ENDBRANCH   1   7
BRANCH   4  17
HETATM   17  C   UNL     1     -42.307 -47.898  11.076  1.00  0.00     0.051 A 
HETATM   18  C   UNL     1     -43.028 -46.731  10.814  1.00  0.00     0.032 A 
HETATM   19  C   UNL     1     -42.359 -45.555  10.482  1.00  0.00     0.019 A 
HETATM   20  C   UNL     1     -40.978 -45.587  10.398  1.00  0.00     0.088 A 
HETATM   21  N   UNL     1     -40.243 -46.701  10.597  1.00  0.00    -0.373 N 
HETATM   22  C   UNL     1     -40.925 -47.827  10.926  1.00  0.00     0.117 A 
ATOM     23  HN  UNL     1     -39.227 -46.697  10.506  1.00  0.00     0.164 HD
ENDBRANCH   4  17
TORSDOF 6
ENDMDL
MODEL 8
REMARK VINA RESULT:      -5.4      2.424      7.211
REMARK  6 active torsions:
REMARK  status: ('A' for Active; 'I' for Inactive)
REMARK    1  A    between atoms: O_1  and  C_2 
REMARK    2  A    between atoms: C_2  and  C_3 
REMARK    3  A    between atoms: C_3  and  C_4 
REMARK    4  A    between atoms: C_4  and  C_5 
REMARK    5  A    between atoms: C_5  and  N_6 
REMARK       I    between atoms: N_6  and  C_7 
REMARK       I    between atoms: C_7  and  N_9 
REMARK    6  A    between atoms: N_9  and  C_10 
ROOT
HETATM    1  N   UNL     1     -43.587 -49.596  12.427  1.00  0.00    -0.342 N 
HETATM    2  C   UNL     1     -43.986 -50.624  13.255  1.00  0.00     0.320 C 
HETATM    3  O   UNL     1     -43.637 -50.682  14.429  1.00  0.00    -0.247 OA
HETATM    4  N   UNL     1     -44.822 -51.512  12.615  1.00  0.00    -0.308 N 
HETATM    5  H   UNL     1     -43.441 -49.870  11.465  1.00  0.00     0.164 HD
HETATM    6  H   UNL     1     -45.309 -51.145  11.810  1.00  0.00     0.170 HD
ENDROOT
BRANCH   1   7
HETATM    7  C   UNL     1     -42.670 -48.617  12.988  1.00  0.00     0.134 C 
BRANCH   7   8
HETATM    8  C   UNL     1     -41.882 -47.795  11.941  1.00  0.00    -0.022 C 
HETATM    9  C   UNL     1     -40.690 -47.092  12.636  1.00  0.00     0.011 C 
HETATM   10  C   UNL     1     -39.481 -48.017  12.504  1.00  0.00     0.001 C 
HETATM   11  C   UNL     1     -39.922 -49.196  11.650  1.00  0.00     0.001 C 
HETATM   12  C   UNL     1     -41.172 -48.713  10.927  1.00  0.00     0.011 C 
BRANCH   8  13
HETATM   13  C   UNL     1     -42.790 -46.773  11.219  1.00  0.00     0.037 C 
BRANCH  13  14
HETATM   14  C   UNL     1     -43.290 -47.219   9.845  1.00  0.00     0.165 C 
BRANCH  14  15
HETATM   15  O   UNL     1     -44.515 -47.922  10.016  1.00  0.00    -0.401 OA
HETATM   16  H   UNL     1     -45.017 -47.448  10.702  1.00  0.00     0.209 HD
ENDBRANCH  14  15
ENDBRANCH  13  14
ENDBRANCH   8  13
ENDBRANCH   7   8
ENDBRANCH   1   7
BRANCH   4  17
HETATM   17  C   UNL     1     -45.329 -52.697  13.200  1.00  0.00     0.051 A 
HETATM   18  C   UNL     1     -44.659 -53.921  13.156  1.00  0.00     0.032 A 
HETATM   19  C   UNL     1     -45.188 -55.032  13.808  1.00  0.00     0.019 A 
HETATM   20  C   UNL     1     -46.395 -54.892  14.470  1.00  0.00     0.088 A 
HETATM   21  N   UNL     1     -47.100 -53.742  14.502  1.00  0.00    -0.373 N 
HETATM   22  C   UNL     1     -46.554 -52.677  13.864  1.00  0.00     0.117 A 
ATOM     23  HN  UNL     1     -47.998 -53.677  14.981  1.00  0.00     0.164 HD
ENDBRANCH   4  17
TORSDOF 6
ENDMDL
MODEL 9
REMARK VINA RESULT:      -5.4      2.121      6.932
REMARK  6 active torsions:
REMARK  status: ('A' for Active; 'I' for Inactive)
REMARK    1  A    between atoms: O_1  and  C_2 
REMARK    2  A    between atoms: C_2  and  C_3 
REMARK    3  A    between atoms: C_3  and  C_4 
REMARK    4  A    between atoms: C_4  and  C_5 
REMARK    5  A    between atoms: C_5  and  N_6 
REMARK       I    between atoms: N_6  and  C_7 
REMARK       I    between atoms: C_7  and  N_9 
REMARK    6  A    between atoms: N_9  and  C_10 
ROOT
HETATM    1  N   UNL     1     -43.291 -49.692  12.331  1.00  0.00    -0.342 N 
HETATM    2  C   UNL     1     -43.665 -50.748  13.134  1.00  0.00     0.320 C 
HETATM    3  O   UNL     1     -43.120 -50.969  14.210  1.00  0.00    -0.247 OA
HETATM    4  N   UNL     1     -44.715 -51.462  12.598  1.00  0.00    -0.308 N 
HETATM    5  H   UNL     1     -43.360 -49.879  11.340  1.00  0.00     0.164 HD
HETATM    6  H   UNL     1     -45.287 -50.959  11.935  1.00  0.00     0.170 HD
ENDROOT
BRANCH   1   7
HETATM    7  C   UNL     1     -42.165 -48.890  12.780  1.00  0.00     0.134 C 
BRANCH   7   8
HETATM    8  C   UNL     1     -41.022 -48.743  11.749  1.00  0.00    -0.022 C 
HETATM    9  C   UNL     1     -41.545 -47.969  10.514  1.00  0.00     0.011 C 
HETATM   10  C   UNL     1     -41.238 -46.490  10.744  1.00  0.00     0.001 C 
HETATM   11  C   UNL     1     -40.448 -46.403  12.041  1.00  0.00     0.001 C 
HETATM   12  C   UNL     1     -39.913 -47.810  12.271  1.00  0.00     0.011 C 
BRANCH   8  13
HETATM   13  C   UNL     1     -40.441 -50.117  11.342  1.00  0.00     0.037 C 
BRANCH  13  14
HETATM   14  C   UNL     1     -39.558 -50.777  12.400  1.00  0.00     0.165 C 
BRANCH  14  15
HETATM   15  O   UNL     1     -38.331 -51.162  11.790  1.00  0.00    -0.401 OA
HETATM   16  H   UNL     1     -38.030 -51.966  12.250  1.00  0.00     0.209 HD
ENDBRANCH  14  15
ENDBRANCH  13  14
ENDBRANCH   8  13
ENDBRANCH   7   8
ENDBRANCH   1   7
BRANCH   4  17
HETATM   17  C   UNL     1     -45.260 -52.635  13.173  1.00  0.00     0.051 A 
HETATM   18  C   UNL     1     -44.644 -53.885  13.094  1.00  0.00     0.032 A 
HETATM   19  C   UNL     1     -45.207 -54.985  13.736  1.00  0.00     0.019 A 
HETATM   20  C   UNL     1     -46.393 -54.807  14.425  1.00  0.00     0.088 A 
HETATM   21  N   UNL     1     -47.049 -53.629  14.491  1.00  0.00    -0.373 N 
HETATM   22  C   UNL     1     -46.470 -52.576  13.861  1.00  0.00     0.117 A 
ATOM     23  HN  UNL     1     -47.934 -53.535  14.988  1.00  0.00     0.164 HD
ENDBRANCH   4  17
TORSDOF 6
ENDMDL
