MODEL 1
REMARK VINA RESULT:      -6.4      0.000      0.000
REMARK  5 active torsions:
REMARK  status: ('A' for Active; 'I' for Inactive)
REMARK    1  A    between atoms: C_2  and  N_3 
REMARK    2  A    between atoms: C_2  and  C_22 
REMARK       I    between atoms: N_6  and  C_9 
REMARK       I    between atoms: C_9  and  N_11 
REMARK    3  A    between atoms: N_11  and  C_12 
REMARK    4  A    between atoms: C_12  and  C_13 
REMARK    5  A    between atoms: C_13  and  C_14 
ROOT
HETATM    1  N   UNL     1     -40.609 -48.449  11.837  1.00  0.00    -0.398 N 
HETATM    2  C   UNL     1     -41.516 -48.664  12.975  1.00  0.00     0.137 C 
HETATM    3  C   UNL     1     -41.337 -49.965  13.829  1.00  0.00     0.147 C 
HETATM    4  N   UNL     1     -40.753 -51.087  13.081  1.00  0.00    -0.331 N 
HETATM    5  C   UNL     1     -39.611 -50.687  12.265  1.00  0.00     0.147 C 
HETATM    6  C   UNL     1     -40.083 -49.670  11.228  1.00  0.00     0.137 C 
HETATM    7  C   UNL     1     -41.252 -52.347  12.860  1.00  0.00     0.318 C 
HETATM    8  O   UNL     1     -40.694 -53.146  12.108  1.00  0.00    -0.247 OA
HETATM    9  N   UNL     1     -42.412 -52.703  13.492  1.00  0.00    -0.343 N 
HETATM   10  H   UNL     1     -42.753 -52.161  14.268  1.00  0.00     0.164 HD
ENDROOT
BRANCH   9  11
HETATM   11  C   UNL     1     -42.920 -54.053  13.282  1.00  0.00     0.129 C 
BRANCH  11  12
HETATM   12  C   UNL     1     -44.396 -54.145  12.888  1.00  0.00     0.060 C 
BRANCH  12  13
HETATM   13  C   UNL     1     -45.311 -53.365  13.794  1.00  0.00    -0.041 A 
HETATM   14  C   UNL     1     -45.919 -52.178  13.383  1.00  0.00     0.010 A 
HETATM   15  C   UNL     1     -46.726 -51.476  14.274  1.00  0.00     0.025 A 
HETATM   16  C   UNL     1     -46.911 -51.984  15.557  1.00  0.00     0.005 A 
HETATM   17  C   UNL     1     -47.722 -51.240  16.572  1.00  0.00     0.068 C 
HETATM   18  N   UNL     1     -46.349 -53.148  15.966  1.00  0.00    -0.369 N 
HETATM   19  C   UNL     1     -45.576 -53.807  15.085  1.00  0.00     0.095 A 
ATOM     20  HN  UNL     1     -46.506 -53.510  16.906  1.00  0.00     0.165 HD
ENDBRANCH  12  13
ENDBRANCH  11  12
ENDBRANCH   9  11
BRANCH   1  21
HETATM   21  C   UNL     1     -39.725 -47.261  11.798  1.00  0.00     0.183 C 
HETATM   22  C   UNL     1     -39.294 -46.763  13.181  1.00  0.00     0.041 C 
BRANCH  21  23
HETATM   23  C   UNL     1     -40.250 -46.081  10.921  1.00  0.00     0.406 C 
HETATM   24  F   UNL     1     -39.317 -45.649  10.041  1.00  0.00    -0.169 F 
HETATM   25  F   UNL     1     -41.325 -46.475  10.194  1.00  0.00    -0.169 F 
HETATM   26  F   UNL     1     -40.630 -45.012  11.656  1.00  0.00    -0.169 F 
ENDBRANCH  21  23
ENDBRANCH   1  21
TORSDOF 5
ENDMDL
MODEL 2
REMARK VINA RESULT:      -6.3      4.234      7.624
REMARK  5 active torsions:
REMARK  status: ('A' for Active; 'I' for Inactive)
REMARK    1  A    between atoms: C_2  and  N_3 
REMARK    2  A    between atoms: C_2  and  C_22 
REMARK       I    between atoms: N_6  and  C_9 
REMARK       I    between atoms: C_9  and  N_11 
REMARK    3  A    between atoms: N_11  and  C_12 
REMARK    4  A    between atoms: C_12  and  C_13 
REMARK    5  A    between atoms: C_13  and  C_14 
ROOT
HETATM    1  N   UNL     1     -44.515 -52.619  13.194  1.00  0.00    -0.398 N 
HETATM    2  C   UNL     1     -43.468 -53.483  12.628  1.00  0.00     0.137 C 
HETATM    3  C   UNL     1     -42.139 -53.665  13.438  1.00  0.00     0.147 C 
HETATM    4  N   UNL     1     -41.816 -52.525  14.307  1.00  0.00    -0.331 N 
HETATM    5  C   UNL     1     -42.971 -52.045  15.059  1.00  0.00     0.147 C 
HETATM    6  C   UNL     1     -44.028 -51.554  14.071  1.00  0.00     0.137 C 
HETATM    7  C   UNL     1     -40.697 -51.730  14.331  1.00  0.00     0.318 C 
HETATM    8  O   UNL     1     -40.621 -50.732  15.046  1.00  0.00    -0.247 OA
HETATM    9  N   UNL     1     -39.649 -52.066  13.518  1.00  0.00    -0.343 N 
HETATM   10  H   UNL     1     -39.601 -52.982  13.106  1.00  0.00     0.164 HD
ENDROOT
BRANCH   9  11
HETATM   11  C   UNL     1     -38.448 -51.240  13.571  1.00  0.00     0.129 C 
BRANCH  11  12
HETATM   12  C   UNL     1     -38.081 -50.532  12.266  1.00  0.00     0.060 C 
BRANCH  12  13
HETATM   13  C   UNL     1     -39.104 -49.522  11.819  1.00  0.00    -0.041 A 
HETATM   14  C   UNL     1     -39.076 -48.198  12.259  1.00  0.00     0.010 A 
HETATM   15  C   UNL     1     -40.069 -47.315  11.845  1.00  0.00     0.025 A 
HETATM   16  C   UNL     1     -41.067 -47.778  10.992  1.00  0.00     0.005 A 
HETATM   17  C   UNL     1     -42.190 -46.886  10.564  1.00  0.00     0.068 C 
HETATM   18  N   UNL     1     -41.098 -49.055  10.535  1.00  0.00    -0.369 N 
HETATM   19  C   UNL     1     -40.125 -49.885  10.949  1.00  0.00     0.095 A 
ATOM     20  HN  UNL     1     -41.831 -49.372   9.901  1.00  0.00     0.165 HD
ENDBRANCH  12  13
ENDBRANCH  11  12
ENDBRANCH   9  11
BRANCH   1  21
HETATM   21  C   UNL     1     -45.852 -53.171  13.510  1.00  0.00     0.183 C 
HETATM   22  C   UNL     1     -46.775 -52.186  14.233  1.00  0.00     0.041 C 
BRANCH  21  23
HETATM   23  C   UNL     1     -45.837 -54.553  14.236  1.00  0.00     0.406 C 
HETATM   24  F   UNL     1     -44.920 -54.594  15.230  1.00  0.00    -0.169 F 
HETATM   25  F   UNL     1     -47.044 -54.800  14.805  1.00  0.00    -0.169 F 
HETATM   26  F   UNL     1     -45.566 -55.580  13.401  1.00  0.00    -0.169 F 
ENDBRANCH  21  23
ENDBRANCH   1  21
TORSDOF 5
ENDMDL
MODEL 3
REMARK VINA RESULT:      -6.1      2.488      3.251
REMARK  5 active torsions:
REMARK  status: ('A' for Active; 'I' for Inactive)
REMARK    1  A    between atoms: C_2  and  N_3 
REMARK    2  A    between atoms: C_2  and  C_22 
REMARK       I    between atoms: N_6  and  C_9 
REMARK       I    between atoms: C_9  and  N_11 
REMARK    3  A    between atoms: N_11  and  C_12 
REMARK    4  A    between atoms: C_12  and  C_13 
REMARK    5  A    between atoms: C_13  and  C_14 
ROOT
HETATM    1  N   UNL     1     -42.034 -48.573  11.124  1.00  0.00    -0.398 N 
HETATM    2  C   UNL     1     -42.494 -48.801  12.502  1.00  0.00     0.137 C 
HETATM    3  C   UNL     1     -41.423 -49.147  13.593  1.00  0.00     0.147 C 
HETATM    4  N   UNL     1     -40.226 -49.809  13.056  1.00  0.00    -0.331 N 
HETATM    5  C   UNL     1     -39.729 -49.174  11.840  1.00  0.00     0.147 C 
HETATM    6  C   UNL     1     -40.805 -49.276  10.760  1.00  0.00     0.137 C 
HETATM    7  C   UNL     1     -39.677 -51.025  13.380  1.00  0.00     0.318 C 
HETATM    8  O   UNL     1     -38.729 -51.499  12.755  1.00  0.00    -0.247 OA
HETATM    9  N   UNL     1     -40.222 -51.721  14.423  1.00  0.00    -0.343 N 
HETATM   10  H   UNL     1     -40.834 -51.261  15.076  1.00  0.00     0.164 HD
ENDROOT
BRANCH   9  11
HETATM   11  C   UNL     1     -39.615 -52.997  14.787  1.00  0.00     0.129 C 
BRANCH  11  12
HETATM   12  C   UNL     1     -40.137 -54.214  14.022  1.00  0.00     0.060 C 
BRANCH  12  13
HETATM   13  C   UNL     1     -41.638 -54.328  14.024  1.00  0.00    -0.041 A 
HETATM   14  C   UNL     1     -42.413 -53.896  12.946  1.00  0.00     0.010 A 
HETATM   15  C   UNL     1     -43.799 -53.990  13.016  1.00  0.00     0.025 A 
HETATM   16  C   UNL     1     -44.380 -54.524  14.164  1.00  0.00     0.005 A 
HETATM   17  C   UNL     1     -45.868 -54.594  14.314  1.00  0.00     0.068 C 
HETATM   18  N   UNL     1     -43.643 -54.971  15.210  1.00  0.00    -0.369 N 
HETATM   19  C   UNL     1     -42.306 -54.870  15.116  1.00  0.00     0.095 A 
ATOM     20  HN  UNL     1     -44.087 -55.369  16.038  1.00  0.00     0.165 HD
ENDBRANCH  12  13
ENDBRANCH  11  12
ENDBRANCH   9  11
BRANCH   1  21
HETATM   21  C   UNL     1     -42.267 -47.269  10.463  1.00  0.00     0.183 C 
HETATM   22  C   UNL     1     -42.564 -46.124  11.436  1.00  0.00     0.041 C 
BRANCH  21  23
HETATM   23  C   UNL     1     -43.313 -47.297   9.304  1.00  0.00     0.406 C 
HETATM   24  F   UNL     1     -42.941 -48.130   8.305  1.00  0.00    -0.169 F 
HETATM   25  F   UNL     1     -44.511 -47.742   9.761  1.00  0.00    -0.169 F 
HETATM   26  F   UNL     1     -43.518 -46.080   8.753  1.00  0.00    -0.169 F 
ENDBRANCH  21  23
ENDBRANCH   1  21
TORSDOF 5
ENDMDL
MODEL 4
REMARK VINA RESULT:      -6.1      1.836      2.697
REMARK  5 active torsions:
REMARK  status: ('A' for Active; 'I' for Inactive)
REMARK    1  A    between atoms: C_2  and  N_3 
REMARK    2  A    between atoms: C_2  and  C_22 
REMARK       I    between atoms: N_6  and  C_9 
REMARK       I    between atoms: C_9  and  N_11 
REMARK    3  A    between atoms: N_11  and  C_12 
REMARK    4  A    between atoms: C_12  and  C_13 
REMARK    5  A    between atoms: C_13  and  C_14 
ROOT
HETATM    1  N   UNL     1     -40.092 -47.616  12.293  1.00  0.00    -0.398 N 
HETATM    2  C   UNL     1     -40.878 -48.105  13.437  1.00  0.00     0.137 C 
HETATM    3  C   UNL     1     -40.213 -49.148  14.400  1.00  0.00     0.147 C 
HETATM    4  N   UNL     1     -39.186 -49.977  13.754  1.00  0.00    -0.331 N 
HETATM    5  C   UNL     1     -38.278 -49.199  12.918  1.00  0.00     0.147 C 
HETATM    6  C   UNL     1     -39.083 -48.550  11.794  1.00  0.00     0.137 C 
HETATM    7  C   UNL     1     -39.109 -51.343  13.637  1.00  0.00     0.318 C 
HETATM    8  O   UNL     1     -38.238 -51.890  12.961  1.00  0.00    -0.247 OA
HETATM    9  N   UNL     1     -40.044 -52.101  14.286  1.00  0.00    -0.343 N 
HETATM   10  H   UNL     1     -40.611 -51.695  15.010  1.00  0.00     0.164 HD
ENDROOT
BRANCH   9  11
HETATM   11  C   UNL     1     -39.938 -53.552  14.187  1.00  0.00     0.129 C 
BRANCH  11  12
HETATM   12  C   UNL     1     -40.835 -54.204  13.134  1.00  0.00     0.060 C 
BRANCH  12  13
HETATM   13  C   UNL     1     -42.271 -53.759  13.205  1.00  0.00    -0.041 A 
HETATM   14  C   UNL     1     -43.174 -54.319  14.111  1.00  0.00     0.010 A 
HETATM   15  C   UNL     1     -44.500 -53.897  14.109  1.00  0.00     0.025 A 
HETATM   16  C   UNL     1     -44.891 -52.916  13.202  1.00  0.00     0.005 A 
HETATM   17  C   UNL     1     -46.317 -52.468  13.119  1.00  0.00     0.068 C 
HETATM   18  N   UNL     1     -44.024 -52.342  12.332  1.00  0.00    -0.369 N 
HETATM   19  C   UNL     1     -42.749 -52.768  12.357  1.00  0.00     0.095 A 
ATOM     20  HN  UNL     1     -44.328 -51.616  11.683  1.00  0.00     0.165 HD
ENDBRANCH  12  13
ENDBRANCH  11  12
ENDBRANCH   9  11
BRANCH   1  21
HETATM   21  C   UNL     1     -39.778 -46.175  12.161  1.00  0.00     0.183 C 
HETATM   22  C   UNL     1     -40.286 -45.321  13.327  1.00  0.00     0.041 C 
BRANCH  21  23
HETATM   23  C   UNL     1     -40.176 -45.539  10.792  1.00  0.00     0.406 C 
HETATM   24  F   UNL     1     -41.217 -46.183  10.217  1.00  0.00    -0.169 F 
HETATM   25  F   UNL     1     -40.559 -44.248  10.965  1.00  0.00    -0.169 F 
HETATM   26  F   UNL     1     -39.162 -45.543   9.899  1.00  0.00    -0.169 F 
ENDBRANCH  21  23
ENDBRANCH   1  21
TORSDOF 5
ENDMDL
MODEL 5
REMARK VINA RESULT:      -6.0      4.476      8.246
REMARK  5 active torsions:
REMARK  status: ('A' for Active; 'I' for Inactive)
REMARK    1  A    between atoms: C_2  and  N_3 
REMARK    2  A    between atoms: C_2  and  C_22 
REMARK       I    between atoms: N_6  and  C_9 
REMARK       I    between atoms: C_9  and  N_11 
REMARK    3  A    between atoms: N_11  and  C_12 
REMARK    4  A    between atoms: C_12  and  C_13 
REMARK    5  A    between atoms: C_13  and  C_14 
ROOT
HETATM    1  N   UNL     1     -43.696 -52.736  14.581  1.00  0.00    -0.398 N 
HETATM    2  C   UNL     1     -43.688 -51.856  13.403  1.00  0.00     0.137 C 
HETATM    3  C   UNL     1     -42.575 -52.075  12.322  1.00  0.00     0.147 C 
HETATM    4  N   UNL     1     -41.340 -52.664  12.857  1.00  0.00    -0.331 N 
HETATM    5  C   UNL     1     -41.594 -53.782  13.759  1.00  0.00     0.147 C 
HETATM    6  C   UNL     1     -42.389 -53.272  14.960  1.00  0.00     0.137 C 
HETATM    7  C   UNL     1     -40.054 -52.184  12.824  1.00  0.00     0.318 C 
HETATM    8  O   UNL     1     -39.135 -52.742  13.423  1.00  0.00    -0.247 OA
HETATM    9  N   UNL     1     -39.809 -51.044  12.110  1.00  0.00    -0.343 N 
HETATM   10  H   UNL     1     -40.483 -50.708  11.443  1.00  0.00     0.164 HD
ENDROOT
BRANCH   9  11
HETATM   11  C   UNL     1     -38.436 -50.556  12.048  1.00  0.00     0.129 C 
BRANCH  11  12
HETATM   12  C   UNL     1     -38.229 -49.118  12.528  1.00  0.00     0.060 C 
BRANCH  12  13
HETATM   13  C   UNL     1     -37.581 -49.023  13.883  1.00  0.00    -0.041 A 
HETATM   14  C   UNL     1     -37.287 -47.794  14.476  1.00  0.00     0.010 A 
HETATM   15  C   UNL     1     -36.652 -47.763  15.714  1.00  0.00     0.025 A 
HETATM   16  C   UNL     1     -36.332 -48.967  16.335  1.00  0.00     0.005 A 
HETATM   17  C   UNL     1     -35.597 -48.990  17.640  1.00  0.00     0.068 C 
HETATM   18  N   UNL     1     -36.631 -50.170  15.787  1.00  0.00    -0.369 N 
HETATM   19  C   UNL     1     -37.245 -50.171  14.591  1.00  0.00     0.095 A 
ATOM     20  HN  UNL     1     -36.398 -51.042  16.263  1.00  0.00     0.165 HD
ENDBRANCH  12  13
ENDBRANCH  11  12
ENDBRANCH   9  11
BRANCH   1  21
HETATM   21  C   UNL     1     -44.867 -53.598  14.864  1.00  0.00     0.183 C 
HETATM   22  C   UNL     1     -45.057 -53.917  16.350  1.00  0.00     0.041 C 
BRANCH  21  23
HETATM   23  C   UNL     1     -44.951 -54.897  14.002  1.00  0.00     0.406 C 
HETATM   24  F   UNL     1     -44.126 -55.865  14.462  1.00  0.00    -0.169 F 
HETATM   25  F   UNL     1     -46.209 -55.404  14.035  1.00  0.00    -0.169 F 
HETATM   26  F   UNL     1     -44.634 -54.685  12.706  1.00  0.00    -0.169 F 
ENDBRANCH  21  23
ENDBRANCH   1  21
TORSDOF 5
ENDMDL
MODEL 6
REMARK VINA RESULT:      -6.0      2.664      3.303
REMARK  5 active torsions:
REMARK  status: ('A' for Active; 'I' for Inactive)
REMARK    1  A    between atoms: C_2  and  N_3 
REMARK    2  A    between atoms: C_2  and  C_22 
REMARK       I    between atoms: N_6  and  C_9 
REMARK       I    between atoms: C_9  and  N_11 
REMARK    3  A    between atoms: N_11  and  C_12 
REMARK    4  A    between atoms: C_12  and  C_13 
REMARK    5  A    between atoms: C_13  and  C_14 
ROOT
HETATM    1  N   UNL     1     -39.563 -51.010  14.024  1.00  0.00    -0.398 N 
HETATM    2  C   UNL     1     -39.606 -52.440  13.683  1.00  0.00     0.137 C 
HETATM    3  C   UNL     1     -40.680 -52.923  12.649  1.00  0.00     0.147 C 
HETATM    4  N   UNL     1     -41.884 -52.081  12.611  1.00  0.00    -0.331 N 
HETATM    5  C   UNL     1     -41.574 -50.655  12.602  1.00  0.00     0.147 C 
HETATM    6  C   UNL     1     -40.839 -50.306  13.895  1.00  0.00     0.137 C 
HETATM    7  C   UNL     1     -43.198 -52.421  12.818  1.00  0.00     0.318 C 
HETATM    8  O   UNL     1     -44.090 -51.574  12.867  1.00  0.00    -0.247 OA
HETATM    9  N   UNL     1     -43.504 -53.743  12.986  1.00  0.00    -0.343 N 
HETATM   10  H   UNL     1     -42.841 -54.454  12.728  1.00  0.00     0.164 HD
ENDROOT
BRANCH   9  11
HETATM   11  C   UNL     1     -44.905 -54.104  13.171  1.00  0.00     0.129 C 
BRANCH  11  12
HETATM   12  C   UNL     1     -45.283 -54.565  14.580  1.00  0.00     0.060 C 
BRANCH  12  13
HETATM   13  C   UNL     1     -45.998 -53.514  15.386  1.00  0.00    -0.041 A 
HETATM   14  C   UNL     1     -46.735 -52.494  14.782  1.00  0.00     0.010 A 
HETATM   15  C   UNL     1     -47.345 -51.526  15.574  1.00  0.00     0.025 A 
HETATM   16  C   UNL     1     -47.208 -51.605  16.957  1.00  0.00     0.005 A 
HETATM   17  C   UNL     1     -47.795 -50.558  17.851  1.00  0.00     0.068 C 
HETATM   18  N   UNL     1     -46.517 -52.602  17.563  1.00  0.00    -0.369 N 
HETATM   19  C   UNL     1     -45.940 -53.525  16.774  1.00  0.00     0.095 A 
ATOM     20  HN  UNL     1     -46.439 -52.649  18.579  1.00  0.00     0.165 HD
ENDBRANCH  12  13
ENDBRANCH  11  12
ENDBRANCH   9  11
BRANCH   1  21
HETATM   21  C   UNL     1     -38.343 -50.213  13.758  1.00  0.00     0.183 C 
HETATM   22  C   UNL     1     -38.491 -48.724  14.086  1.00  0.00     0.041 C 
BRANCH  21  23
HETATM   23  C   UNL     1     -37.727 -50.409  12.337  1.00  0.00     0.406 C 
HETATM   24  F   UNL     1     -38.674 -50.657  11.403  1.00  0.00    -0.169 F 
HETATM   25  F   UNL     1     -37.074 -49.286  11.946  1.00  0.00    -0.169 F 
HETATM   26  F   UNL     1     -36.841 -51.429  12.287  1.00  0.00    -0.169 F 
ENDBRANCH  21  23
ENDBRANCH   1  21
TORSDOF 5
ENDMDL
MODEL 7
REMARK VINA RESULT:      -5.9      2.081      2.713
REMARK  5 active torsions:
REMARK  status: ('A' for Active; 'I' for Inactive)
REMARK    1  A    between atoms: C_2  and  N_3 
REMARK    2  A    between atoms: C_2  and  C_22 
REMARK       I    between atoms: N_6  and  C_9 
REMARK       I    between atoms: C_9  and  N_11 
REMARK    3  A    between atoms: N_11  and  C_12 
REMARK    4  A    between atoms: C_12  and  C_13 
REMARK    5  A    between atoms: C_13  and  C_14 
ROOT
HETATM    1  N   UNL     1     -40.332 -46.422  12.240  1.00  0.00    -0.398 N 
HETATM    2  C   UNL     1     -40.558 -47.239  11.037  1.00  0.00     0.137 C 
HETATM    3  C   UNL     1     -41.793 -48.203  11.018  1.00  0.00     0.147 C 
HETATM    4  N   UNL     1     -42.209 -48.657  12.353  1.00  0.00    -0.331 N 
HETATM    5  C   UNL     1     -42.249 -47.573  13.329  1.00  0.00     0.147 C 
HETATM    6  C   UNL     1     -40.842 -47.000  13.483  1.00  0.00     0.137 C 
HETATM    7  C   UNL     1     -42.324 -49.932  12.848  1.00  0.00     0.318 C 
HETATM    8  O   UNL     1     -42.575 -50.151  14.033  1.00  0.00    -0.247 OA
HETATM    9  N   UNL     1     -42.137 -50.979  11.988  1.00  0.00    -0.343 N 
HETATM   10  H   UNL     1     -42.157 -50.827  10.994  1.00  0.00     0.164 HD
ENDROOT
BRANCH   9  11
HETATM   11  C   UNL     1     -42.294 -52.332  12.510  1.00  0.00     0.129 C 
BRANCH  11  12
HETATM   12  C   UNL     1     -43.662 -52.972  12.271  1.00  0.00     0.060 C 
BRANCH  12  13
HETATM   13  C   UNL     1     -44.701 -52.569  13.283  1.00  0.00    -0.041 A 
HETATM   14  C   UNL     1     -45.778 -51.746  12.948  1.00  0.00     0.010 A 
HETATM   15  C   UNL     1     -46.688 -51.373  13.932  1.00  0.00     0.025 A 
HETATM   16  C   UNL     1     -46.504 -51.840  15.230  1.00  0.00     0.005 A 
HETATM   17  C   UNL     1     -47.421 -51.422  16.337  1.00  0.00     0.068 C 
HETATM   18  N   UNL     1     -45.479 -52.660  15.570  1.00  0.00    -0.369 N 
HETATM   19  C   UNL     1     -44.615 -53.006  14.599  1.00  0.00     0.095 A 
ATOM     20  HN  UNL     1     -45.368 -53.001  16.524  1.00  0.00     0.165 HD
ENDBRANCH  12  13
ENDBRANCH  11  12
ENDBRANCH   9  11
BRANCH   1  21
HETATM   21  C   UNL     1     -40.334 -44.944  12.152  1.00  0.00     0.183 C 
HETATM   22  C   UNL     1     -40.146 -44.407  10.730  1.00  0.00     0.041 C 
BRANCH  21  23
HETATM   23  C   UNL     1     -39.370 -44.225  13.148  1.00  0.00     0.406 C 
HETATM   24  F   UNL     1     -39.038 -42.984  12.726  1.00  0.00    -0.169 F 
HETATM   25  F   UNL     1     -39.965 -44.082  14.359  1.00  0.00    -0.169 F 
HETATM   26  F   UNL     1     -38.218 -44.903  13.342  1.00  0.00    -0.169 F 
ENDBRANCH  21  23
ENDBRANCH   1  21
TORSDOF 5
ENDMDL
MODEL 8
REMARK VINA RESULT:      -5.9      3.763      7.713
REMARK  5 active torsions:
REMARK  status: ('A' for Active; 'I' for Inactive)
REMARK    1  A    between atoms: C_2  and  N_3 
REMARK    2  A    between atoms: C_2  and  C_22 
REMARK       I    between atoms: N_6  and  C_9 
REMARK       I    between atoms: C_9  and  N_11 
REMARK    3  A    between atoms: N_11  and  C_12 
REMARK    4  A    between atoms: C_12  and  C_13 
REMARK    5  A    between atoms: C_13  and  C_14 
ROOT
HETATM    1  N   UNL     1     -44.044 -52.697  14.409  1.00  0.00    -0.398 N 
HETATM    2  C   UNL     1     -43.615 -52.082  13.143  1.00  0.00     0.137 C 
HETATM    3  C   UNL     1     -42.271 -52.569  12.502  1.00  0.00     0.147 C 
HETATM    4  N   UNL     1     -41.303 -53.087  13.479  1.00  0.00    -0.331 N 
HETATM    5  C   UNL     1     -41.914 -53.981  14.457  1.00  0.00     0.147 C 
HETATM    6  C   UNL     1     -42.959 -53.198  15.250  1.00  0.00     0.137 C 
HETATM    7  C   UNL     1     -40.018 -52.680  13.740  1.00  0.00     0.318 C 
HETATM    8  O   UNL     1     -39.367 -53.140  14.677  1.00  0.00    -0.247 OA
HETATM    9  N   UNL     1     -39.467 -51.725  12.931  1.00  0.00    -0.343 N 
HETATM   10  H   UNL     1     -39.888 -51.507  12.044  1.00  0.00     0.164 HD
ENDROOT
BRANCH   9  11
HETATM   11  C   UNL     1     -38.090 -51.320  13.190  1.00  0.00     0.129 C 
BRANCH  11  12
HETATM   12  C   UNL     1     -37.610 -50.092  12.413  1.00  0.00     0.060 C 
BRANCH  12  13
HETATM   13  C   UNL     1     -38.162 -48.794  12.937  1.00  0.00    -0.041 A 
HETATM   14  C   UNL     1     -39.237 -48.148  12.324  1.00  0.00     0.010 A 
HETATM   15  C   UNL     1     -39.684 -46.930  12.827  1.00  0.00     0.025 A 
HETATM   16  C   UNL     1     -39.047 -46.388  13.940  1.00  0.00     0.005 A 
HETATM   17  C   UNL     1     -39.449 -45.054  14.486  1.00  0.00     0.068 C 
HETATM   18  N   UNL     1     -38.017 -47.012  14.564  1.00  0.00    -0.369 N 
HETATM   19  C   UNL     1     -37.607 -48.189  14.058  1.00  0.00     0.095 A 
ATOM     20  HN  UNL     1     -37.570 -46.605  15.385  1.00  0.00     0.165 HD
ENDBRANCH  12  13
ENDBRANCH  11  12
ENDBRANCH   9  11
BRANCH   1  21
HETATM   21  C   UNL     1     -45.329 -53.429  14.487  1.00  0.00     0.183 C 
HETATM   22  C   UNL     1     -45.353 -54.729  13.678  1.00  0.00     0.041 C 
BRANCH  21  23
HETATM   23  C   UNL     1     -46.596 -52.567  14.189  1.00  0.00     0.406 C 
HETATM   24  F   UNL     1     -46.848 -52.477  12.863  1.00  0.00    -0.169 F 
HETATM   25  F   UNL     1     -47.693 -53.125  14.761  1.00  0.00    -0.169 F 
HETATM   26  F   UNL     1     -46.493 -51.305  14.662  1.00  0.00    -0.169 F 
ENDBRANCH  21  23
ENDBRANCH   1  21
TORSDOF 5
ENDMDL
MODEL 9
REMARK VINA RESULT:      -5.9      4.008      8.193
REMARK  5 active torsions:
REMARK  status: ('A' for Active; 'I' for Inactive)
REMARK    1  A    between atoms: C_2  and  N_3 
REMARK    2  A    between atoms: C_2  and  C_22 
REMARK       I    between atoms: N_6  and  C_9 
REMARK       I    between atoms: C_9  and  N_11 
REMARK    3  A    between atoms: N_11  and  C_12 
REMARK    4  A    between atoms: C_12  and  C_13 
REMARK    5  A    between atoms: C_13  and  C_14 
ROOT
HETATM    1  N   UNL     1     -43.067 -53.167  14.696  1.00  0.00    -0.398 N 
HETATM    2  C   UNL     1     -43.543 -51.883  14.158  1.00  0.00     0.137 C 
HETATM    3  C   UNL     1     -42.872 -51.334  12.853  1.00  0.00     0.147 C 
HETATM    4  N   UNL     1     -41.487 -51.788  12.664  1.00  0.00    -0.331 N 
HETATM    5  C   UNL     1     -41.321 -53.214  12.925  1.00  0.00     0.147 C 
HETATM    6  C   UNL     1     -41.675 -53.489  14.385  1.00  0.00     0.137 C 
HETATM    7  C   UNL     1     -40.335 -51.053  12.522  1.00  0.00     0.318 C 
HETATM    8  O   UNL     1     -39.225 -51.583  12.488  1.00  0.00    -0.247 OA
HETATM    9  N   UNL     1     -40.444 -49.693  12.430  1.00  0.00    -0.343 N 
HETATM   10  H   UNL     1     -41.334 -49.268  12.230  1.00  0.00     0.164 HD
ENDROOT
BRANCH   9  11
HETATM   11  C   UNL     1     -39.222 -48.919  12.244  1.00  0.00     0.129 C 
BRANCH  11  12
HETATM   12  C   UNL     1     -38.955 -47.850  13.305  1.00  0.00     0.060 C 
BRANCH  12  13
HETATM   13  C   UNL     1     -39.349 -46.463  12.876  1.00  0.00    -0.041 A 
HETATM   14  C   UNL     1     -39.002 -45.333  13.619  1.00  0.00     0.010 A 
HETATM   15  C   UNL     1     -39.425 -44.077  13.196  1.00  0.00     0.025 A 
HETATM   16  C   UNL     1     -40.182 -43.979  12.032  1.00  0.00     0.005 A 
HETATM   17  C   UNL     1     -40.711 -42.658  11.566  1.00  0.00     0.068 C 
HETATM   18  N   UNL     1     -40.509 -45.061  11.284  1.00  0.00    -0.369 N 
HETATM   19  C   UNL     1     -40.086 -46.263  11.714  1.00  0.00     0.095 A 
ATOM     20  HN  UNL     1     -41.055 -44.967  10.428  1.00  0.00     0.165 HD
ENDBRANCH  12  13
ENDBRANCH  11  12
ENDBRANCH   9  11
BRANCH   1  21
HETATM   21  C   UNL     1     -43.995 -54.314  14.825  1.00  0.00     0.183 C 
HETATM   22  C   UNL     1     -43.305 -55.630  15.197  1.00  0.00     0.041 C 
BRANCH  21  23
HETATM   23  C   UNL     1     -44.961 -54.517  13.615  1.00  0.00     0.406 C 
HETATM   24  F   UNL     1     -44.323 -54.383  12.429  1.00  0.00    -0.169 F 
HETATM   25  F   UNL     1     -45.490 -55.766  13.638  1.00  0.00    -0.169 F 
HETATM   26  F   UNL     1     -45.991 -53.642  13.616  1.00  0.00    -0.169 F 
ENDBRANCH  21  23
ENDBRANCH   1  21
TORSDOF 5
ENDMDL
