MODEL 1
REMARK VINA RESULT:      -5.7      0.000      0.000
REMARK  7 active torsions:
REMARK  status: ('A' for Active; 'I' for Inactive)
REMARK    1  A    between atoms: C_2  and  C_4 
REMARK    2  A    between atoms: C_7  and  O_8 
REMARK    3  A    between atoms: O_8  and  C_9 
REMARK    4  A    between atoms: C_9  and  C_10 
REMARK    5  A    between atoms: C_10  and  O_11 
REMARK    6  A    between atoms: C_10  and  C_12 
REMARK    7  A    between atoms: C_12  and  N_13 
ROOT
HETATM    1  C   UNL     1     -41.077 -51.189  11.786  1.00  0.00     0.161 C 
ENDROOT
BRANCH   1   2
HETATM    2  C   UNL     1     -40.500 -50.658  13.109  1.00  0.00     0.209 C 
BRANCH   2   3
HETATM    3  O   UNL     1     -41.469 -49.787  13.694  1.00  0.00    -0.349 OA
BRANCH   3   4
HETATM    4  C   UNL     1     -42.450 -50.326  14.466  1.00  0.00     0.068 A 
HETATM    5  C   UNL     1     -43.729 -50.189  13.925  1.00  0.00     0.037 A 
HETATM    6  C   UNL     1     -44.838 -50.754  14.552  1.00  0.00     0.018 A 
HETATM    7  C   UNL     1     -44.672 -51.490  15.728  1.00  0.00     0.009 A 
HETATM    8  C   UNL     1     -43.392 -51.602  16.290  1.00  0.00     0.018 A 
HETATM    9  C   UNL     1     -42.280 -51.018  15.663  1.00  0.00     0.037 A 
BRANCH   7  10
HETATM   10  C   UNL     1     -45.816 -52.192  16.378  1.00  0.00     0.155 C 
HETATM   11  C   UNL     1     -47.204 -51.958  15.841  1.00  0.00     0.096 C 
HETATM   12  O   UNL     1     -45.614 -52.958  17.317  1.00  0.00    -0.293 OA
ENDBRANCH   7  10
ENDBRANCH   3   4
ENDBRANCH   2   3
ENDBRANCH   1   2
BRANCH   1  13
HETATM   13  O   UNL     1     -40.497 -50.451  10.700  1.00  0.00    -0.392 OA
HETATM   14  H   UNL     1     -39.730 -50.957  10.362  1.00  0.00     0.210 HD
ENDBRANCH   1  13
BRANCH   1  15
HETATM   15  C   UNL     1     -40.829 -52.702  11.638  1.00  0.00     0.168 C 
BRANCH  15  16
HETATM   16  N   UNL     1     -41.192 -53.447  12.817  1.00  0.00    -0.295 N 
HETATM   17  C   UNL     1     -40.270 -53.913  13.781  1.00  0.00     0.329 A 
HETATM   18  O   UNL     1     -39.058 -53.754  13.753  1.00  0.00    -0.246 OA
HETATM   19  N   UNL     1     -41.029 -54.583  14.762  1.00  0.00    -0.302 N 
HETATM   20  C   UNL     1     -40.507 -55.195  15.948  1.00  0.00     0.161 C 
HETATM   21  C   UNL     1     -42.379 -54.559  14.386  1.00  0.00     0.065 A 
HETATM   22  C   UNL     1     -43.485 -55.089  15.014  1.00  0.00     0.032 A 
HETATM   23  C   UNL     1     -42.479 -53.864  13.178  1.00  0.00     0.066 A 
HETATM   24  C   UNL     1     -44.724 -54.906  14.388  1.00  0.00     0.002 A 
HETATM   25  C   UNL     1     -44.824 -54.208  13.167  1.00  0.00     0.002 A 
HETATM   26  C   UNL     1     -43.689 -53.675  12.546  1.00  0.00     0.032 A 
ENDBRANCH  15  16
ENDBRANCH   1  15
TORSDOF 7
ENDMDL
MODEL 2
REMARK VINA RESULT:      -5.6      4.109      6.488
REMARK  7 active torsions:
REMARK  status: ('A' for Active; 'I' for Inactive)
REMARK    1  A    between atoms: C_2  and  C_4 
REMARK    2  A    between atoms: C_7  and  O_8 
REMARK    3  A    between atoms: O_8  and  C_9 
REMARK    4  A    between atoms: C_9  and  C_10 
REMARK    5  A    between atoms: C_10  and  O_11 
REMARK    6  A    between atoms: C_10  and  C_12 
REMARK    7  A    between atoms: C_12  and  N_13 
ROOT
HETATM    1  C   UNL     1     -39.993 -49.462  11.549  1.00  0.00     0.161 C 
ENDROOT
BRANCH   1   2
HETATM    2  C   UNL     1     -39.505 -50.644  12.403  1.00  0.00     0.209 C 
BRANCH   2   3
HETATM    3  O   UNL     1     -40.026 -51.845  11.832  1.00  0.00    -0.349 OA
BRANCH   3   4
HETATM    4  C   UNL     1     -40.898 -52.591  12.562  1.00  0.00     0.068 A 
HETATM    5  C   UNL     1     -42.231 -52.427  12.183  1.00  0.00     0.037 A 
HETATM    6  C   UNL     1     -43.244 -53.176  12.779  1.00  0.00     0.018 A 
HETATM    7  C   UNL     1     -42.925 -54.124  13.754  1.00  0.00     0.009 A 
HETATM    8  C   UNL     1     -41.590 -54.268  14.158  1.00  0.00     0.018 A 
HETATM    9  C   UNL     1     -40.575 -53.501  13.566  1.00  0.00     0.037 A 
BRANCH   7  10
HETATM   10  C   UNL     1     -43.964 -55.015  14.347  1.00  0.00     0.155 C 
HETATM   11  C   UNL     1     -45.374 -54.926  13.822  1.00  0.00     0.096 C 
HETATM   12  O   UNL     1     -43.660 -55.813  15.230  1.00  0.00    -0.293 OA
ENDBRANCH   7  10
ENDBRANCH   3   4
ENDBRANCH   2   3
ENDBRANCH   1   2
BRANCH   1  13
HETATM   13  O   UNL     1     -40.413 -49.960  10.269  1.00  0.00    -0.392 OA
HETATM   14  H   UNL     1     -41.356 -49.729  10.147  1.00  0.00     0.210 HD
ENDBRANCH   1  13
BRANCH   1  15
HETATM   15  C   UNL     1     -41.125 -48.694  12.257  1.00  0.00     0.168 C 
BRANCH  15  16
HETATM   16  N   UNL     1     -41.390 -47.410  11.659  1.00  0.00    -0.295 N 
HETATM   17  C   UNL     1     -40.632 -46.243  11.909  1.00  0.00     0.329 A 
HETATM   18  O   UNL     1     -39.665 -46.159  12.652  1.00  0.00    -0.246 OA
HETATM   19  N   UNL     1     -41.215 -45.221  11.133  1.00  0.00    -0.302 N 
HETATM   20  C   UNL     1     -40.753 -43.867  11.054  1.00  0.00     0.161 C 
HETATM   21  C   UNL     1     -42.325 -45.742  10.455  1.00  0.00     0.065 A 
HETATM   22  C   UNL     1     -43.210 -45.127   9.596  1.00  0.00     0.032 A 
HETATM   23  C   UNL     1     -42.439 -47.094  10.787  1.00  0.00     0.066 A 
HETATM   24  C   UNL     1     -44.238 -45.916   9.066  1.00  0.00     0.002 A 
HETATM   25  C   UNL     1     -44.355 -47.280   9.405  1.00  0.00     0.002 A 
HETATM   26  C   UNL     1     -43.445 -47.886  10.278  1.00  0.00     0.032 A 
ENDBRANCH  15  16
ENDBRANCH   1  15
TORSDOF 7
ENDMDL
MODEL 3
REMARK VINA RESULT:      -5.6      2.311      4.720
REMARK  7 active torsions:
REMARK  status: ('A' for Active; 'I' for Inactive)
REMARK    1  A    between atoms: C_2  and  C_4 
REMARK    2  A    between atoms: C_7  and  O_8 
REMARK    3  A    between atoms: O_8  and  C_9 
REMARK    4  A    between atoms: C_9  and  C_10 
REMARK    5  A    between atoms: C_10  and  O_11 
REMARK    6  A    between atoms: C_10  and  C_12 
REMARK    7  A    between atoms: C_12  and  N_13 
ROOT
HETATM    1  C   UNL     1     -38.009 -51.281  13.957  1.00  0.00     0.161 C 
ENDROOT
BRANCH   1   2
HETATM    2  C   UNL     1     -38.891 -52.452  14.421  1.00  0.00     0.209 C 
BRANCH   2   3
HETATM    3  O   UNL     1     -39.345 -53.149  13.259  1.00  0.00    -0.349 OA
BRANCH   3   4
HETATM    4  C   UNL     1     -40.680 -53.351  13.099  1.00  0.00     0.068 A 
HETATM    5  C   UNL     1     -41.256 -54.121  14.111  1.00  0.00     0.037 A 
HETATM    6  C   UNL     1     -42.629 -54.357  14.139  1.00  0.00     0.018 A 
HETATM    7  C   UNL     1     -43.451 -53.800  13.157  1.00  0.00     0.009 A 
HETATM    8  C   UNL     1     -42.870 -53.052  12.122  1.00  0.00     0.018 A 
HETATM    9  C   UNL     1     -41.485 -52.829  12.089  1.00  0.00     0.037 A 
BRANCH   7  10
HETATM   10  C   UNL     1     -44.935 -53.946  13.203  1.00  0.00     0.155 C 
HETATM   11  C   UNL     1     -45.785 -52.708  13.078  1.00  0.00     0.096 C 
HETATM   12  O   UNL     1     -45.440 -55.060  13.321  1.00  0.00    -0.293 OA
ENDBRANCH   7  10
ENDBRANCH   3   4
ENDBRANCH   2   3
ENDBRANCH   1   2
BRANCH   1  13
HETATM   13  O   UNL     1     -37.816 -51.382  12.537  1.00  0.00    -0.392 OA
HETATM   14  H   UNL     1     -38.692 -51.321  12.105  1.00  0.00     0.210 HD
ENDBRANCH   1  13
BRANCH   1  15
HETATM   15  C   UNL     1     -38.632 -49.927  14.347  1.00  0.00     0.168 C 
BRANCH  15  16
HETATM   16  N   UNL     1     -39.826 -49.623  13.600  1.00  0.00    -0.295 N 
HETATM   17  C   UNL     1     -39.834 -48.999  12.332  1.00  0.00     0.329 A 
HETATM   18  O   UNL     1     -38.852 -48.635  11.702  1.00  0.00    -0.246 OA
HETATM   19  N   UNL     1     -41.189 -48.890  11.956  1.00  0.00    -0.302 N 
HETATM   20  C   UNL     1     -41.671 -48.340  10.723  1.00  0.00     0.161 C 
HETATM   21  C   UNL     1     -41.989 -49.401  12.986  1.00  0.00     0.065 A 
HETATM   22  C   UNL     1     -43.360 -49.497  13.081  1.00  0.00     0.032 A 
HETATM   23  C   UNL     1     -41.146 -49.847  14.007  1.00  0.00     0.066 A 
HETATM   24  C   UNL     1     -43.881 -50.060  14.252  1.00  0.00     0.002 A 
HETATM   25  C   UNL     1     -43.031 -50.506  15.284  1.00  0.00     0.002 A 
HETATM   26  C   UNL     1     -41.640 -50.401  15.168  1.00  0.00     0.032 A 
ENDBRANCH  15  16
ENDBRANCH   1  15
TORSDOF 7
ENDMDL
MODEL 4
REMARK VINA RESULT:      -5.6      2.878      4.895
REMARK  7 active torsions:
REMARK  status: ('A' for Active; 'I' for Inactive)
REMARK    1  A    between atoms: C_2  and  C_4 
REMARK    2  A    between atoms: C_7  and  O_8 
REMARK    3  A    between atoms: O_8  and  C_9 
REMARK    4  A    between atoms: C_9  and  C_10 
REMARK    5  A    between atoms: C_10  and  O_11 
REMARK    6  A    between atoms: C_10  and  C_12 
REMARK    7  A    between atoms: C_12  and  N_13 
ROOT
HETATM    1  C   UNL     1     -41.761 -52.288  12.233  1.00  0.00     0.161 C 
ENDROOT
BRANCH   1   2
HETATM    2  C   UNL     1     -40.656 -51.484  12.938  1.00  0.00     0.209 C 
BRANCH   2   3
HETATM    3  O   UNL     1     -41.241 -50.286  13.451  1.00  0.00    -0.349 OA
BRANCH   3   4
HETATM    4  C   UNL     1     -41.764 -49.388  12.574  1.00  0.00     0.068 A 
HETATM    5  C   UNL     1     -40.849 -48.930  11.626  1.00  0.00     0.037 A 
HETATM    6  C   UNL     1     -41.242 -48.065  10.607  1.00  0.00     0.018 A 
HETATM    7  C   UNL     1     -42.576 -47.663  10.513  1.00  0.00     0.009 A 
HETATM    8  C   UNL     1     -43.492 -48.097  11.483  1.00  0.00     0.018 A 
HETATM    9  C   UNL     1     -43.088 -48.957  12.515  1.00  0.00     0.037 A 
BRANCH   7  10
HETATM   10  C   UNL     1     -43.060 -46.817   9.383  1.00  0.00     0.155 C 
HETATM   11  C   UNL     1     -43.910 -47.458   8.316  1.00  0.00     0.096 C 
HETATM   12  O   UNL     1     -42.783 -45.621   9.348  1.00  0.00    -0.293 OA
ENDBRANCH   7  10
ENDBRANCH   3   4
ENDBRANCH   2   3
ENDBRANCH   1   2
BRANCH   1  13
HETATM   13  O   UNL     1     -41.252 -52.773  10.980  1.00  0.00    -0.392 OA
HETATM   14  H   UNL     1     -40.312 -53.014  11.106  1.00  0.00     0.210 HD
ENDBRANCH   1  13
BRANCH   1  15
HETATM   15  C   UNL     1     -42.265 -53.440  13.122  1.00  0.00     0.168 C 
BRANCH  15  16
HETATM   16  N   UNL     1     -43.097 -52.987  14.208  1.00  0.00    -0.295 N 
HETATM   17  C   UNL     1     -42.738 -53.061  15.572  1.00  0.00     0.329 A 
HETATM   18  O   UNL     1     -41.693 -53.512  16.017  1.00  0.00    -0.246 OA
HETATM   19  N   UNL     1     -43.818 -52.514  16.295  1.00  0.00    -0.302 N 
HETATM   20  C   UNL     1     -43.878 -52.361  17.719  1.00  0.00     0.161 C 
HETATM   21  C   UNL     1     -44.828 -52.150  15.395  1.00  0.00     0.065 A 
HETATM   22  C   UNL     1     -46.066 -51.592  15.628  1.00  0.00     0.032 A 
HETATM   23  C   UNL     1     -44.386 -52.450  14.104  1.00  0.00     0.066 A 
HETATM   24  C   UNL     1     -46.872 -51.337  14.512  1.00  0.00     0.002 A 
HETATM   25  C   UNL     1     -46.428 -51.644  13.210  1.00  0.00     0.002 A 
HETATM   26  C   UNL     1     -45.166 -52.209  12.994  1.00  0.00     0.032 A 
ENDBRANCH  15  16
ENDBRANCH   1  15
TORSDOF 7
ENDMDL
MODEL 5
REMARK VINA RESULT:      -5.5      3.206      5.502
REMARK  7 active torsions:
REMARK  status: ('A' for Active; 'I' for Inactive)
REMARK    1  A    between atoms: C_2  and  C_4 
REMARK    2  A    between atoms: C_7  and  O_8 
REMARK    3  A    between atoms: O_8  and  C_9 
REMARK    4  A    between atoms: C_9  and  C_10 
REMARK    5  A    between atoms: C_10  and  O_11 
REMARK    6  A    between atoms: C_10  and  C_12 
REMARK    7  A    between atoms: C_12  and  N_13 
ROOT
HETATM    1  C   UNL     1     -37.594 -50.828  12.870  1.00  0.00     0.161 C 
ENDROOT
BRANCH   1   2
HETATM    2  C   UNL     1     -38.812 -51.486  13.539  1.00  0.00     0.209 C 
BRANCH   2   3
HETATM    3  O   UNL     1     -39.467 -52.298  12.563  1.00  0.00    -0.349 OA
BRANCH   3   4
HETATM    4  C   UNL     1     -40.719 -52.757  12.829  1.00  0.00     0.068 A 
HETATM    5  C   UNL     1     -41.731 -52.010  12.226  1.00  0.00     0.037 A 
HETATM    6  C   UNL     1     -43.067 -52.391  12.335  1.00  0.00     0.018 A 
HETATM    7  C   UNL     1     -43.404 -53.551  13.036  1.00  0.00     0.009 A 
HETATM    8  C   UNL     1     -42.391 -54.287  13.668  1.00  0.00     0.018 A 
HETATM    9  C   UNL     1     -41.048 -53.890  13.569  1.00  0.00     0.037 A 
BRANCH   7  10
HETATM   10  C   UNL     1     -44.809 -54.049  13.095  1.00  0.00     0.155 C 
HETATM   11  C   UNL     1     -45.127 -55.199  14.016  1.00  0.00     0.096 C 
HETATM   12  O   UNL     1     -45.681 -53.511  12.418  1.00  0.00    -0.293 OA
ENDBRANCH   7  10
ENDBRANCH   3   4
ENDBRANCH   2   3
ENDBRANCH   1   2
BRANCH   1  13
HETATM   13  O   UNL     1     -36.826 -51.845  12.208  1.00  0.00    -0.392 OA
HETATM   14  H   UNL     1     -37.390 -52.639  12.112  1.00  0.00     0.210 HD
ENDBRANCH   1  13
BRANCH   1  15
HETATM   15  C   UNL     1     -38.027 -49.720  11.891  1.00  0.00     0.168 C 
BRANCH  15  16
HETATM   16  N   UNL     1     -38.853 -48.716  12.513  1.00  0.00    -0.295 N 
HETATM   17  C   UNL     1     -38.454 -47.927  13.616  1.00  0.00     0.329 A 
HETATM   18  O   UNL     1     -37.376 -47.984  14.187  1.00  0.00    -0.246 OA
HETATM   19  N   UNL     1     -39.542 -47.079  13.907  1.00  0.00    -0.302 N 
HETATM   20  C   UNL     1     -39.571 -46.084  14.939  1.00  0.00     0.161 C 
HETATM   21  C   UNL     1     -40.592 -47.369  13.027  1.00  0.00     0.065 A 
HETATM   22  C   UNL     1     -41.851 -46.815  12.934  1.00  0.00     0.032 A 
HETATM   23  C   UNL     1     -40.170 -48.388  12.170  1.00  0.00     0.066 A 
HETATM   24  C   UNL     1     -42.699 -47.319  11.940  1.00  0.00     0.002 A 
HETATM   25  C   UNL     1     -42.274 -48.351  11.078  1.00  0.00     0.002 A 
HETATM   26  C   UNL     1     -40.990 -48.899  11.188  1.00  0.00     0.032 A 
ENDBRANCH  15  16
ENDBRANCH   1  15
TORSDOF 7
ENDMDL
MODEL 6
REMARK VINA RESULT:      -5.4      3.140      5.209
REMARK  7 active torsions:
REMARK  status: ('A' for Active; 'I' for Inactive)
REMARK    1  A    between atoms: C_2  and  C_4 
REMARK    2  A    between atoms: C_7  and  O_8 
REMARK    3  A    between atoms: O_8  and  C_9 
REMARK    4  A    between atoms: C_9  and  C_10 
REMARK    5  A    between atoms: C_10  and  O_11 
REMARK    6  A    between atoms: C_10  and  C_12 
REMARK    7  A    between atoms: C_12  and  N_13 
ROOT
HETATM    1  C   UNL     1     -41.052 -50.689  12.168  1.00  0.00     0.161 C 
ENDROOT
BRANCH   1   2
HETATM    2  C   UNL     1     -39.852 -49.874  11.656  1.00  0.00     0.209 C 
BRANCH   2   3
HETATM    3  O   UNL     1     -39.608 -48.818  12.586  1.00  0.00    -0.349 OA
BRANCH   3   4
HETATM    4  C   UNL     1     -38.576 -48.945  13.463  1.00  0.00     0.068 A 
HETATM    5  C   UNL     1     -38.131 -47.731  13.986  1.00  0.00     0.037 A 
HETATM    6  C   UNL     1     -37.131 -47.691  14.957  1.00  0.00     0.018 A 
HETATM    7  C   UNL     1     -36.579 -48.881  15.436  1.00  0.00     0.009 A 
HETATM    8  C   UNL     1     -37.003 -50.101  14.889  1.00  0.00     0.018 A 
HETATM    9  C   UNL     1     -37.999 -50.136  13.901  1.00  0.00     0.037 A 
BRANCH   7  10
HETATM   10  C   UNL     1     -35.578 -48.889  16.542  1.00  0.00     0.155 C 
HETATM   11  C   UNL     1     -35.624 -50.012  17.546  1.00  0.00     0.096 C 
HETATM   12  O   UNL     1     -34.728 -48.005  16.609  1.00  0.00    -0.293 OA
ENDBRANCH   7  10
ENDBRANCH   3   4
ENDBRANCH   2   3
ENDBRANCH   1   2
BRANCH   1  13
HETATM   13  O   UNL     1     -42.259 -50.102  11.659  1.00  0.00    -0.392 OA
HETATM   14  H   UNL     1     -43.019 -50.562  12.071  1.00  0.00     0.210 HD
ENDBRANCH   1  13
BRANCH   1  15
HETATM   15  C   UNL     1     -40.930 -52.171  11.766  1.00  0.00     0.168 C 
BRANCH  15  16
HETATM   16  N   UNL     1     -41.229 -53.072  12.850  1.00  0.00    -0.295 N 
HETATM   17  C   UNL     1     -40.265 -53.595  13.741  1.00  0.00     0.329 A 
HETATM   18  O   UNL     1     -39.065 -53.363  13.719  1.00  0.00    -0.246 OA
HETATM   19  N   UNL     1     -40.968 -54.421  14.642  1.00  0.00    -0.302 N 
HETATM   20  C   UNL     1     -40.391 -55.139  15.740  1.00  0.00     0.161 C 
HETATM   21  C   UNL     1     -42.323 -54.431  14.286  1.00  0.00     0.065 A 
HETATM   22  C   UNL     1     -43.386 -55.097  14.857  1.00  0.00     0.032 A 
HETATM   23  C   UNL     1     -42.484 -53.604  13.172  1.00  0.00     0.066 A 
HETATM   24  C   UNL     1     -44.644 -54.913  14.271  1.00  0.00     0.002 A 
HETATM   25  C   UNL     1     -44.805 -54.081  13.144  1.00  0.00     0.002 A 
HETATM   26  C   UNL     1     -43.713 -53.412  12.580  1.00  0.00     0.032 A 
ENDBRANCH  15  16
ENDBRANCH   1  15
TORSDOF 7
ENDMDL
MODEL 7
REMARK VINA RESULT:      -5.4      4.115      6.957
REMARK  7 active torsions:
REMARK  status: ('A' for Active; 'I' for Inactive)
REMARK    1  A    between atoms: C_2  and  C_4 
REMARK    2  A    between atoms: C_7  and  O_8 
REMARK    3  A    between atoms: O_8  and  C_9 
REMARK    4  A    between atoms: C_9  and  C_10 
REMARK    5  A    between atoms: C_10  and  O_11 
REMARK    6  A    between atoms: C_10  and  C_12 
REMARK    7  A    between atoms: C_12  and  N_13 
ROOT
HETATM    1  C   UNL     1     -39.936 -49.527  11.608  1.00  0.00     0.161 C 
ENDROOT
BRANCH   1   2
HETATM    2  C   UNL     1     -39.420 -50.743  12.395  1.00  0.00     0.209 C 
BRANCH   2   3
HETATM    3  O   UNL     1     -40.003 -51.916  11.824  1.00  0.00    -0.349 OA
BRANCH   3   4
HETATM    4  C   UNL     1     -40.871 -52.645  12.575  1.00  0.00     0.068 A 
HETATM    5  C   UNL     1     -42.206 -52.491  12.197  1.00  0.00     0.037 A 
HETATM    6  C   UNL     1     -43.216 -53.227  12.814  1.00  0.00     0.018 A 
HETATM    7  C   UNL     1     -42.894 -54.150  13.810  1.00  0.00     0.009 A 
HETATM    8  C   UNL     1     -41.557 -54.283  14.214  1.00  0.00     0.018 A 
HETATM    9  C   UNL     1     -40.545 -53.530  13.600  1.00  0.00     0.037 A 
BRANCH   7  10
HETATM   10  C   UNL     1     -43.930 -55.027  14.428  1.00  0.00     0.155 C 
HETATM   11  C   UNL     1     -45.357 -54.895  13.962  1.00  0.00     0.096 C 
HETATM   12  O   UNL     1     -43.610 -55.850  15.283  1.00  0.00    -0.293 OA
ENDBRANCH   7  10
ENDBRANCH   3   4
ENDBRANCH   2   3
ENDBRANCH   1   2
BRANCH   1  13
HETATM   13  O   UNL     1     -40.454 -49.979  10.347  1.00  0.00    -0.392 OA
HETATM   14  H   UNL     1     -39.872 -49.638   9.638  1.00  0.00     0.210 HD
ENDBRANCH   1  13
BRANCH   1  15
HETATM   15  C   UNL     1     -40.998 -48.754  12.412  1.00  0.00     0.168 C 
BRANCH  15  16
HETATM   16  N   UNL     1     -41.297 -47.461  11.848  1.00  0.00    -0.295 N 
HETATM   17  C   UNL     1     -42.290 -47.230  10.869  1.00  0.00     0.329 A 
HETATM   18  O   UNL     1     -43.020 -48.073  10.371  1.00  0.00    -0.246 OA
HETATM   19  N   UNL     1     -42.259 -45.846  10.597  1.00  0.00    -0.302 N 
HETATM   20  C   UNL     1     -43.119 -45.157   9.681  1.00  0.00     0.161 C 
HETATM   21  C   UNL     1     -41.247 -45.255  11.364  1.00  0.00     0.065 A 
HETATM   22  C   UNL     1     -40.834 -43.942  11.429  1.00  0.00     0.032 A 
HETATM   23  C   UNL     1     -40.645 -46.256  12.131  1.00  0.00     0.066 A 
HETATM   24  C   UNL     1     -39.778 -43.646  12.299  1.00  0.00     0.002 A 
HETATM   25  C   UNL     1     -39.168 -44.657  13.070  1.00  0.00     0.002 A 
HETATM   26  C   UNL     1     -39.603 -45.985  12.991  1.00  0.00     0.032 A 
ENDBRANCH  15  16
ENDBRANCH   1  15
TORSDOF 7
ENDMDL
MODEL 8
REMARK VINA RESULT:      -5.4      3.583      5.450
REMARK  7 active torsions:
REMARK  status: ('A' for Active; 'I' for Inactive)
REMARK    1  A    between atoms: C_2  and  C_4 
REMARK    2  A    between atoms: C_7  and  O_8 
REMARK    3  A    between atoms: O_8  and  C_9 
REMARK    4  A    between atoms: C_9  and  C_10 
REMARK    5  A    between atoms: C_10  and  O_11 
REMARK    6  A    between atoms: C_10  and  C_12 
REMARK    7  A    between atoms: C_12  and  N_13 
ROOT
HETATM    1  C   UNL     1     -41.096 -50.639  12.174  1.00  0.00     0.161 C 
ENDROOT
BRANCH   1   2
HETATM    2  C   UNL     1     -39.849 -49.865  11.716  1.00  0.00     0.209 C 
BRANCH   2   3
HETATM    3  O   UNL     1     -39.446 -49.007  12.785  1.00  0.00    -0.349 OA
BRANCH   3   4
HETATM    4  C   UNL     1     -39.505 -47.661  12.599  1.00  0.00     0.068 A 
HETATM    5  C   UNL     1     -40.010 -47.288  11.353  1.00  0.00     0.037 A 
HETATM    6  C   UNL     1     -40.209 -45.947  11.032  1.00  0.00     0.018 A 
HETATM    7  C   UNL     1     -39.924 -44.956  11.974  1.00  0.00     0.009 A 
HETATM    8  C   UNL     1     -39.388 -45.327  13.216  1.00  0.00     0.018 A 
HETATM    9  C   UNL     1     -39.175 -46.679  13.530  1.00  0.00     0.037 A 
BRANCH   7  10
HETATM   10  C   UNL     1     -40.213 -43.517  11.708  1.00  0.00     0.155 C 
HETATM   11  C   UNL     1     -39.881 -42.507  12.776  1.00  0.00     0.096 C 
HETATM   12  O   UNL     1     -40.693 -43.175  10.630  1.00  0.00    -0.293 OA
ENDBRANCH   7  10
ENDBRANCH   3   4
ENDBRANCH   2   3
ENDBRANCH   1   2
BRANCH   1  13
HETATM   13  O   UNL     1     -42.262 -49.995  11.638  1.00  0.00    -0.392 OA
HETATM   14  H   UNL     1     -43.032 -50.580  11.794  1.00  0.00     0.210 HD
ENDBRANCH   1  13
BRANCH   1  15
HETATM   15  C   UNL     1     -41.021 -52.118  11.749  1.00  0.00     0.168 C 
BRANCH  15  16
HETATM   16  N   UNL     1     -41.223 -53.028  12.848  1.00  0.00    -0.295 N 
HETATM   17  C   UNL     1     -40.194 -53.489  13.700  1.00  0.00     0.329 A 
HETATM   18  O   UNL     1     -39.012 -53.188  13.628  1.00  0.00    -0.246 OA
HETATM   19  N   UNL     1     -40.810 -54.348  14.632  1.00  0.00    -0.302 N 
HETATM   20  C   UNL     1     -40.148 -55.025  15.708  1.00  0.00     0.161 C 
HETATM   21  C   UNL     1     -42.176 -54.439  14.332  1.00  0.00     0.065 A 
HETATM   22  C   UNL     1     -43.174 -55.162  14.949  1.00  0.00     0.032 A 
HETATM   23  C   UNL     1     -42.430 -53.629  13.223  1.00  0.00     0.066 A 
HETATM   24  C   UNL     1     -44.463 -55.055  14.415  1.00  0.00     0.002 A 
HETATM   25  C   UNL     1     -44.719 -54.241  13.292  1.00  0.00     0.002 A 
HETATM   26  C   UNL     1     -43.691 -53.513  12.681  1.00  0.00     0.032 A 
ENDBRANCH  15  16
ENDBRANCH   1  15
TORSDOF 7
ENDMDL
MODEL 9
REMARK VINA RESULT:      -5.3      1.758      3.952
REMARK  7 active torsions:
REMARK  status: ('A' for Active; 'I' for Inactive)
REMARK    1  A    between atoms: C_2  and  C_4 
REMARK    2  A    between atoms: C_7  and  O_8 
REMARK    3  A    between atoms: O_8  and  C_9 
REMARK    4  A    between atoms: C_9  and  C_10 
REMARK    5  A    between atoms: C_10  and  O_11 
REMARK    6  A    between atoms: C_10  and  C_12 
REMARK    7  A    between atoms: C_12  and  N_13 
ROOT
HETATM    1  C   UNL     1     -41.030 -51.008  12.038  1.00  0.00     0.161 C 
ENDROOT
BRANCH   1   2
HETATM    2  C   UNL     1     -41.569 -52.408  11.700  1.00  0.00     0.209 C 
BRANCH   2   3
HETATM    3  O   UNL     1     -40.671 -53.372  12.253  1.00  0.00    -0.349 OA
BRANCH   3   4
HETATM    4  C   UNL     1     -40.933 -53.872  13.491  1.00  0.00     0.068 A 
HETATM    5  C   UNL     1     -42.260 -54.262  13.670  1.00  0.00     0.037 A 
HETATM    6  C   UNL     1     -42.678 -54.866  14.854  1.00  0.00     0.018 A 
HETATM    7  C   UNL     1     -41.754 -55.110  15.873  1.00  0.00     0.009 A 
HETATM    8  C   UNL     1     -40.426 -54.691  15.707  1.00  0.00     0.018 A 
HETATM    9  C   UNL     1     -40.014 -54.069  14.519  1.00  0.00     0.037 A 
BRANCH   7  10
HETATM   10  C   UNL     1     -42.136 -55.841  17.116  1.00  0.00     0.155 C 
HETATM   11  C   UNL     1     -41.075 -56.626  17.844  1.00  0.00     0.096 C 
HETATM   12  O   UNL     1     -43.289 -55.780  17.536  1.00  0.00    -0.293 OA
ENDBRANCH   7  10
ENDBRANCH   3   4
ENDBRANCH   2   3
ENDBRANCH   1   2
BRANCH   1  13
HETATM   13  O   UNL     1     -40.458 -50.434  10.852  1.00  0.00    -0.392 OA
HETATM   14  H   UNL     1     -41.172 -49.983  10.357  1.00  0.00     0.210 HD
ENDBRANCH   1  13
BRANCH   1  15
HETATM   15  C   UNL     1     -42.137 -50.111  12.623  1.00  0.00     0.168 C 
BRANCH  15  16
HETATM   16  N   UNL     1     -42.693 -50.633  13.846  1.00  0.00    -0.295 N 
HETATM   17  C   UNL     1     -41.951 -50.847  15.030  1.00  0.00     0.329 A 
HETATM   18  O   UNL     1     -40.759 -50.626  15.182  1.00  0.00    -0.246 OA
HETATM   19  N   UNL     1     -42.861 -51.358  15.978  1.00  0.00    -0.302 N 
HETATM   20  C   UNL     1     -42.551 -51.695  17.336  1.00  0.00     0.161 C 
HETATM   21  C   UNL     1     -44.120 -51.486  15.376  1.00  0.00     0.065 A 
HETATM   22  C   UNL     1     -45.309 -51.949  15.896  1.00  0.00     0.032 A 
HETATM   23  C   UNL     1     -44.014 -51.047  14.054  1.00  0.00     0.066 A 
HETATM   24  C   UNL     1     -46.417 -51.964  15.040  1.00  0.00     0.002 A 
HETATM   25  C   UNL     1     -46.309 -51.524  13.705  1.00  0.00     0.002 A 
HETATM   26  C   UNL     1     -45.092 -51.056  13.196  1.00  0.00     0.032 A 
ENDBRANCH  15  16
ENDBRANCH   1  15
TORSDOF 7
ENDMDL
