MODEL 1
REMARK VINA RESULT:      -5.1      0.000      0.000
REMARK  4 active torsions:
REMARK  status: ('A' for Active; 'I' for Inactive)
REMARK    1  A    between atoms: O_2  and  C_3 
REMARK    2  A    between atoms: C_3  and  C_4 
REMARK    3  A    between atoms: C_4  and  N_5 
REMARK    4  A    between atoms: C_6  and  N_7 
ROOT
HETATM    1  N   UNL     1     -41.285 -53.340  13.071  1.00  0.00    -0.179 N 
HETATM    2  C   UNL     1     -41.619 -52.516  12.021  1.00  0.00     0.679 A 
HETATM    3  N   UNL     1     -42.904 -52.550  11.776  1.00  0.00    -0.190 N 
ATOM      4  HN  UNL     1     -43.405 -52.041  11.047  1.00  0.00     0.184 HD
HETATM    5  C   UNL     1     -43.437 -53.409  12.700  1.00  0.00     0.076 A 
HETATM    6  C   UNL     1     -44.767 -53.829  12.867  1.00  0.00     0.032 A 
HETATM    7  C   UNL     1     -45.064 -54.743  13.883  1.00  0.00     0.002 A 
HETATM    8  C   UNL     1     -44.064 -55.205  14.740  1.00  0.00     0.002 A 
HETATM    9  C   UNL     1     -42.740 -54.776  14.608  1.00  0.00     0.032 A 
HETATM   10  C   UNL     1     -42.453 -53.894  13.557  1.00  0.00     0.079 A 
ENDROOT
BRANCH   1  11
HETATM   11  C   UNL     1     -39.955 -53.666  13.539  1.00  0.00     0.174 C 
BRANCH  11  12
HETATM   12  C   UNL     1     -39.247 -52.470  14.172  1.00  0.00     0.187 C 
BRANCH  12  13
HETATM   13  O   UNL     1     -38.282 -51.949  13.254  1.00  0.00    -0.394 OA
HETATM   14  C   UNL     1     -37.824 -50.667  13.669  1.00  0.00     0.201 C 
ENDBRANCH  12  13
ENDBRANCH  11  12
ENDBRANCH   1  11
BRANCH   2  15
HETATM   15  N   UNL     1     -40.722 -51.787  11.336  1.00  0.00    -0.234 N 
HETATM   16  H   UNL     1     -39.824 -52.181  11.083  1.00  0.00     0.174 HD
HETATM   17  H   UNL     1     -40.635 -50.829  11.665  1.00  0.00     0.174 HD
ENDBRANCH   2  15
TORSDOF 4
ENDMDL
MODEL 2
REMARK VINA RESULT:      -4.8      2.385      2.902
REMARK  4 active torsions:
REMARK  status: ('A' for Active; 'I' for Inactive)
REMARK    1  A    between atoms: O_2  and  C_3 
REMARK    2  A    between atoms: C_3  and  C_4 
REMARK    3  A    between atoms: C_4  and  N_5 
REMARK    4  A    between atoms: C_6  and  N_7 
ROOT
HETATM    1  N   UNL     1     -42.601 -51.448  12.940  1.00  0.00    -0.179 N 
HETATM    2  C   UNL     1     -42.388 -52.465  12.038  1.00  0.00     0.679 A 
HETATM    3  N   UNL     1     -43.435 -53.244  11.939  1.00  0.00    -0.190 N 
ATOM      4  HN  UNL     1     -43.533 -54.071  11.350  1.00  0.00     0.184 HD
HETATM    5  C   UNL     1     -44.373 -52.717  12.787  1.00  0.00     0.076 A 
HETATM    6  C   UNL     1     -45.665 -53.178  13.089  1.00  0.00     0.032 A 
HETATM    7  C   UNL     1     -46.434 -52.472  14.018  1.00  0.00     0.002 A 
HETATM    8  C   UNL     1     -45.943 -51.308  14.613  1.00  0.00     0.002 A 
HETATM    9  C   UNL     1     -44.670 -50.818  14.305  1.00  0.00     0.032 A 
HETATM   10  C   UNL     1     -43.897 -51.563  13.404  1.00  0.00     0.079 A 
ENDROOT
BRANCH   1  11
HETATM   11  C   UNL     1     -41.634 -50.480  13.411  1.00  0.00     0.174 C 
BRANCH  11  12
HETATM   12  C   UNL     1     -41.570 -49.236  12.528  1.00  0.00     0.187 C 
BRANCH  12  13
HETATM   13  O   UNL     1     -40.767 -49.511  11.377  1.00  0.00    -0.394 OA
HETATM   14  C   UNL     1     -39.384 -49.526  11.714  1.00  0.00     0.201 C 
ENDBRANCH  12  13
ENDBRANCH  11  12
ENDBRANCH   1  11
BRANCH   2  15
HETATM   15  N   UNL     1     -41.238 -52.630  11.364  1.00  0.00    -0.234 N 
HETATM   16  H   UNL     1     -41.081 -53.462  10.809  1.00  0.00     0.174 HD
HETATM   17  H   UNL     1     -40.411 -52.367  11.894  1.00  0.00     0.174 HD
ENDBRANCH   2  15
TORSDOF 4
ENDMDL
MODEL 3
REMARK VINA RESULT:      -4.8      6.982      9.204
REMARK  4 active torsions:
REMARK  status: ('A' for Active; 'I' for Inactive)
REMARK    1  A    between atoms: O_2  and  C_3 
REMARK    2  A    between atoms: C_3  and  C_4 
REMARK    3  A    between atoms: C_4  and  N_5 
REMARK    4  A    between atoms: C_6  and  N_7 
ROOT
HETATM    1  N   UNL     1     -42.372 -46.875  10.604  1.00  0.00    -0.179 N 
HETATM    2  C   UNL     1     -41.255 -47.675  10.533  1.00  0.00     0.679 A 
HETATM    3  N   UNL     1     -40.157 -46.978  10.680  1.00  0.00    -0.190 N 
ATOM      4  HN  UNL     1     -39.199 -47.327  10.658  1.00  0.00     0.184 HD
HETATM    5  C   UNL     1     -40.561 -45.683  10.869  1.00  0.00     0.076 A 
HETATM    6  C   UNL     1     -39.789 -44.522  11.047  1.00  0.00     0.032 A 
HETATM    7  C   UNL     1     -40.440 -43.295  11.199  1.00  0.00     0.002 A 
HETATM    8  C   UNL     1     -41.835 -43.225  11.210  1.00  0.00     0.002 A 
HETATM    9  C   UNL     1     -42.620 -44.372  11.063  1.00  0.00     0.032 A 
HETATM   10  C   UNL     1     -41.950 -45.587  10.868  1.00  0.00     0.079 A 
ENDROOT
BRANCH   1  11
HETATM   11  C   UNL     1     -43.743 -47.264  10.354  1.00  0.00     0.174 C 
BRANCH  11  12
HETATM   12  C   UNL     1     -44.166 -47.030   8.906  1.00  0.00     0.187 C 
BRANCH  12  13
HETATM   13  O   UNL     1     -45.362 -46.246   8.881  1.00  0.00    -0.394 OA
HETATM   14  C   UNL     1     -46.510 -47.061   9.089  1.00  0.00     0.201 C 
ENDBRANCH  12  13
ENDBRANCH  11  12
ENDBRANCH   1  11
BRANCH   2  15
HETATM   15  N   UNL     1     -41.304 -49.001  10.324  1.00  0.00    -0.234 N 
HETATM   16  H   UNL     1     -41.864 -49.383   9.572  1.00  0.00     0.174 HD
HETATM   17  H   UNL     1     -41.392 -49.548  11.177  1.00  0.00     0.174 HD
ENDBRANCH   2  15
TORSDOF 4
ENDMDL
MODEL 4
REMARK VINA RESULT:      -4.8      2.567      4.599
REMARK  4 active torsions:
REMARK  status: ('A' for Active; 'I' for Inactive)
REMARK    1  A    between atoms: O_2  and  C_3 
REMARK    2  A    between atoms: C_3  and  C_4 
REMARK    3  A    between atoms: C_4  and  N_5 
REMARK    4  A    between atoms: C_6  and  N_7 
ROOT
HETATM    1  N   UNL     1     -42.442 -53.691  13.776  1.00  0.00    -0.179 N 
HETATM    2  C   UNL     1     -41.842 -53.260  12.616  1.00  0.00     0.679 A 
HETATM    3  N   UNL     1     -40.564 -53.539  12.605  1.00  0.00    -0.190 N 
ATOM      4  HN  UNL     1     -39.891 -53.319  11.870  1.00  0.00     0.184 HD
HETATM    5  C   UNL     1     -40.315 -54.188  13.786  1.00  0.00     0.076 A 
HETATM    6  C   UNL     1     -39.102 -54.680  14.297  1.00  0.00     0.032 A 
HETATM    7  C   UNL     1     -39.098 -55.293  15.553  1.00  0.00     0.002 A 
HETATM    8  C   UNL     1     -40.283 -55.446  16.276  1.00  0.00     0.002 A 
HETATM    9  C   UNL     1     -41.504 -54.987  15.772  1.00  0.00     0.032 A 
HETATM   10  C   UNL     1     -41.481 -54.337  14.530  1.00  0.00     0.079 A 
ENDROOT
BRANCH   1  11
HETATM   11  C   UNL     1     -43.802 -53.443  14.202  1.00  0.00     0.174 C 
BRANCH  11  12
HETATM   12  C   UNL     1     -44.804 -54.395  13.554  1.00  0.00     0.187 C 
BRANCH  12  13
HETATM   13  O   UNL     1     -45.341 -53.790  12.375  1.00  0.00    -0.394 OA
HETATM   14  C   UNL     1     -45.978 -52.555  12.682  1.00  0.00     0.201 C 
ENDBRANCH  12  13
ENDBRANCH  11  12
ENDBRANCH   1  11
BRANCH   2  15
HETATM   15  N   UNL     1     -42.500 -52.621  11.634  1.00  0.00    -0.234 N 
HETATM   16  H   UNL     1     -42.264 -51.666  11.393  1.00  0.00     0.174 HD
HETATM   17  H   UNL     1     -43.506 -52.769  11.650  1.00  0.00     0.174 HD
ENDBRANCH   2  15
TORSDOF 4
ENDMDL
MODEL 5
REMARK VINA RESULT:      -4.7      3.085      5.037
REMARK  4 active torsions:
REMARK  status: ('A' for Active; 'I' for Inactive)
REMARK    1  A    between atoms: O_2  and  C_3 
REMARK    2  A    between atoms: C_3  and  C_4 
REMARK    3  A    between atoms: C_4  and  N_5 
REMARK    4  A    between atoms: C_6  and  N_7 
ROOT
HETATM    1  N   UNL     1     -44.753 -53.947  13.597  1.00  0.00    -0.179 N 
HETATM    2  C   UNL     1     -44.880 -53.056  12.556  1.00  0.00     0.679 A 
HETATM    3  N   UNL     1     -43.716 -52.593  12.179  1.00  0.00    -0.190 N 
ATOM      4  HN  UNL     1     -43.534 -51.915  11.438  1.00  0.00     0.184 HD
HETATM    5  C   UNL     1     -42.792 -53.207  12.983  1.00  0.00     0.076 A 
HETATM    6  C   UNL     1     -41.396 -53.050  13.023  1.00  0.00     0.032 A 
HETATM    7  C   UNL     1     -40.661 -53.780  13.961  1.00  0.00     0.002 A 
HETATM    8  C   UNL     1     -41.296 -54.678  14.821  1.00  0.00     0.002 A 
HETATM    9  C   UNL     1     -42.680 -54.869  14.778  1.00  0.00     0.032 A 
HETATM   10  C   UNL     1     -43.406 -54.096  13.860  1.00  0.00     0.079 A 
ENDROOT
BRANCH   1  11
HETATM   11  C   UNL     1     -45.820 -54.556  14.362  1.00  0.00     0.174 C 
BRANCH  11  12
HETATM   12  C   UNL     1     -46.298 -53.672  15.511  1.00  0.00     0.187 C 
BRANCH  12  13
HETATM   13  O   UNL     1     -47.264 -52.738  15.022  1.00  0.00    -0.394 OA
HETATM   14  C   UNL     1     -46.894 -51.403  15.351  1.00  0.00     0.201 C 
ENDBRANCH  12  13
ENDBRANCH  11  12
ENDBRANCH   1  11
BRANCH   2  15
HETATM   15  N   UNL     1     -46.060 -52.708  12.018  1.00  0.00    -0.234 N 
HETATM   16  H   UNL     1     -46.507 -53.301  11.329  1.00  0.00     0.174 HD
HETATM   17  H   UNL     1     -46.123 -51.724  11.768  1.00  0.00     0.174 HD
ENDBRANCH   2  15
TORSDOF 4
ENDMDL
MODEL 6
REMARK VINA RESULT:      -4.6      5.402      6.987
REMARK  4 active torsions:
REMARK  status: ('A' for Active; 'I' for Inactive)
REMARK    1  A    between atoms: O_2  and  C_3 
REMARK    2  A    between atoms: C_3  and  C_4 
REMARK    3  A    between atoms: C_4  and  N_5 
REMARK    4  A    between atoms: C_6  and  N_7 
ROOT
HETATM    1  N   UNL     1     -40.601 -47.739  11.423  1.00  0.00    -0.179 N 
HETATM    2  C   UNL     1     -41.129 -48.661  10.549  1.00  0.00     0.679 A 
HETATM    3  N   UNL     1     -40.524 -49.817  10.651  1.00  0.00    -0.190 N 
ATOM      4  HN  UNL     1     -40.716 -50.662  10.111  1.00  0.00     0.184 HD
HETATM    5  C   UNL     1     -39.581 -49.658  11.631  1.00  0.00     0.076 A 
HETATM    6  C   UNL     1     -38.635 -50.577  12.119  1.00  0.00     0.032 A 
HETATM    7  C   UNL     1     -37.751 -50.167  13.122  1.00  0.00     0.002 A 
HETATM    8  C   UNL     1     -37.827 -48.879  13.656  1.00  0.00     0.002 A 
HETATM    9  C   UNL     1     -38.779 -47.961  13.203  1.00  0.00     0.032 A 
HETATM   10  C   UNL     1     -39.628 -48.375  12.168  1.00  0.00     0.079 A 
ENDROOT
BRANCH   1  11
HETATM   11  C   UNL     1     -40.918 -46.329  11.503  1.00  0.00     0.174 C 
BRANCH  11  12
HETATM   12  C   UNL     1     -40.030 -45.475  10.601  1.00  0.00     0.187 C 
BRANCH  12  13
HETATM   13  O   UNL     1     -40.709 -44.258  10.281  1.00  0.00    -0.394 OA
HETATM   14  C   UNL     1     -40.470 -43.266  11.273  1.00  0.00     0.201 C 
ENDBRANCH  12  13
ENDBRANCH  11  12
ENDBRANCH   1  11
BRANCH   2  15
HETATM   15  N   UNL     1     -42.129 -48.387   9.695  1.00  0.00    -0.234 N 
HETATM   16  H   UNL     1     -42.605 -47.494   9.731  1.00  0.00     0.174 HD
HETATM   17  H   UNL     1     -42.779 -49.157   9.563  1.00  0.00     0.174 HD
ENDBRANCH   2  15
TORSDOF 4
ENDMDL
MODEL 7
REMARK VINA RESULT:      -4.6      2.911      3.631
REMARK  4 active torsions:
REMARK  status: ('A' for Active; 'I' for Inactive)
REMARK    1  A    between atoms: O_2  and  C_3 
REMARK    2  A    between atoms: C_3  and  C_4 
REMARK    3  A    between atoms: C_4  and  N_5 
REMARK    4  A    between atoms: C_6  and  N_7 
ROOT
HETATM    1  N   UNL     1     -42.747 -51.433  12.766  1.00  0.00    -0.179 N 
HETATM    2  C   UNL     1     -42.372 -52.541  12.042  1.00  0.00     0.679 A 
HETATM    3  N   UNL     1     -43.284 -53.479  12.095  1.00  0.00    -0.190 N 
ATOM      4  HN  UNL     1     -43.248 -54.399  11.655  1.00  0.00     0.184 HD
HETATM    5  C   UNL     1     -44.297 -52.969  12.864  1.00  0.00     0.076 A 
HETATM    6  C   UNL     1     -45.504 -53.568  13.264  1.00  0.00     0.032 A 
HETATM    7  C   UNL     1     -46.379 -52.843  14.079  1.00  0.00     0.002 A 
HETATM    8  C   UNL     1     -46.079 -51.535  14.461  1.00  0.00     0.002 A 
HETATM    9  C   UNL     1     -44.897 -50.912  14.050  1.00  0.00     0.032 A 
HETATM   10  C   UNL     1     -44.011 -51.669  13.269  1.00  0.00     0.079 A 
ENDROOT
BRANCH   1  11
HETATM   11  C   UNL     1     -41.946 -50.262  13.049  1.00  0.00     0.174 C 
BRANCH  11  12
HETATM   12  C   UNL     1     -41.992 -49.232  11.922  1.00  0.00     0.187 C 
BRANCH  12  13
HETATM   13  O   UNL     1     -43.276 -48.603  11.906  1.00  0.00    -0.394 OA
HETATM   14  C   UNL     1     -43.308 -47.538  10.962  1.00  0.00     0.201 C 
ENDBRANCH  12  13
ENDBRANCH  11  12
ENDBRANCH   1  11
BRANCH   2  15
HETATM   15  N   UNL     1     -41.206 -52.637  11.382  1.00  0.00    -0.234 N 
HETATM   16  H   UNL     1     -40.337 -52.758  11.887  1.00  0.00     0.174 HD
HETATM   17  H   UNL     1     -41.111 -51.971  10.619  1.00  0.00     0.174 HD
ENDBRANCH   2  15
TORSDOF 4
ENDMDL
MODEL 8
REMARK VINA RESULT:      -4.6      2.605      3.835
REMARK  4 active torsions:
REMARK  status: ('A' for Active; 'I' for Inactive)
REMARK    1  A    between atoms: O_2  and  C_3 
REMARK    2  A    between atoms: C_3  and  C_4 
REMARK    3  A    between atoms: C_4  and  N_5 
REMARK    4  A    between atoms: C_6  and  N_7 
ROOT
HETATM    1  N   UNL     1     -39.440 -50.691  12.333  1.00  0.00    -0.179 N 
HETATM    2  C   UNL     1     -40.372 -50.754  11.323  1.00  0.00     0.679 A 
HETATM    3  N   UNL     1     -41.100 -51.838  11.411  1.00  0.00    -0.190 N 
ATOM      4  HN  UNL     1     -41.850 -52.128  10.783  1.00  0.00     0.184 HD
HETATM    5  C   UNL     1     -40.646 -52.502  12.520  1.00  0.00     0.076 A 
HETATM    6  C   UNL     1     -41.058 -53.734  13.056  1.00  0.00     0.032 A 
HETATM    7  C   UNL     1     -40.419 -54.221  14.199  1.00  0.00     0.002 A 
HETATM    8  C   UNL     1     -39.411 -53.481  14.822  1.00  0.00     0.002 A 
HETATM    9  C   UNL     1     -39.007 -52.241  14.320  1.00  0.00     0.032 A 
HETATM   10  C   UNL     1     -39.629 -51.789  13.148  1.00  0.00     0.079 A 
ENDROOT
BRANCH   1  11
HETATM   11  C   UNL     1     -38.379 -49.718  12.484  1.00  0.00     0.174 C 
BRANCH  11  12
HETATM   12  C   UNL     1     -38.822 -48.481  13.262  1.00  0.00     0.187 C 
BRANCH  12  13
HETATM   13  O   UNL     1     -39.450 -47.558  12.369  1.00  0.00    -0.394 OA
HETATM   14  C   UNL     1     -40.717 -47.148  12.869  1.00  0.00     0.201 C 
ENDBRANCH  12  13
ENDBRANCH  11  12
ENDBRANCH   1  11
BRANCH   2  15
HETATM   15  N   UNL     1     -40.494 -49.819  10.367  1.00  0.00    -0.234 N 
HETATM   16  H   UNL     1     -41.297 -49.815   9.750  1.00  0.00     0.174 HD
HETATM   17  H   UNL     1     -39.630 -49.630   9.864  1.00  0.00     0.174 HD
ENDBRANCH   2  15
TORSDOF 4
ENDMDL
MODEL 9
REMARK VINA RESULT:      -4.4      2.314      2.933
REMARK  4 active torsions:
REMARK  status: ('A' for Active; 'I' for Inactive)
REMARK    1  A    between atoms: O_2  and  C_3 
REMARK    2  A    between atoms: C_3  and  C_4 
REMARK    3  A    between atoms: C_4  and  N_5 
REMARK    4  A    between atoms: C_6  and  N_7 
ROOT
HETATM    1  N   UNL     1     -43.524 -53.327  13.796  1.00  0.00    -0.179 N 
HETATM    2  C   UNL     1     -43.471 -52.575  12.644  1.00  0.00     0.679 A 
HETATM    3  N   UNL     1     -44.496 -51.766  12.554  1.00  0.00    -0.190 N 
ATOM      4  HN  UNL     1     -44.700 -51.112  11.797  1.00  0.00     0.184 HD
HETATM    5  C   UNL     1     -45.238 -51.978  13.686  1.00  0.00     0.076 A 
HETATM    6  C   UNL     1     -46.454 -51.393  14.080  1.00  0.00     0.032 A 
HETATM    7  C   UNL     1     -47.037 -51.795  15.285  1.00  0.00     0.002 A 
HETATM    8  C   UNL     1     -46.407 -52.735  16.103  1.00  0.00     0.002 A 
HETATM    9  C   UNL     1     -45.183 -53.307  15.742  1.00  0.00     0.032 A 
HETATM   10  C   UNL     1     -44.635 -52.924  14.509  1.00  0.00     0.079 A 
ENDROOT
BRANCH   1  11
HETATM   11  C   UNL     1     -42.647 -54.415  14.170  1.00  0.00     0.174 C 
BRANCH  11  12
HETATM   12  C   UNL     1     -41.570 -53.986  15.165  1.00  0.00     0.187 C 
BRANCH  12  13
HETATM   13  O   UNL     1     -40.319 -54.569  14.791  1.00  0.00    -0.394 OA
HETATM   14  C   UNL     1     -39.593 -53.704  13.925  1.00  0.00     0.201 C 
ENDBRANCH  12  13
ENDBRANCH  11  12
ENDBRANCH   1  11
BRANCH   2  15
HETATM   15  N   UNL     1     -42.491 -52.683  11.732  1.00  0.00    -0.234 N 
HETATM   16  H   UNL     1     -41.948 -51.873  11.462  1.00  0.00     0.174 HD
HETATM   17  H   UNL     1     -42.739 -53.258  10.930  1.00  0.00     0.174 HD
ENDBRANCH   2  15
TORSDOF 4
ENDMDL
