MODEL 1
REMARK VINA RESULT:      -6.9      0.000      0.000
REMARK  7 active torsions:
REMARK  status: ('A' for Active; 'I' for Inactive)
REMARK    1  A    between atoms: O_2  and  C_3 
REMARK    2  A    between atoms: C_3  and  C_4 
REMARK    3  A    between atoms: C_4  and  N_5 
REMARK    4  A    between atoms: C_8  and  C_13 
REMARK       I    between atoms: C_13  and  N_15 
REMARK    5  A    between atoms: N_15  and  C_16 
REMARK    6  A    between atoms: C_16  and  C_17 
REMARK    7  A    between atoms: C_17  and  N_18 
ROOT
HETATM    1  C   UNL     1     -40.929 -49.118  11.217  1.00  0.00     0.269 C 
HETATM    2  O   UNL     1     -39.772 -48.950  11.567  1.00  0.00    -0.266 OA
HETATM    3  N   UNL     1     -41.641 -50.294  11.383  1.00  0.00    -0.354 N 
HETATM    4  H   UNL     1     -42.617 -50.339  11.124  1.00  0.00     0.162 HD
ENDROOT
BRANCH   1   5
HETATM    5  C   UNL     1     -41.708 -47.970  10.573  1.00  0.00     0.116 A 
HETATM    6  N   UNL     1     -42.773 -48.246   9.885  1.00  0.00    -0.290 N 
HETATM    7  N   UNL     1     -43.451 -47.186   9.305  1.00  0.00    -0.255 N 
ATOM      8  HN  UNL     1     -43.098 -49.206   9.774  1.00  0.00     0.187 HD
HETATM    9  C   UNL     1     -43.089 -45.855   9.469  1.00  0.00     0.262 A 
HETATM   10  C   UNL     1     -41.863 -45.605  10.256  1.00  0.00     0.078 A 
HETATM   11  O   UNL     1     -43.693 -44.893   9.007  1.00  0.00    -0.267 OA
HETATM   12  C   UNL     1     -41.169 -46.611  10.785  1.00  0.00     0.042 A 
BRANCH   7  13
HETATM   13  C   UNL     1     -44.650 -47.516   8.538  1.00  0.00     0.178 C 
BRANCH  13  14
HETATM   14  C   UNL     1     -45.950 -47.109   9.237  1.00  0.00     0.189 C 
BRANCH  14  15
HETATM   15  O   UNL     1     -47.033 -47.888   8.717  1.00  0.00    -0.394 OA
HETATM   16  C   UNL     1     -46.563 -48.963   7.913  1.00  0.00     0.201 C 
ENDBRANCH  14  15
ENDBRANCH  13  14
ENDBRANCH   7  13
ENDBRANCH   1   5
BRANCH   3  17
HETATM   17  C   UNL     1     -41.051 -51.416  12.090  1.00  0.00     0.153 C 
BRANCH  17  18
HETATM   18  C   UNL     1     -42.070 -52.549  12.314  1.00  0.00     0.292 C 
BRANCH  18  19
HETATM   19  N   UNL     1     -42.171 -53.021  13.706  1.00  0.00     0.095 N 
HETATM   20  C   UNL     1     -43.048 -54.208  13.858  1.00  0.00     0.303 C 
HETATM   21  C   UNL     1     -44.534 -53.897  13.578  1.00  0.00     0.146 C 
HETATM   22  C   UNL     1     -45.389 -55.145  13.733  1.00  0.00     0.041 C 
HETATM   23  O   UNL     1     -45.006 -52.900  14.500  1.00  0.00    -0.378 OA
HETATM   24  C   UNL     1     -44.232 -51.691  14.399  1.00  0.00     0.146 C 
HETATM   25  C   UNL     1     -44.751 -50.726  15.457  1.00  0.00     0.041 C 
HETATM   26  C   UNL     1     -42.719 -51.964  14.595  1.00  0.00     0.303 C 
ENDBRANCH  18  19
ENDBRANCH  17  18
ENDBRANCH   3  17
TORSDOF 7
ENDMDL
MODEL 2
REMARK VINA RESULT:      -6.9      0.703      1.857
REMARK  7 active torsions:
REMARK  status: ('A' for Active; 'I' for Inactive)
REMARK    1  A    between atoms: O_2  and  C_3 
REMARK    2  A    between atoms: C_3  and  C_4 
REMARK    3  A    between atoms: C_4  and  N_5 
REMARK    4  A    between atoms: C_8  and  C_13 
REMARK       I    between atoms: C_13  and  N_15 
REMARK    5  A    between atoms: N_15  and  C_16 
REMARK    6  A    between atoms: C_16  and  C_17 
REMARK    7  A    between atoms: C_17  and  N_18 
ROOT
HETATM    1  C   UNL     1     -40.963 -49.168  11.283  1.00  0.00     0.269 C 
HETATM    2  O   UNL     1     -39.806 -49.020  11.644  1.00  0.00    -0.266 OA
HETATM    3  N   UNL     1     -41.705 -50.322  11.469  1.00  0.00    -0.354 N 
HETATM    4  H   UNL     1     -42.679 -50.350  11.198  1.00  0.00     0.162 HD
ENDROOT
BRANCH   1   5
HETATM    5  C   UNL     1     -41.705 -48.018  10.601  1.00  0.00     0.116 A 
HETATM    6  N   UNL     1     -42.754 -48.288   9.887  1.00  0.00    -0.290 N 
HETATM    7  N   UNL     1     -43.399 -47.227   9.273  1.00  0.00    -0.255 N 
ATOM      8  HN  UNL     1     -43.091 -49.245   9.780  1.00  0.00     0.187 HD
HETATM    9  C   UNL     1     -43.021 -45.900   9.428  1.00  0.00     0.262 A 
HETATM   10  C   UNL     1     -41.814 -45.656  10.246  1.00  0.00     0.078 A 
HETATM   11  O   UNL     1     -43.596 -44.935   8.936  1.00  0.00    -0.267 OA
HETATM   12  C   UNL     1     -41.152 -46.665  10.810  1.00  0.00     0.042 A 
BRANCH   7  13
HETATM   13  C   UNL     1     -44.580 -47.550   8.476  1.00  0.00     0.178 C 
BRANCH  13  14
HETATM   14  C   UNL     1     -45.893 -47.099   9.124  1.00  0.00     0.189 C 
BRANCH  14  15
HETATM   15  O   UNL     1     -46.980 -47.843   8.564  1.00  0.00    -0.394 OA
HETATM   16  C   UNL     1     -46.523 -49.024   7.916  1.00  0.00     0.201 C 
ENDBRANCH  14  15
ENDBRANCH  13  14
ENDBRANCH   7  13
ENDBRANCH   1   5
BRANCH   3  17
HETATM   17  C   UNL     1     -41.152 -51.441  12.212  1.00  0.00     0.153 C 
BRANCH  17  18
HETATM   18  C   UNL     1     -42.192 -52.066  13.160  1.00  0.00     0.292 C 
BRANCH  18  19
HETATM   19  N   UNL     1     -43.592 -51.915  12.724  1.00  0.00     0.095 N 
HETATM   20  C   UNL     1     -44.407 -51.092  13.651  1.00  0.00     0.303 C 
HETATM   21  C   UNL     1     -44.629 -51.770  15.019  1.00  0.00     0.146 C 
HETATM   22  C   UNL     1     -45.456 -50.884  15.938  1.00  0.00     0.041 C 
HETATM   23  O   UNL     1     -45.322 -53.017  14.840  1.00  0.00    -0.378 OA
HETATM   24  C   UNL     1     -44.585 -53.901  13.977  1.00  0.00     0.146 C 
HETATM   25  C   UNL     1     -45.423 -55.158  13.783  1.00  0.00     0.041 C 
HETATM   26  C   UNL     1     -44.267 -53.235  12.614  1.00  0.00     0.303 C 
ENDBRANCH  18  19
ENDBRANCH  17  18
ENDBRANCH   3  17
TORSDOF 7
ENDMDL
MODEL 3
REMARK VINA RESULT:      -6.9      1.712      2.078
REMARK  7 active torsions:
REMARK  status: ('A' for Active; 'I' for Inactive)
REMARK    1  A    between atoms: O_2  and  C_3 
REMARK    2  A    between atoms: C_3  and  C_4 
REMARK    3  A    between atoms: C_4  and  N_5 
REMARK    4  A    between atoms: C_8  and  C_13 
REMARK       I    between atoms: C_13  and  N_15 
REMARK    5  A    between atoms: N_15  and  C_16 
REMARK    6  A    between atoms: C_16  and  C_17 
REMARK    7  A    between atoms: C_17  and  N_18 
ROOT
HETATM    1  C   UNL     1     -41.694 -49.749  12.007  1.00  0.00     0.269 C 
HETATM    2  O   UNL     1     -40.572 -49.974  12.430  1.00  0.00    -0.266 OA
HETATM    3  N   UNL     1     -42.757 -50.633  12.079  1.00  0.00    -0.354 N 
HETATM    4  H   UNL     1     -43.675 -50.353  11.763  1.00  0.00     0.162 HD
ENDROOT
BRANCH   1   5
HETATM    5  C   UNL     1     -42.016 -48.395  11.371  1.00  0.00     0.116 A 
HETATM    6  N   UNL     1     -42.543 -48.371  10.186  1.00  0.00    -0.290 N 
HETATM    7  N   UNL     1     -42.813 -47.130   9.633  1.00  0.00    -0.255 N 
ATOM      8  HN  UNL     1     -42.752 -49.232   9.681  1.00  0.00     0.187 HD
HETATM    9  C   UNL     1     -42.605 -45.927  10.296  1.00  0.00     0.262 A 
HETATM   10  C   UNL     1     -41.994 -46.019  11.639  1.00  0.00     0.078 A 
HETATM   11  O   UNL     1     -42.875 -44.816   9.852  1.00  0.00    -0.267 OA
HETATM   12  C   UNL     1     -41.685 -47.200  12.173  1.00  0.00     0.042 A 
BRANCH   7  13
HETATM   13  C   UNL     1     -43.411 -47.123   8.300  1.00  0.00     0.178 C 
BRANCH  13  14
HETATM   14  C   UNL     1     -44.739 -47.882   8.225  1.00  0.00     0.189 C 
BRANCH  14  15
HETATM   15  O   UNL     1     -45.476 -47.671   9.434  1.00  0.00    -0.394 OA
HETATM   16  C   UNL     1     -46.803 -47.233   9.165  1.00  0.00     0.201 C 
ENDBRANCH  14  15
ENDBRANCH  13  14
ENDBRANCH   7  13
ENDBRANCH   1   5
BRANCH   3  17
HETATM   17  C   UNL     1     -42.611 -51.903  12.769  1.00  0.00     0.153 C 
BRANCH  17  18
HETATM   18  C   UNL     1     -43.390 -51.924  14.097  1.00  0.00     0.292 C 
BRANCH  18  19
HETATM   19  N   UNL     1     -44.479 -52.916  14.157  1.00  0.00     0.095 N 
HETATM   20  C   UNL     1     -45.344 -52.907  12.952  1.00  0.00     0.303 C 
HETATM   21  C   UNL     1     -46.174 -51.613  12.817  1.00  0.00     0.146 C 
HETATM   22  C   UNL     1     -47.033 -51.646  11.562  1.00  0.00     0.041 C 
HETATM   23  O   UNL     1     -47.037 -51.466  13.958  1.00  0.00    -0.378 OA
HETATM   24  C   UNL     1     -46.278 -51.428  15.180  1.00  0.00     0.146 C 
HETATM   25  C   UNL     1     -47.270 -51.347  16.333  1.00  0.00     0.041 C 
HETATM   26  C   UNL     1     -45.365 -52.672  15.325  1.00  0.00     0.303 C 
ENDBRANCH  18  19
ENDBRANCH  17  18
ENDBRANCH   3  17
TORSDOF 7
ENDMDL
MODEL 4
REMARK VINA RESULT:      -6.8      2.113      7.291
REMARK  7 active torsions:
REMARK  status: ('A' for Active; 'I' for Inactive)
REMARK    1  A    between atoms: O_2  and  C_3 
REMARK    2  A    between atoms: C_3  and  C_4 
REMARK    3  A    between atoms: C_4  and  N_5 
REMARK    4  A    between atoms: C_8  and  C_13 
REMARK       I    between atoms: C_13  and  N_15 
REMARK    5  A    between atoms: N_15  and  C_16 
REMARK    6  A    between atoms: C_16  and  C_17 
REMARK    7  A    between atoms: C_17  and  N_18 
ROOT
HETATM    1  C   UNL     1     -41.395 -51.938  12.261  1.00  0.00     0.269 C 
HETATM    2  O   UNL     1     -40.277 -52.422  12.351  1.00  0.00    -0.266 OA
HETATM    3  N   UNL     1     -41.670 -50.678  11.756  1.00  0.00    -0.354 N 
HETATM    4  H   UNL     1     -42.627 -50.369  11.655  1.00  0.00     0.162 HD
ENDROOT
BRANCH   1   5
HETATM    5  C   UNL     1     -42.618 -52.749  12.690  1.00  0.00     0.116 A 
HETATM    6  N   UNL     1     -43.800 -52.285  12.426  1.00  0.00    -0.290 N 
HETATM    7  N   UNL     1     -44.887 -53.038  12.837  1.00  0.00    -0.255 N 
ATOM      8  HN  UNL     1     -43.924 -51.399  11.936  1.00  0.00     0.187 HD
HETATM    9  C   UNL     1     -44.780 -54.276  13.456  1.00  0.00     0.262 A 
HETATM   10  C   UNL     1     -43.408 -54.748  13.737  1.00  0.00     0.078 A 
HETATM   11  O   UNL     1     -45.722 -54.987  13.791  1.00  0.00    -0.267 OA
HETATM   12  C   UNL     1     -42.347 -54.021  13.392  1.00  0.00     0.042 A 
BRANCH   7  13
HETATM   13  C   UNL     1     -46.211 -52.500  12.527  1.00  0.00     0.178 C 
BRANCH  13  14
HETATM   14  C   UNL     1     -46.732 -51.522  13.585  1.00  0.00     0.189 C 
BRANCH  14  15
HETATM   15  O   UNL     1     -45.649 -51.111  14.426  1.00  0.00    -0.394 OA
HETATM   16  C   UNL     1     -45.999 -51.193  15.802  1.00  0.00     0.201 C 
ENDBRANCH  14  15
ENDBRANCH  13  14
ENDBRANCH   7  13
ENDBRANCH   1   5
BRANCH   3  17
HETATM   17  C   UNL     1     -40.606 -49.859  11.204  1.00  0.00     0.153 C 
BRANCH  17  18
HETATM   18  C   UNL     1     -41.159 -48.608  10.496  1.00  0.00     0.292 C 
BRANCH  18  19
HETATM   19  N   UNL     1     -41.922 -47.694  11.366  1.00  0.00     0.095 N 
HETATM   20  C   UNL     1     -43.193 -47.233  10.756  1.00  0.00     0.303 C 
HETATM   21  C   UNL     1     -42.976 -46.314   9.536  1.00  0.00     0.146 C 
HETATM   22  C   UNL     1     -44.306 -45.880   8.939  1.00  0.00     0.041 C 
HETATM   23  O   UNL     1     -42.247 -45.140   9.932  1.00  0.00    -0.378 OA
HETATM   24  C   UNL     1     -40.974 -45.489  10.506  1.00  0.00     0.146 C 
HETATM   25  C   UNL     1     -40.308 -44.198  10.963  1.00  0.00     0.041 C 
HETATM   26  C   UNL     1     -41.133 -46.476  11.690  1.00  0.00     0.303 C 
ENDBRANCH  18  19
ENDBRANCH  17  18
ENDBRANCH   3  17
TORSDOF 7
ENDMDL
MODEL 5
REMARK VINA RESULT:      -6.6      1.461      2.077
REMARK  7 active torsions:
REMARK  status: ('A' for Active; 'I' for Inactive)
REMARK    1  A    between atoms: O_2  and  C_3 
REMARK    2  A    between atoms: C_3  and  C_4 
REMARK    3  A    between atoms: C_4  and  N_5 
REMARK    4  A    between atoms: C_8  and  C_13 
REMARK       I    between atoms: C_13  and  N_15 
REMARK    5  A    between atoms: N_15  and  C_16 
REMARK    6  A    between atoms: C_16  and  C_17 
REMARK    7  A    between atoms: C_17  and  N_18 
ROOT
HETATM    1  C   UNL     1     -40.655 -50.288  11.896  1.00  0.00     0.269 C 
HETATM    2  O   UNL     1     -39.700 -50.458  12.637  1.00  0.00    -0.266 OA
HETATM    3  N   UNL     1     -41.560 -51.272  11.537  1.00  0.00    -0.354 N 
HETATM    4  H   UNL     1     -42.363 -51.042  10.969  1.00  0.00     0.162 HD
ENDROOT
BRANCH   1   5
HETATM    5  C   UNL     1     -40.940 -48.900  11.321  1.00  0.00     0.116 A 
HETATM    6  N   UNL     1     -41.974 -48.741  10.555  1.00  0.00    -0.290 N 
HETATM    7  N   UNL     1     -42.200 -47.475  10.041  1.00  0.00    -0.255 N 
ATOM      8  HN  UNL     1     -42.598 -49.519  10.338  1.00  0.00     0.187 HD
HETATM    9  C   UNL     1     -41.420 -46.367  10.347  1.00  0.00     0.262 A 
HETATM   10  C   UNL     1     -40.251 -46.612  11.218  1.00  0.00     0.078 A 
HETATM   11  O   UNL     1     -41.619 -45.225   9.944  1.00  0.00    -0.267 OA
HETATM   12  C   UNL     1     -39.989 -47.830  11.688  1.00  0.00     0.042 A 
BRANCH   7  13
HETATM   13  C   UNL     1     -43.372 -47.315   9.183  1.00  0.00     0.178 C 
BRANCH  13  14
HETATM   14  C   UNL     1     -44.698 -47.531   9.918  1.00  0.00     0.189 C 
BRANCH  14  15
HETATM   15  O   UNL     1     -45.784 -47.196   9.049  1.00  0.00    -0.394 OA
HETATM   16  C   UNL     1     -46.640 -48.311   8.831  1.00  0.00     0.201 C 
ENDBRANCH  14  15
ENDBRANCH  13  14
ENDBRANCH   7  13
ENDBRANCH   1   5
BRANCH   3  17
HETATM   17  C   UNL     1     -41.468 -52.602  12.114  1.00  0.00     0.153 C 
BRANCH  17  18
HETATM   18  C   UNL     1     -42.842 -53.118  12.580  1.00  0.00     0.292 C 
BRANCH  18  19
HETATM   19  N   UNL     1     -43.223 -52.711  13.944  1.00  0.00     0.095 N 
HETATM   20  C   UNL     1     -42.490 -53.452  15.000  1.00  0.00     0.303 C 
HETATM   21  C   UNL     1     -42.866 -54.947  15.058  1.00  0.00     0.146 C 
HETATM   22  C   UNL     1     -42.081 -55.664  16.144  1.00  0.00     0.041 C 
HETATM   23  O   UNL     1     -44.269 -55.087  15.338  1.00  0.00    -0.378 OA
HETATM   24  C   UNL     1     -45.067 -54.427  14.339  1.00  0.00     0.146 C 
HETATM   25  C   UNL     1     -46.526 -54.561  14.755  1.00  0.00     0.041 C 
HETATM   26  C   UNL     1     -44.672 -52.936  14.188  1.00  0.00     0.303 C 
ENDBRANCH  18  19
ENDBRANCH  17  18
ENDBRANCH   3  17
TORSDOF 7
ENDMDL
MODEL 6
REMARK VINA RESULT:      -6.2      2.072      3.869
REMARK  7 active torsions:
REMARK  status: ('A' for Active; 'I' for Inactive)
REMARK    1  A    between atoms: O_2  and  C_3 
REMARK    2  A    between atoms: C_3  and  C_4 
REMARK    3  A    between atoms: C_4  and  N_5 
REMARK    4  A    between atoms: C_8  and  C_13 
REMARK       I    between atoms: C_13  and  N_15 
REMARK    5  A    between atoms: N_15  and  C_16 
REMARK    6  A    between atoms: C_16  and  C_17 
REMARK    7  A    between atoms: C_17  and  N_18 
ROOT
HETATM    1  C   UNL     1     -40.621 -49.663  11.428  1.00  0.00     0.269 C 
HETATM    2  O   UNL     1     -39.448 -49.779  11.745  1.00  0.00    -0.266 OA
HETATM    3  N   UNL     1     -41.547 -50.693  11.441  1.00  0.00    -0.354 N 
HETATM    4  H   UNL     1     -42.517 -50.508  11.225  1.00  0.00     0.162 HD
ENDROOT
BRANCH   1   5
HETATM    5  C   UNL     1     -41.171 -48.299  11.010  1.00  0.00     0.116 A 
HETATM    6  N   UNL     1     -40.346 -47.307  10.876  1.00  0.00    -0.290 N 
HETATM    7  N   UNL     1     -40.876 -46.081  10.507  1.00  0.00    -0.255 N 
ATOM      8  HN  UNL     1     -39.346 -47.424  11.038  1.00  0.00     0.187 HD
HETATM    9  C   UNL     1     -42.219 -45.876  10.219  1.00  0.00     0.262 A 
HETATM   10  C   UNL     1     -43.110 -47.041  10.397  1.00  0.00     0.078 A 
HETATM   11  O   UNL     1     -42.711 -44.816   9.846  1.00  0.00    -0.267 OA
HETATM   12  C   UNL     1     -42.630 -48.218  10.794  1.00  0.00     0.042 A 
BRANCH   7  13
HETATM   13  C   UNL     1     -39.930 -44.977  10.359  1.00  0.00     0.178 C 
BRANCH  13  14
HETATM   14  C   UNL     1     -39.644 -44.241  11.671  1.00  0.00     0.189 C 
BRANCH  14  15
HETATM   15  O   UNL     1     -40.005 -45.079  12.774  1.00  0.00    -0.394 OA
HETATM   16  C   UNL     1     -40.846 -44.395  13.695  1.00  0.00     0.201 C 
ENDBRANCH  14  15
ENDBRANCH  13  14
ENDBRANCH   7  13
ENDBRANCH   1   5
BRANCH   3  17
HETATM   17  C   UNL     1     -41.177 -52.008  11.935  1.00  0.00     0.153 C 
BRANCH  17  18
HETATM   18  C   UNL     1     -42.201 -52.543  12.953  1.00  0.00     0.292 C 
BRANCH  18  19
HETATM   19  N   UNL     1     -43.611 -52.310  12.590  1.00  0.00     0.095 N 
HETATM   20  C   UNL     1     -44.314 -51.407  13.533  1.00  0.00     0.303 C 
HETATM   21  C   UNL     1     -44.504 -52.029  14.933  1.00  0.00     0.146 C 
HETATM   22  C   UNL     1     -45.216 -51.062  15.866  1.00  0.00     0.041 C 
HETATM   23  O   UNL     1     -45.287 -53.230  14.831  1.00  0.00    -0.378 OA
HETATM   24  C   UNL     1     -44.660 -54.187  13.959  1.00  0.00     0.146 C 
HETATM   25  C   UNL     1     -45.591 -55.388  13.852  1.00  0.00     0.041 C 
HETATM   26  C   UNL     1     -44.377 -53.583  12.559  1.00  0.00     0.303 C 
ENDBRANCH  18  19
ENDBRANCH  17  18
ENDBRANCH   3  17
TORSDOF 7
ENDMDL
MODEL 7
REMARK VINA RESULT:      -6.2      2.149      3.904
REMARK  7 active torsions:
REMARK  status: ('A' for Active; 'I' for Inactive)
REMARK    1  A    between atoms: O_2  and  C_3 
REMARK    2  A    between atoms: C_3  and  C_4 
REMARK    3  A    between atoms: C_4  and  N_5 
REMARK    4  A    between atoms: C_8  and  C_13 
REMARK       I    between atoms: C_13  and  N_15 
REMARK    5  A    between atoms: N_15  and  C_16 
REMARK    6  A    between atoms: C_16  and  C_17 
REMARK    7  A    between atoms: C_17  and  N_18 
ROOT
HETATM    1  C   UNL     1     -40.852 -49.748  11.519  1.00  0.00     0.269 C 
HETATM    2  O   UNL     1     -39.657 -49.930  11.691  1.00  0.00    -0.266 OA
HETATM    3  N   UNL     1     -41.831 -50.709  11.704  1.00  0.00    -0.354 N 
HETATM    4  H   UNL     1     -42.807 -50.467  11.602  1.00  0.00     0.162 HD
ENDROOT
BRANCH   1   5
HETATM    5  C   UNL     1     -41.364 -48.368  11.102  1.00  0.00     0.116 A 
HETATM    6  N   UNL     1     -40.505 -47.418  10.900  1.00  0.00    -0.290 N 
HETATM    7  N   UNL     1     -41.000 -46.177  10.534  1.00  0.00    -0.255 N 
ATOM      8  HN  UNL     1     -39.503 -47.577  11.007  1.00  0.00     0.187 HD
HETATM    9  C   UNL     1     -42.347 -45.916  10.318  1.00  0.00     0.262 A 
HETATM   10  C   UNL     1     -43.277 -47.035  10.573  1.00  0.00     0.078 A 
HETATM   11  O   UNL     1     -42.812 -44.842   9.951  1.00  0.00    -0.267 OA
HETATM   12  C   UNL     1     -42.828 -48.225  10.969  1.00  0.00     0.042 A 
BRANCH   7  13
HETATM   13  C   UNL     1     -40.016 -45.120  10.307  1.00  0.00     0.178 C 
BRANCH  13  14
HETATM   14  C   UNL     1     -39.704 -44.300  11.563  1.00  0.00     0.189 C 
BRANCH  14  15
HETATM   15  O   UNL     1     -39.406 -45.186  12.647  1.00  0.00    -0.394 OA
HETATM   16  C   UNL     1     -39.499 -44.523  13.902  1.00  0.00     0.201 C 
ENDBRANCH  14  15
ENDBRANCH  13  14
ENDBRANCH   7  13
ENDBRANCH   1   5
BRANCH   3  17
HETATM   17  C   UNL     1     -41.485 -52.023  12.216  1.00  0.00     0.153 C 
BRANCH  17  18
HETATM   18  C   UNL     1     -42.733 -52.818  12.639  1.00  0.00     0.292 C 
BRANCH  18  19
HETATM   19  N   UNL     1     -43.197 -52.553  14.013  1.00  0.00     0.095 N 
HETATM   20  C   UNL     1     -42.455 -53.325  15.038  1.00  0.00     0.303 C 
HETATM   21  C   UNL     1     -42.723 -54.842  14.960  1.00  0.00     0.146 C 
HETATM   22  C   UNL     1     -41.930 -55.591  16.021  1.00  0.00     0.041 C 
HETATM   23  O   UNL     1     -44.122 -55.102  15.165  1.00  0.00    -0.378 OA
HETATM   24  C   UNL     1     -44.925 -54.419  14.186  1.00  0.00     0.146 C 
HETATM   25  C   UNL     1     -46.386 -54.688  14.524  1.00  0.00     0.041 C 
HETATM   26  C   UNL     1     -44.634 -52.896  14.171  1.00  0.00     0.303 C 
ENDBRANCH  18  19
ENDBRANCH  17  18
ENDBRANCH   3  17
TORSDOF 7
ENDMDL
MODEL 8
REMARK VINA RESULT:      -6.1      1.891      3.543
REMARK  7 active torsions:
REMARK  status: ('A' for Active; 'I' for Inactive)
REMARK    1  A    between atoms: O_2  and  C_3 
REMARK    2  A    between atoms: C_3  and  C_4 
REMARK    3  A    between atoms: C_4  and  N_5 
REMARK    4  A    between atoms: C_8  and  C_13 
REMARK       I    between atoms: C_13  and  N_15 
REMARK    5  A    between atoms: N_15  and  C_16 
REMARK    6  A    between atoms: C_16  and  C_17 
REMARK    7  A    between atoms: C_17  and  N_18 
ROOT
HETATM    1  C   UNL     1     -40.968 -48.582  11.304  1.00  0.00     0.269 C 
HETATM    2  O   UNL     1     -39.905 -48.369  11.866  1.00  0.00    -0.266 OA
HETATM    3  N   UNL     1     -41.541 -49.832  11.149  1.00  0.00    -0.354 N 
HETATM    4  H   UNL     1     -42.455 -49.924  10.727  1.00  0.00     0.162 HD
ENDROOT
BRANCH   1   5
HETATM    5  C   UNL     1     -41.783 -47.417  10.741  1.00  0.00     0.116 A 
HETATM    6  N   UNL     1     -41.616 -46.234  11.248  1.00  0.00    -0.290 N 
HETATM    7  N   UNL     1     -42.377 -45.202  10.724  1.00  0.00    -0.255 N 
ATOM      8  HN  UNL     1     -40.950 -46.071  12.003  1.00  0.00     0.187 HD
HETATM    9  C   UNL     1     -43.255 -45.353   9.659  1.00  0.00     0.262 A 
HETATM   10  C   UNL     1     -43.409 -46.725   9.130  1.00  0.00     0.078 A 
HETATM   11  O   UNL     1     -43.909 -44.452   9.144  1.00  0.00    -0.267 OA
HETATM   12  C   UNL     1     -42.721 -47.741   9.648  1.00  0.00     0.042 A 
BRANCH   7  13
HETATM   13  C   UNL     1     -42.172 -43.877  11.305  1.00  0.00     0.178 C 
BRANCH  13  14
HETATM   14  C   UNL     1     -40.773 -43.310  11.047  1.00  0.00     0.189 C 
BRANCH  14  15
HETATM   15  O   UNL     1     -39.798 -44.140  11.689  1.00  0.00    -0.394 OA
HETATM   16  C   UNL     1     -39.504 -43.677  13.001  1.00  0.00     0.201 C 
ENDBRANCH  14  15
ENDBRANCH  13  14
ENDBRANCH   7  13
ENDBRANCH   1   5
BRANCH   3  17
HETATM   17  C   UNL     1     -40.924 -51.003  11.746  1.00  0.00     0.153 C 
BRANCH  17  18
HETATM   18  C   UNL     1     -41.976 -52.010  12.246  1.00  0.00     0.292 C 
BRANCH  18  19
HETATM   19  N   UNL     1     -42.510 -51.727  13.591  1.00  0.00     0.095 N 
HETATM   20  C   UNL     1     -42.569 -52.928  14.460  1.00  0.00     0.303 C 
HETATM   21  C   UNL     1     -43.604 -53.967  13.980  1.00  0.00     0.146 C 
HETATM   22  C   UNL     1     -43.617 -55.184  14.893  1.00  0.00     0.041 C 
HETATM   23  O   UNL     1     -44.917 -53.383  13.976  1.00  0.00    -0.378 OA
HETATM   24  C   UNL     1     -44.967 -52.224  13.125  1.00  0.00     0.146 C 
HETATM   25  C   UNL     1     -46.365 -51.630  13.241  1.00  0.00     0.041 C 
HETATM   26  C   UNL     1     -43.890 -51.180  13.518  1.00  0.00     0.303 C 
ENDBRANCH  18  19
ENDBRANCH  17  18
ENDBRANCH   3  17
TORSDOF 7
ENDMDL
MODEL 9
REMARK VINA RESULT:      -5.8      2.538      4.148
REMARK  7 active torsions:
REMARK  status: ('A' for Active; 'I' for Inactive)
REMARK    1  A    between atoms: O_2  and  C_3 
REMARK    2  A    between atoms: C_3  and  C_4 
REMARK    3  A    between atoms: C_4  and  N_5 
REMARK    4  A    between atoms: C_8  and  C_13 
REMARK       I    between atoms: C_13  and  N_15 
REMARK    5  A    between atoms: N_15  and  C_16 
REMARK    6  A    between atoms: C_16  and  C_17 
REMARK    7  A    between atoms: C_17  and  N_18 
ROOT
HETATM    1  C   UNL     1     -41.922 -52.573  12.550  1.00  0.00     0.269 C 
HETATM    2  O   UNL     1     -41.335 -53.415  13.211  1.00  0.00    -0.266 OA
HETATM    3  N   UNL     1     -43.210 -52.710  12.062  1.00  0.00    -0.354 N 
HETATM    4  H   UNL     1     -43.654 -51.944  11.575  1.00  0.00     0.162 HD
ENDROOT
BRANCH   1   5
HETATM    5  C   UNL     1     -41.246 -51.237  12.238  1.00  0.00     0.116 A 
HETATM    6  N   UNL     1     -41.903 -50.347  11.561  1.00  0.00    -0.290 N 
HETATM    7  N   UNL     1     -41.260 -49.152  11.285  1.00  0.00    -0.255 N 
ATOM      8  HN  UNL     1     -42.857 -50.521  11.243  1.00  0.00     0.187 HD
HETATM    9  C   UNL     1     -39.987 -48.837  11.740  1.00  0.00     0.262 A 
HETATM   10  C   UNL     1     -39.285 -49.893  12.499  1.00  0.00     0.078 A 
HETATM   11  O   UNL     1     -39.408 -47.772  11.551  1.00  0.00    -0.267 OA
HETATM   12  C   UNL     1     -39.866 -51.068  12.738  1.00  0.00     0.042 A 
BRANCH   7  13
HETATM   13  C   UNL     1     -42.018 -48.160  10.524  1.00  0.00     0.178 C 
BRANCH  13  14
HETATM   14  C   UNL     1     -43.189 -47.559  11.307  1.00  0.00     0.189 C 
BRANCH  14  15
HETATM   15  O   UNL     1     -42.714 -46.479  12.117  1.00  0.00    -0.394 OA
HETATM   16  C   UNL     1     -43.046 -46.670  13.487  1.00  0.00     0.201 C 
ENDBRANCH  14  15
ENDBRANCH  13  14
ENDBRANCH   7  13
ENDBRANCH   1   5
BRANCH   3  17
HETATM   17  C   UNL     1     -44.001 -53.882  12.395  1.00  0.00     0.153 C 
BRANCH  17  18
HETATM   18  C   UNL     1     -45.327 -53.500  13.079  1.00  0.00     0.292 C 
BRANCH  18  19
HETATM   19  N   UNL     1     -45.523 -54.090  14.415  1.00  0.00     0.095 N 
HETATM   20  C   UNL     1     -46.617 -53.446  15.183  1.00  0.00     0.303 C 
HETATM   21  C   UNL     1     -46.294 -51.991  15.584  1.00  0.00     0.146 C 
HETATM   22  C   UNL     1     -47.449 -51.371  16.355  1.00  0.00     0.041 C 
HETATM   23  O   UNL     1     -45.121 -51.962  16.413  1.00  0.00    -0.378 OA
HETATM   24  C   UNL     1     -43.990 -52.538  15.734  1.00  0.00     0.146 C 
HETATM   25  C   UNL     1     -42.819 -52.534  16.708  1.00  0.00     0.041 C 
HETATM   26  C   UNL     1     -44.292 -53.976  15.240  1.00  0.00     0.303 C 
ENDBRANCH  18  19
ENDBRANCH  17  18
ENDBRANCH   3  17
TORSDOF 7
ENDMDL
