MODEL 1
REMARK VINA RESULT:      -6.2      0.000      0.000
REMARK  5 active torsions:
REMARK  status: ('A' for Active; 'I' for Inactive)
REMARK    1  A    between atoms: N_7  and  C_8 
REMARK    2  A    between atoms: C_8  and  C_9 
REMARK    3  A    between atoms: C_9  and  N_10 
REMARK       I    between atoms: N_10  and  C_11 
REMARK    4  A    between atoms: C_11  and  C_13 
REMARK    5  A    between atoms: C_13  and  N_14 
ROOT
HETATM    1  N   UNL     1     -42.971 -48.908  11.677  1.00  0.00    -0.358 N 
HETATM    2  C   UNL     1     -42.077 -48.186  10.921  1.00  0.00     0.237 C 
HETATM    3  O   UNL     1     -40.885 -48.474  10.836  1.00  0.00    -0.272 OA
HETATM    4  H   UNL     1     -43.943 -48.627  11.740  1.00  0.00     0.162 HD
ENDROOT
BRANCH   1   5
HETATM    5  C   UNL     1     -42.562 -50.088  12.420  1.00  0.00     0.152 C 
BRANCH   5   6
HETATM    6  C   UNL     1     -43.250 -50.219  13.796  1.00  0.00     0.292 C 
BRANCH   6   7
HETATM    7  N   UNL     1     -44.623 -50.760  13.716  1.00  0.00     0.090 N 
HETATM    8  C   UNL     1     -45.248 -50.896  15.041  1.00  0.00     0.276 C 
HETATM    9  C   UNL     1     -46.695 -51.402  14.950  1.00  0.00     0.010 C 
HETATM   10  C   UNL     1     -46.756 -52.723  14.176  1.00  0.00     0.012 C 
HETATM   11  C   UNL     1     -47.291 -51.550  16.348  1.00  0.00     0.011 C 
HETATM   12  C   UNL     1     -46.052 -52.607  12.816  1.00  0.00     0.010 C 
HETATM   13  C   UNL     1     -46.863 -51.760  11.829  1.00  0.00     0.011 C 
HETATM   14  C   UNL     1     -44.629 -52.050  13.004  1.00  0.00     0.276 C 
ENDBRANCH   6   7
ENDBRANCH   5   6
ENDBRANCH   1   5
BRANCH   2  15
HETATM   15  C   UNL     1     -42.673 -47.022  10.164  1.00  0.00     0.249 C 
BRANCH  15  16
HETATM   16  N   UNL     1     -43.758 -47.455   9.324  1.00  0.00    -0.264 N 
HETATM   17  C   UNL     1     -43.727 -47.877   8.034  1.00  0.00     0.213 A 
HETATM   18  N   UNL     1     -44.943 -48.236   7.691  1.00  0.00    -0.281 N 
HETATM   19  N   UNL     1     -45.726 -48.029   8.802  1.00  0.00    -0.008 NA
ATOM     20  HN  UNL     1     -45.245 -48.595   6.785  1.00  0.00     0.184 HD
HETATM   21  N   UNL     1     -45.006 -47.556   9.810  1.00  0.00    -0.005 NA
ENDBRANCH  15  16
ENDBRANCH   2  15
TORSDOF 5
ENDMDL
MODEL 2
REMARK VINA RESULT:      -5.9      1.810      2.175
REMARK  5 active torsions:
REMARK  status: ('A' for Active; 'I' for Inactive)
REMARK    1  A    between atoms: N_7  and  C_8 
REMARK    2  A    between atoms: C_8  and  C_9 
REMARK    3  A    between atoms: C_9  and  N_10 
REMARK       I    between atoms: N_10  and  C_11 
REMARK    4  A    between atoms: C_11  and  C_13 
REMARK    5  A    between atoms: C_13  and  N_14 
ROOT
HETATM    1  N   UNL     1     -42.478 -49.635  11.616  1.00  0.00    -0.358 N 
HETATM    2  C   UNL     1     -42.669 -48.282  11.453  1.00  0.00     0.237 C 
HETATM    3  O   UNL     1     -43.144 -47.562  12.329  1.00  0.00    -0.272 OA
HETATM    4  H   UNL     1     -42.103 -50.200  10.863  1.00  0.00     0.162 HD
ENDROOT
BRANCH   1   5
HETATM    5  C   UNL     1     -42.811 -50.307  12.861  1.00  0.00     0.152 C 
BRANCH   5   6
HETATM    6  C   UNL     1     -42.747 -51.847  12.766  1.00  0.00     0.292 C 
BRANCH   6   7
HETATM    7  N   UNL     1     -43.930 -52.520  13.342  1.00  0.00     0.090 N 
HETATM    8  C   UNL     1     -44.840 -51.577  14.008  1.00  0.00     0.276 C 
HETATM    9  C   UNL     1     -46.097 -52.271  14.553  1.00  0.00     0.010 C 
HETATM   10  C   UNL     1     -45.713 -53.420  15.491  1.00  0.00     0.012 C 
HETATM   11  C   UNL     1     -46.996 -51.258  15.258  1.00  0.00     0.011 C 
HETATM   12  C   UNL     1     -44.715 -54.378  14.824  1.00  0.00     0.010 C 
HETATM   13  C   UNL     1     -45.384 -55.224  13.735  1.00  0.00     0.011 C 
HETATM   14  C   UNL     1     -43.515 -53.587  14.270  1.00  0.00     0.276 C 
ENDBRANCH   6   7
ENDBRANCH   5   6
ENDBRANCH   1   5
BRANCH   2  15
HETATM   15  C   UNL     1     -42.218 -47.728  10.122  1.00  0.00     0.249 C 
BRANCH  15  16
HETATM   16  N   UNL     1     -43.183 -46.798   9.599  1.00  0.00    -0.264 N 
HETATM   17  C   UNL     1     -44.470 -47.016   9.227  1.00  0.00     0.213 A 
HETATM   18  N   UNL     1     -44.995 -45.866   8.870  1.00  0.00    -0.281 N 
HETATM   19  N   UNL     1     -44.001 -44.930   9.034  1.00  0.00    -0.008 NA
ATOM     20  HN  UNL     1     -45.946 -45.702   8.539  1.00  0.00     0.184 HD
HETATM   21  N   UNL     1     -42.889 -45.492   9.486  1.00  0.00    -0.005 NA
ENDBRANCH  15  16
ENDBRANCH   2  15
TORSDOF 5
ENDMDL
MODEL 3
REMARK VINA RESULT:      -5.7      1.933      2.758
REMARK  5 active torsions:
REMARK  status: ('A' for Active; 'I' for Inactive)
REMARK    1  A    between atoms: N_7  and  C_8 
REMARK    2  A    between atoms: C_8  and  C_9 
REMARK    3  A    between atoms: C_9  and  N_10 
REMARK       I    between atoms: N_10  and  C_11 
REMARK    4  A    between atoms: C_11  and  C_13 
REMARK    5  A    between atoms: C_13  and  N_14 
ROOT
HETATM    1  N   UNL     1     -42.463 -48.969  11.269  1.00  0.00    -0.358 N 
HETATM    2  C   UNL     1     -42.308 -47.602  11.253  1.00  0.00     0.237 C 
HETATM    3  O   UNL     1     -42.014 -46.950  12.254  1.00  0.00    -0.272 OA
HETATM    4  H   UNL     1     -42.727 -49.470  10.428  1.00  0.00     0.162 HD
ENDROOT
BRANCH   1   5
HETATM    5  C   UNL     1     -42.266 -49.745  12.482  1.00  0.00     0.152 C 
BRANCH   5   6
HETATM    6  C   UNL     1     -43.506 -50.565  12.897  1.00  0.00     0.292 C 
BRANCH   6   7
HETATM    7  N   UNL     1     -43.232 -52.009  13.046  1.00  0.00     0.090 N 
HETATM    8  C   UNL     1     -44.449 -52.781  13.340  1.00  0.00     0.276 C 
HETATM    9  C   UNL     1     -44.170 -54.288  13.435  1.00  0.00     0.010 C 
HETATM   10  C   UNL     1     -43.077 -54.569  14.472  1.00  0.00     0.012 C 
HETATM   11  C   UNL     1     -45.455 -55.043  13.766  1.00  0.00     0.011 C 
HETATM   12  C   UNL     1     -41.824 -53.722  14.207  1.00  0.00     0.010 C 
HETATM   13  C   UNL     1     -41.059 -54.212  12.973  1.00  0.00     0.011 C 
HETATM   14  C   UNL     1     -42.209 -52.236  14.082  1.00  0.00     0.276 C 
ENDBRANCH   6   7
ENDBRANCH   5   6
ENDBRANCH   1   5
BRANCH   2  15
HETATM   15  C   UNL     1     -42.491 -46.952   9.903  1.00  0.00     0.249 C 
BRANCH  15  16
HETATM   16  N   UNL     1     -43.703 -47.405   9.274  1.00  0.00    -0.264 N 
HETATM   17  C   UNL     1     -43.891 -47.880   8.016  1.00  0.00     0.213 A 
HETATM   18  N   UNL     1     -45.149 -48.237   7.895  1.00  0.00    -0.281 N 
HETATM   19  N   UNL     1     -45.735 -47.974   9.111  1.00  0.00    -0.008 NA
ATOM     20  HN  UNL     1     -45.599 -48.629   7.068  1.00  0.00     0.184 HD
HETATM   21  N   UNL     1     -44.854 -47.470   9.964  1.00  0.00    -0.005 NA
ENDBRANCH  15  16
ENDBRANCH   2  15
TORSDOF 5
ENDMDL
MODEL 4
REMARK VINA RESULT:      -5.7      2.563      3.527
REMARK  5 active torsions:
REMARK  status: ('A' for Active; 'I' for Inactive)
REMARK    1  A    between atoms: N_7  and  C_8 
REMARK    2  A    between atoms: C_8  and  C_9 
REMARK    3  A    between atoms: C_9  and  N_10 
REMARK       I    between atoms: N_10  and  C_11 
REMARK    4  A    between atoms: C_11  and  C_13 
REMARK    5  A    between atoms: C_13  and  N_14 
ROOT
HETATM    1  N   UNL     1     -42.387 -48.889  11.055  1.00  0.00    -0.358 N 
HETATM    2  C   UNL     1     -42.495 -47.520  11.143  1.00  0.00     0.237 C 
HETATM    3  O   UNL     1     -42.427 -46.910  12.209  1.00  0.00    -0.272 OA
HETATM    4  H   UNL     1     -42.470 -49.358  10.161  1.00  0.00     0.162 HD
ENDROOT
BRANCH   1   5
HETATM    5  C   UNL     1     -42.160 -49.713  12.231  1.00  0.00     0.152 C 
BRANCH   5   6
HETATM    6  C   UNL     1     -40.900 -50.599  12.127  1.00  0.00     0.292 C 
BRANCH   6   7
HETATM    7  N   UNL     1     -41.107 -51.974  12.627  1.00  0.00     0.090 N 
HETATM    8  C   UNL     1     -42.518 -52.384  12.565  1.00  0.00     0.276 C 
HETATM    9  C   UNL     1     -42.721 -53.834  13.029  1.00  0.00     0.010 C 
HETATM   10  C   UNL     1     -42.151 -54.034  14.437  1.00  0.00     0.012 C 
HETATM   11  C   UNL     1     -44.201 -54.204  12.973  1.00  0.00     0.011 C 
HETATM   12  C   UNL     1     -40.696 -53.552  14.525  1.00  0.00     0.010 C 
HETATM   13  C   UNL     1     -39.741 -54.497  13.788  1.00  0.00     0.011 C 
HETATM   14  C   UNL     1     -40.584 -52.109  13.998  1.00  0.00     0.276 C 
ENDBRANCH   6   7
ENDBRANCH   5   6
ENDBRANCH   1   5
BRANCH   2  15
HETATM   15  C   UNL     1     -42.671 -46.806   9.824  1.00  0.00     0.249 C 
BRANCH  15  16
HETATM   16  N   UNL     1     -43.771 -47.361   9.081  1.00  0.00    -0.264 N 
HETATM   17  C   UNL     1     -43.781 -47.886   7.829  1.00  0.00     0.213 A 
HETATM   18  N   UNL     1     -44.991 -48.334   7.581  1.00  0.00    -0.281 N 
HETATM   19  N   UNL     1     -45.728 -48.076   8.712  1.00  0.00    -0.008 NA
ATOM     20  HN  UNL     1     -45.316 -48.781   6.724  1.00  0.00     0.184 HD
HETATM   21  N   UNL     1     -44.986 -47.486   9.639  1.00  0.00    -0.005 NA
ENDBRANCH  15  16
ENDBRANCH   2  15
TORSDOF 5
ENDMDL
MODEL 5
REMARK VINA RESULT:      -5.7      4.421      5.382
REMARK  5 active torsions:
REMARK  status: ('A' for Active; 'I' for Inactive)
REMARK    1  A    between atoms: N_7  and  C_8 
REMARK    2  A    between atoms: C_8  and  C_9 
REMARK    3  A    between atoms: C_9  and  N_10 
REMARK       I    between atoms: N_10  and  C_11 
REMARK    4  A    between atoms: C_11  and  C_13 
REMARK    5  A    between atoms: C_13  and  N_14 
ROOT
HETATM    1  N   UNL     1     -41.327 -52.482  13.444  1.00  0.00    -0.358 N 
HETATM    2  C   UNL     1     -39.984 -52.767  13.540  1.00  0.00     0.237 C 
HETATM    3  O   UNL     1     -39.522 -53.890  13.346  1.00  0.00    -0.272 OA
HETATM    4  H   UNL     1     -41.673 -51.548  13.632  1.00  0.00     0.162 HD
ENDROOT
BRANCH   1   5
HETATM    5  C   UNL     1     -42.298 -53.501  13.082  1.00  0.00     0.152 C 
BRANCH   5   6
HETATM    6  C   UNL     1     -43.154 -53.986  14.272  1.00  0.00     0.292 C 
BRANCH   6   7
HETATM    7  N   UNL     1     -44.492 -53.361  14.326  1.00  0.00     0.090 N 
HETATM    8  C   UNL     1     -44.983 -52.976  12.995  1.00  0.00     0.276 C 
HETATM    9  C   UNL     1     -46.398 -52.382  13.049  1.00  0.00     0.010 C 
HETATM   10  C   UNL     1     -46.448 -51.196  14.017  1.00  0.00     0.012 C 
HETATM   11  C   UNL     1     -46.853 -51.975  11.649  1.00  0.00     0.011 C 
HETATM   12  C   UNL     1     -45.880 -51.573  15.393  1.00  0.00     0.010 C 
HETATM   13  C   UNL     1     -46.829 -52.498  16.163  1.00  0.00     0.011 C 
HETATM   14  C   UNL     1     -44.482 -52.200  15.234  1.00  0.00     0.276 C 
ENDBRANCH   6   7
ENDBRANCH   5   6
ENDBRANCH   1   5
BRANCH   2  15
HETATM   15  C   UNL     1     -39.101 -51.586  13.868  1.00  0.00     0.249 C 
BRANCH  15  16
HETATM   16  N   UNL     1     -38.582 -50.983  12.669  1.00  0.00    -0.264 N 
HETATM   17  C   UNL     1     -39.162 -50.069  11.849  1.00  0.00     0.213 A 
HETATM   18  N   UNL     1     -38.298 -49.752  10.912  1.00  0.00    -0.281 N 
HETATM   19  N   UNL     1     -37.168 -50.490  11.174  1.00  0.00    -0.008 NA
ATOM     20  HN  UNL     1     -38.437 -49.093  10.146  1.00  0.00     0.184 HD
HETATM   21  N   UNL     1     -37.332 -51.243  12.254  1.00  0.00    -0.005 NA
ENDBRANCH  15  16
ENDBRANCH   2  15
TORSDOF 5
ENDMDL
MODEL 6
REMARK VINA RESULT:      -5.6      4.585      5.361
REMARK  5 active torsions:
REMARK  status: ('A' for Active; 'I' for Inactive)
REMARK    1  A    between atoms: N_7  and  C_8 
REMARK    2  A    between atoms: C_8  and  C_9 
REMARK    3  A    between atoms: C_9  and  N_10 
REMARK       I    between atoms: N_10  and  C_11 
REMARK    4  A    between atoms: C_11  and  C_13 
REMARK    5  A    between atoms: C_13  and  N_14 
ROOT
HETATM    1  N   UNL     1     -41.168 -52.819  13.821  1.00  0.00    -0.358 N 
HETATM    2  C   UNL     1     -39.812 -53.055  13.805  1.00  0.00     0.237 C 
HETATM    3  O   UNL     1     -39.328 -54.158  13.555  1.00  0.00    -0.272 OA
HETATM    4  H   UNL     1     -41.530 -51.902  14.052  1.00  0.00     0.162 HD
ENDROOT
BRANCH   1   5
HETATM    5  C   UNL     1     -42.128 -53.867  13.520  1.00  0.00     0.152 C 
BRANCH   5   6
HETATM    6  C   UNL     1     -43.239 -54.008  14.582  1.00  0.00     0.292 C 
BRANCH   6   7
HETATM    7  N   UNL     1     -44.266 -52.949  14.501  1.00  0.00     0.090 N 
HETATM    8  C   UNL     1     -44.371 -52.176  15.748  1.00  0.00     0.276 C 
HETATM    9  C   UNL     1     -45.397 -51.038  15.639  1.00  0.00     0.010 C 
HETATM   10  C   UNL     1     -46.764 -51.584  15.214  1.00  0.00     0.012 C 
HETATM   11  C   UNL     1     -45.489 -50.283  16.963  1.00  0.00     0.011 C 
HETATM   12  C   UNL     1     -46.654 -52.443  13.947  1.00  0.00     0.010 C 
HETATM   13  C   UNL     1     -46.386 -51.586  12.704  1.00  0.00     0.011 C 
HETATM   14  C   UNL     1     -45.573 -53.524  14.133  1.00  0.00     0.276 C 
ENDBRANCH   6   7
ENDBRANCH   5   6
ENDBRANCH   1   5
BRANCH   2  15
HETATM   15  C   UNL     1     -38.949 -51.848  14.083  1.00  0.00     0.249 C 
BRANCH  15  16
HETATM   16  N   UNL     1     -38.437 -51.289  12.860  1.00  0.00    -0.264 N 
HETATM   17  C   UNL     1     -39.006 -50.377  12.030  1.00  0.00     0.213 A 
HETATM   18  N   UNL     1     -38.152 -50.109  11.069  1.00  0.00    -0.281 N 
HETATM   19  N   UNL     1     -37.040 -50.875  11.325  1.00  0.00    -0.008 NA
ATOM     20  HN  UNL     1     -38.287 -49.464  10.290  1.00  0.00     0.184 HD
HETATM   21  N   UNL     1     -37.204 -51.597  12.426  1.00  0.00    -0.005 NA
ENDBRANCH  15  16
ENDBRANCH   2  15
TORSDOF 5
ENDMDL
MODEL 7
REMARK VINA RESULT:      -5.6      2.517      3.585
REMARK  5 active torsions:
REMARK  status: ('A' for Active; 'I' for Inactive)
REMARK    1  A    between atoms: N_7  and  C_8 
REMARK    2  A    between atoms: C_8  and  C_9 
REMARK    3  A    between atoms: C_9  and  N_10 
REMARK       I    between atoms: N_10  and  C_11 
REMARK    4  A    between atoms: C_11  and  C_13 
REMARK    5  A    between atoms: C_13  and  N_14 
ROOT
HETATM    1  N   UNL     1     -43.051 -48.802  11.539  1.00  0.00    -0.358 N 
HETATM    2  C   UNL     1     -43.025 -47.427  11.496  1.00  0.00     0.237 C 
HETATM    3  O   UNL     1     -43.119 -46.724  12.500  1.00  0.00    -0.272 OA
HETATM    4  H   UNL     1     -42.992 -49.348  10.687  1.00  0.00     0.162 HD
ENDROOT
BRANCH   1   5
HETATM    5  C   UNL     1     -43.172 -49.523  12.795  1.00  0.00     0.152 C 
BRANCH   5   6
HETATM    6  C   UNL     1     -41.823 -50.037  13.342  1.00  0.00     0.292 C 
BRANCH   6   7
HETATM    7  N   UNL     1     -41.826 -51.484  13.646  1.00  0.00     0.090 N 
HETATM    8  C   UNL     1     -40.468 -52.036  13.748  1.00  0.00     0.276 C 
HETATM    9  C   UNL     1     -40.474 -53.525  14.123  1.00  0.00     0.010 C 
HETATM   10  C   UNL     1     -41.320 -54.327  13.128  1.00  0.00     0.012 C 
HETATM   11  C   UNL     1     -39.045 -54.059  14.191  1.00  0.00     0.011 C 
HETATM   12  C   UNL     1     -42.722 -53.721  12.970  1.00  0.00     0.010 C 
HETATM   13  C   UNL     1     -43.588 -53.965  14.211  1.00  0.00     0.011 C 
HETATM   14  C   UNL     1     -42.614 -52.220  12.641  1.00  0.00     0.276 C 
ENDBRANCH   6   7
ENDBRANCH   5   6
ENDBRANCH   1   5
BRANCH   2  15
HETATM   15  C   UNL     1     -42.835 -46.833  10.121  1.00  0.00     0.249 C 
BRANCH  15  16
HETATM   16  N   UNL     1     -43.806 -47.356   9.196  1.00  0.00    -0.264 N 
HETATM   17  C   UNL     1     -43.628 -47.792   7.922  1.00  0.00     0.213 A 
HETATM   18  N   UNL     1     -44.779 -48.245   7.479  1.00  0.00    -0.281 N 
HETATM   19  N   UNL     1     -45.672 -48.081   8.512  1.00  0.00    -0.008 NA
ATOM     20  HN  UNL     1     -44.970 -48.637   6.557  1.00  0.00     0.184 HD
HETATM   21  N   UNL     1     -45.082 -47.543   9.570  1.00  0.00    -0.005 NA
ENDBRANCH  15  16
ENDBRANCH   2  15
TORSDOF 5
ENDMDL
MODEL 8
REMARK VINA RESULT:      -5.4      4.330      5.638
REMARK  5 active torsions:
REMARK  status: ('A' for Active; 'I' for Inactive)
REMARK    1  A    between atoms: N_7  and  C_8 
REMARK    2  A    between atoms: C_8  and  C_9 
REMARK    3  A    between atoms: C_9  and  N_10 
REMARK       I    between atoms: N_10  and  C_11 
REMARK    4  A    between atoms: C_11  and  C_13 
REMARK    5  A    between atoms: C_13  and  N_14 
ROOT
HETATM    1  N   UNL     1     -42.151 -54.197  14.888  1.00  0.00    -0.358 N 
HETATM    2  C   UNL     1     -40.878 -54.259  15.405  1.00  0.00     0.237 C 
HETATM    3  O   UNL     1     -40.493 -55.177  16.128  1.00  0.00    -0.272 OA
HETATM    4  H   UNL     1     -42.438 -53.413  14.313  1.00  0.00     0.162 HD
ENDROOT
BRANCH   1   5
HETATM    5  C   UNL     1     -43.132 -55.237  15.148  1.00  0.00     0.152 C 
BRANCH   5   6
HETATM    6  C   UNL     1     -44.493 -54.984  14.465  1.00  0.00     0.292 C 
BRANCH   6   7
HETATM    7  N   UNL     1     -44.899 -53.563  14.475  1.00  0.00     0.090 N 
HETATM    8  C   UNL     1     -46.008 -53.305  15.405  1.00  0.00     0.276 C 
HETATM    9  C   UNL     1     -46.388 -51.818  15.457  1.00  0.00     0.010 C 
HETATM   10  C   UNL     1     -46.716 -51.297  14.054  1.00  0.00     0.012 C 
HETATM   11  C   UNL     1     -47.558 -51.605  16.415  1.00  0.00     0.011 C 
HETATM   12  C   UNL     1     -45.588 -51.615  13.062  1.00  0.00     0.010 C 
HETATM   13  C   UNL     1     -44.351 -50.747  13.313  1.00  0.00     0.011 C 
HETATM   14  C   UNL     1     -45.247 -53.117  13.114  1.00  0.00     0.276 C 
ENDBRANCH   6   7
ENDBRANCH   5   6
ENDBRANCH   1   5
BRANCH   2  15
HETATM   15  C   UNL     1     -39.963 -53.131  14.994  1.00  0.00     0.249 C 
BRANCH  15  16
HETATM   16  N   UNL     1     -40.275 -52.674  13.665  1.00  0.00    -0.264 N 
HETATM   17  C   UNL     1     -40.394 -51.403  13.202  1.00  0.00     0.213 A 
HETATM   18  N   UNL     1     -40.624 -51.457  11.910  1.00  0.00    -0.281 N 
HETATM   19  N   UNL     1     -40.642 -52.793  11.585  1.00  0.00    -0.008 NA
ATOM     20  HN  UNL     1     -40.762 -50.669  11.277  1.00  0.00     0.184 HD
HETATM   21  N   UNL     1     -40.422 -53.546  12.654  1.00  0.00    -0.005 NA
ENDBRANCH  15  16
ENDBRANCH   2  15
TORSDOF 5
ENDMDL
MODEL 9
REMARK VINA RESULT:      -5.3      2.950      4.122
REMARK  5 active torsions:
REMARK  status: ('A' for Active; 'I' for Inactive)
REMARK    1  A    between atoms: N_7  and  C_8 
REMARK    2  A    between atoms: C_8  and  C_9 
REMARK    3  A    between atoms: C_9  and  N_10 
REMARK       I    between atoms: N_10  and  C_11 
REMARK    4  A    between atoms: C_11  and  C_13 
REMARK    5  A    between atoms: C_13  and  N_14 
ROOT
HETATM    1  N   UNL     1     -41.573 -48.708  13.214  1.00  0.00    -0.358 N 
HETATM    2  C   UNL     1     -41.118 -48.631  11.918  1.00  0.00     0.237 C 
HETATM    3  O   UNL     1     -41.848 -48.789  10.941  1.00  0.00    -0.272 OA
HETATM    4  H   UNL     1     -40.937 -48.593  13.994  1.00  0.00     0.162 HD
ENDROOT
BRANCH   1   5
HETATM    5  C   UNL     1     -42.971 -48.964  13.516  1.00  0.00     0.152 C 
BRANCH   5   6
HETATM    6  C   UNL     1     -43.220 -50.350  14.150  1.00  0.00     0.292 C 
BRANCH   6   7
HETATM    7  N   UNL     1     -44.608 -50.830  13.985  1.00  0.00     0.090 N 
HETATM    8  C   UNL     1     -45.318 -50.937  15.268  1.00  0.00     0.276 C 
HETATM    9  C   UNL     1     -46.778 -51.379  15.087  1.00  0.00     0.010 C 
HETATM   10  C   UNL     1     -46.849 -52.696  14.308  1.00  0.00     0.012 C 
HETATM   11  C   UNL     1     -47.465 -51.500  16.445  1.00  0.00     0.011 C 
HETATM   12  C   UNL     1     -46.059 -52.613  12.994  1.00  0.00     0.010 C 
HETATM   13  C   UNL     1     -46.770 -51.731  11.961  1.00  0.00     0.011 C 
HETATM   14  C   UNL     1     -44.626 -52.119  13.270  1.00  0.00     0.276 C 
ENDBRANCH   6   7
ENDBRANCH   5   6
ENDBRANCH   1   5
BRANCH   2  15
HETATM   15  C   UNL     1     -39.651 -48.300  11.773  1.00  0.00     0.249 C 
BRANCH  15  16
HETATM   16  N   UNL     1     -38.847 -49.491  11.837  1.00  0.00    -0.264 N 
HETATM   17  C   UNL     1     -37.631 -49.735  11.283  1.00  0.00     0.213 A 
HETATM   18  N   UNL     1     -37.243 -50.933  11.656  1.00  0.00    -0.281 N 
HETATM   19  N   UNL     1     -38.248 -51.424  12.457  1.00  0.00    -0.008 NA
ATOM     20  HN  UNL     1     -36.375 -51.404  11.402  1.00  0.00     0.184 HD
HETATM   21  N   UNL     1     -39.231 -50.543  12.578  1.00  0.00    -0.005 NA
ENDBRANCH  15  16
ENDBRANCH   2  15
TORSDOF 5
ENDMDL
