MODEL 1
REMARK VINA RESULT:      -5.8      0.000      0.000
REMARK  3 active torsions:
REMARK  status: ('A' for Active; 'I' for Inactive)
REMARK       I    between atoms: N_1  and  C_2 
REMARK    1  A    between atoms: C_2  and  C_4 
REMARK    2  A    between atoms: C_4  and  N_5 
REMARK    3  A    between atoms: C_7  and  N_8 
REMARK       I    between atoms: N_8  and  C_9 
REMARK       I    between atoms: C_9  and  N_11 
ROOT
HETATM    1  N   UNL     1     -39.543 -49.651  12.015  1.00  0.00    -0.293 N 
HETATM    2  C   UNL     1     -40.298 -50.663  12.538  1.00  0.00     0.141 A 
HETATM    3  C   UNL     1     -41.589 -50.449  12.122  1.00  0.00     0.070 A 
HETATM    4  C   UNL     1     -41.506 -49.279  11.333  1.00  0.00     0.138 A 
HETATM    5  N   UNL     1     -40.265 -48.792  11.254  1.00  0.00    -0.307 N 
ATOM      6  HN  UNL     1     -39.939 -47.971  10.744  1.00  0.00     0.186 HD
ENDROOT
BRANCH   3   7
HETATM    7  N   UNL     1     -42.734 -51.181  12.391  1.00  0.00    -0.306 N 
HETATM    8  C   UNL     1     -43.679 -50.869  13.340  1.00  0.00     0.323 C 
HETATM    9  O   UNL     1     -43.595 -49.889  14.080  1.00  0.00    -0.247 OA
HETATM   10  N   UNL     1     -44.767 -51.738  13.428  1.00  0.00    -0.333 N 
HETATM   11  C   UNL     1     -45.821 -51.419  14.404  1.00  0.00     0.137 C 
HETATM   12  C   UNL     1     -45.013 -52.964  12.651  1.00  0.00     0.137 C 
HETATM   13  C   UNL     1     -45.987 -52.499  15.476  1.00  0.00     0.093 C 
HETATM   14  S   UNL     1     -46.421 -54.118  14.754  1.00  0.00    -0.166 SA
HETATM   15  C   UNL     1     -45.072 -54.213  13.534  1.00  0.00     0.093 C 
HETATM   16  H   UNL     1     -42.848 -51.999  11.823  1.00  0.00     0.171 HD
ENDBRANCH   3   7
BRANCH   1  17
HETATM   17  C   UNL     1     -38.110 -49.463  12.169  1.00  0.00     0.250 C 
BRANCH  17  18
HETATM   18  C   UNL     1     -37.277 -50.484  11.420  1.00  0.00     0.235 C 
HETATM   19  N   UNL     1     -37.090 -50.289  10.084  1.00  0.00    -0.369 N 
HETATM   20  H   UNL     1     -36.535 -50.947   9.559  1.00  0.00     0.159 HD
HETATM   21  H   UNL     1     -37.404 -49.429   9.636  1.00  0.00     0.159 HD
HETATM   22  O   UNL     1     -36.853 -51.506  11.957  1.00  0.00    -0.272 OA
ENDBRANCH  17  18
ENDBRANCH   1  17
TORSDOF 3
ENDMDL
MODEL 2
REMARK VINA RESULT:      -5.6      4.271      6.341
REMARK  3 active torsions:
REMARK  status: ('A' for Active; 'I' for Inactive)
REMARK       I    between atoms: N_1  and  C_2 
REMARK    1  A    between atoms: C_2  and  C_4 
REMARK    2  A    between atoms: C_4  and  N_5 
REMARK    3  A    between atoms: C_7  and  N_8 
REMARK       I    between atoms: N_8  and  C_9 
REMARK       I    between atoms: C_9  and  N_11 
ROOT
HETATM    1  N   UNL     1     -42.403 -47.066   9.729  1.00  0.00    -0.293 N 
HETATM    2  C   UNL     1     -42.271 -48.070  10.648  1.00  0.00     0.141 A 
HETATM    3  C   UNL     1     -41.177 -47.759  11.418  1.00  0.00     0.070 A 
HETATM    4  C   UNL     1     -40.723 -46.529  10.889  1.00  0.00     0.138 A 
HETATM    5  N   UNL     1     -41.467 -46.095   9.868  1.00  0.00    -0.307 N 
ATOM      6  HN  UNL     1     -41.358 -45.239   9.324  1.00  0.00     0.186 HD
ENDROOT
BRANCH   3   7
HETATM    7  N   UNL     1     -40.615 -48.459  12.473  1.00  0.00    -0.306 N 
HETATM    8  C   UNL     1     -39.759 -49.529  12.358  1.00  0.00     0.323 C 
HETATM    9  O   UNL     1     -39.408 -49.999  11.276  1.00  0.00    -0.247 OA
HETATM   10  N   UNL     1     -39.295 -50.073  13.557  1.00  0.00    -0.333 N 
HETATM   11  C   UNL     1     -38.347 -51.195  13.478  1.00  0.00     0.137 C 
HETATM   12  C   UNL     1     -39.634 -49.661  14.929  1.00  0.00     0.137 C 
HETATM   13  C   UNL     1     -38.886 -52.477  14.118  1.00  0.00     0.093 C 
HETATM   14  S   UNL     1     -39.275 -52.248  15.886  1.00  0.00    -0.166 SA
HETATM   15  C   UNL     1     -40.330 -50.773  15.718  1.00  0.00     0.093 C 
HETATM   16  H   UNL     1     -40.877 -48.124  13.381  1.00  0.00     0.171 HD
ENDBRANCH   3   7
BRANCH   1  17
HETATM   17  C   UNL     1     -43.432 -46.949   8.708  1.00  0.00     0.250 C 
BRANCH  17  18
HETATM   18  C   UNL     1     -44.361 -45.769   8.912  1.00  0.00     0.235 C 
HETATM   19  N   UNL     1     -45.702 -45.999   8.821  1.00  0.00    -0.369 N 
HETATM   20  H   UNL     1     -46.347 -45.236   8.959  1.00  0.00     0.159 HD
HETATM   21  H   UNL     1     -46.061 -46.949   8.733  1.00  0.00     0.159 HD
HETATM   22  O   UNL     1     -43.943 -44.623   9.064  1.00  0.00    -0.272 OA
ENDBRANCH  17  18
ENDBRANCH   1  17
TORSDOF 3
ENDMDL
MODEL 3
REMARK VINA RESULT:      -5.6      3.133      3.602
REMARK  3 active torsions:
REMARK  status: ('A' for Active; 'I' for Inactive)
REMARK       I    between atoms: N_1  and  C_2 
REMARK    1  A    between atoms: C_2  and  C_4 
REMARK    2  A    between atoms: C_4  and  N_5 
REMARK    3  A    between atoms: C_7  and  N_8 
REMARK       I    between atoms: N_8  and  C_9 
REMARK       I    between atoms: C_9  and  N_11 
ROOT
HETATM    1  N   UNL     1     -40.519 -46.964  11.058  1.00  0.00    -0.293 N 
HETATM    2  C   UNL     1     -40.571 -48.094  11.826  1.00  0.00     0.141 A 
HETATM    3  C   UNL     1     -41.600 -48.858  11.333  1.00  0.00     0.070 A 
HETATM    4  C   UNL     1     -42.102 -48.102  10.250  1.00  0.00     0.138 A 
HETATM    5  N   UNL     1     -41.446 -46.953  10.069  1.00  0.00    -0.307 N 
ATOM      6  HN  UNL     1     -41.603 -46.240   9.357  1.00  0.00     0.186 HD
ENDROOT
BRANCH   3   7
HETATM    7  N   UNL     1     -42.071 -50.087  11.768  1.00  0.00    -0.306 N 
HETATM    8  C   UNL     1     -42.885 -50.293  12.857  1.00  0.00     0.323 C 
HETATM    9  O   UNL     1     -43.275 -49.384  13.589  1.00  0.00    -0.247 OA
HETATM   10  N   UNL     1     -43.255 -51.615  13.102  1.00  0.00    -0.333 N 
HETATM   11  C   UNL     1     -44.157 -51.875  14.236  1.00  0.00     0.137 C 
HETATM   12  C   UNL     1     -42.858 -52.821  12.356  1.00  0.00     0.137 C 
HETATM   13  C   UNL     1     -43.527 -52.771  15.305  1.00  0.00     0.093 C 
HETATM   14  S   UNL     1     -43.050 -54.401  14.637  1.00  0.00    -0.166 SA
HETATM   15  C   UNL     1     -42.071 -53.810  13.220  1.00  0.00     0.093 C 
HETATM   16  H   UNL     1     -41.773 -50.867  11.213  1.00  0.00     0.171 HD
ENDBRANCH   3   7
BRANCH   1  17
HETATM   17  C   UNL     1     -39.578 -45.863  11.190  1.00  0.00     0.250 C 
BRANCH  17  18
HETATM   18  C   UNL     1     -39.717 -44.810  10.109  1.00  0.00     0.235 C 
HETATM   19  N   UNL     1     -38.835 -44.851   9.071  1.00  0.00    -0.369 N 
HETATM   20  H   UNL     1     -38.907 -44.168   8.332  1.00  0.00     0.159 HD
HETATM   21  H   UNL     1     -38.184 -45.629   8.973  1.00  0.00     0.159 HD
HETATM   22  O   UNL     1     -40.528 -43.889  10.191  1.00  0.00    -0.272 OA
ENDBRANCH  17  18
ENDBRANCH   1  17
TORSDOF 3
ENDMDL
MODEL 4
REMARK VINA RESULT:      -5.4      3.035      3.730
REMARK  3 active torsions:
REMARK  status: ('A' for Active; 'I' for Inactive)
REMARK       I    between atoms: N_1  and  C_2 
REMARK    1  A    between atoms: C_2  and  C_4 
REMARK    2  A    between atoms: C_4  and  N_5 
REMARK    3  A    between atoms: C_7  and  N_8 
REMARK       I    between atoms: N_8  and  C_9 
REMARK       I    between atoms: C_9  and  N_11 
ROOT
HETATM    1  N   UNL     1     -40.714 -46.894  11.129  1.00  0.00    -0.293 N 
HETATM    2  C   UNL     1     -41.089 -47.717  12.154  1.00  0.00     0.141 A 
HETATM    3  C   UNL     1     -42.141 -48.470  11.691  1.00  0.00     0.070 A 
HETATM    4  C   UNL     1     -42.316 -48.032  10.358  1.00  0.00     0.138 A 
HETATM    5  N   UNL     1     -41.447 -47.082  10.005  1.00  0.00    -0.307 N 
ATOM      6  HN  UNL     1     -41.357 -46.610   9.104  1.00  0.00     0.186 HD
ENDROOT
BRANCH   3   7
HETATM    7  N   UNL     1     -42.885 -49.439  12.344  1.00  0.00    -0.306 N 
HETATM    8  C   UNL     1     -42.481 -50.731  12.584  1.00  0.00     0.323 C 
HETATM    9  O   UNL     1     -41.395 -51.178  12.217  1.00  0.00    -0.247 OA
HETATM   10  N   UNL     1     -43.385 -51.535  13.280  1.00  0.00    -0.333 N 
HETATM   11  C   UNL     1     -42.976 -52.914  13.591  1.00  0.00     0.137 C 
HETATM   12  C   UNL     1     -44.729 -51.178  13.762  1.00  0.00     0.137 C 
HETATM   13  C   UNL     1     -43.883 -53.964  12.944  1.00  0.00     0.093 C 
HETATM   14  S   UNL     1     -45.617 -53.800  13.490  1.00  0.00    -0.166 SA
HETATM   15  C   UNL     1     -45.826 -52.030  13.119  1.00  0.00     0.093 C 
HETATM   16  H   UNL     1     -43.787 -49.131  12.657  1.00  0.00     0.171 HD
ENDBRANCH   3   7
BRANCH   1  17
HETATM   17  C   UNL     1     -39.629 -45.926  11.141  1.00  0.00     0.250 C 
BRANCH  17  18
HETATM   18  C   UNL     1     -39.775 -44.835  10.099  1.00  0.00     0.235 C 
HETATM   19  N   UNL     1     -38.874 -44.815   9.076  1.00  0.00    -0.369 N 
HETATM   20  H   UNL     1     -38.949 -44.106   8.363  1.00  0.00     0.159 HD
HETATM   21  H   UNL     1     -38.202 -45.573   8.961  1.00  0.00     0.159 HD
HETATM   22  O   UNL     1     -40.609 -43.937  10.201  1.00  0.00    -0.272 OA
ENDBRANCH  17  18
ENDBRANCH   1  17
TORSDOF 3
ENDMDL
MODEL 5
REMARK VINA RESULT:      -5.4      3.575      6.797
REMARK  3 active torsions:
REMARK  status: ('A' for Active; 'I' for Inactive)
REMARK       I    between atoms: N_1  and  C_2 
REMARK    1  A    between atoms: C_2  and  C_4 
REMARK    2  A    between atoms: C_4  and  N_5 
REMARK    3  A    between atoms: C_7  and  N_8 
REMARK       I    between atoms: N_8  and  C_9 
REMARK       I    between atoms: C_9  and  N_11 
ROOT
HETATM    1  N   UNL     1     -42.530 -53.579  13.396  1.00  0.00    -0.293 N 
HETATM    2  C   UNL     1     -42.867 -52.280  13.138  1.00  0.00     0.141 A 
HETATM    3  C   UNL     1     -41.944 -51.803  12.239  1.00  0.00     0.070 A 
HETATM    4  C   UNL     1     -41.092 -52.906  12.004  1.00  0.00     0.138 A 
HETATM    5  N   UNL     1     -41.445 -53.993  12.695  1.00  0.00    -0.307 N 
ATOM      6  HN  UNL     1     -41.006 -54.913  12.696  1.00  0.00     0.186 HD
ENDROOT
BRANCH   3   7
HETATM    7  N   UNL     1     -41.836 -50.543  11.673  1.00  0.00    -0.306 N 
HETATM    8  C   UNL     1     -40.906 -49.589  12.014  1.00  0.00     0.323 C 
HETATM    9  O   UNL     1     -40.062 -49.754  12.895  1.00  0.00    -0.247 OA
HETATM   10  N   UNL     1     -40.966 -48.393  11.298  1.00  0.00    -0.333 N 
HETATM   11  C   UNL     1     -39.965 -47.360  11.606  1.00  0.00     0.137 C 
HETATM   12  C   UNL     1     -41.922 -48.016  10.244  1.00  0.00     0.137 C 
HETATM   13  C   UNL     1     -40.588 -46.063  12.129  1.00  0.00     0.093 C 
HETATM   14  S   UNL     1     -41.743 -45.325  10.925  1.00  0.00    -0.166 SA
HETATM   15  C   UNL     1     -42.768 -46.800  10.630  1.00  0.00     0.093 C 
HETATM   16  H   UNL     1     -42.509 -50.350  10.955  1.00  0.00     0.171 HD
ENDBRANCH   3   7
BRANCH   1  17
HETATM   17  C   UNL     1     -43.227 -54.502  14.276  1.00  0.00     0.250 C 
BRANCH  17  18
HETATM   18  C   UNL     1     -44.731 -54.510  14.084  1.00  0.00     0.235 C 
HETATM   19  N   UNL     1     -45.507 -54.216  15.165  1.00  0.00    -0.369 N 
HETATM   20  H   UNL     1     -46.511 -54.206  15.067  1.00  0.00     0.159 HD
HETATM   21  H   UNL     1     -45.085 -53.893  16.035  1.00  0.00     0.159 HD
HETATM   22  O   UNL     1     -45.255 -54.855  13.026  1.00  0.00    -0.272 OA
ENDBRANCH  17  18
ENDBRANCH   1  17
TORSDOF 3
ENDMDL
MODEL 6
REMARK VINA RESULT:      -5.3      3.769      5.326
REMARK  3 active torsions:
REMARK  status: ('A' for Active; 'I' for Inactive)
REMARK       I    between atoms: N_1  and  C_2 
REMARK    1  A    between atoms: C_2  and  C_4 
REMARK    2  A    between atoms: C_4  and  N_5 
REMARK    3  A    between atoms: C_7  and  N_8 
REMARK       I    between atoms: N_8  and  C_9 
REMARK       I    between atoms: C_9  and  N_11 
ROOT
HETATM    1  N   UNL     1     -42.760 -48.160  10.723  1.00  0.00    -0.293 N 
HETATM    2  C   UNL     1     -42.690 -48.880  11.883  1.00  0.00     0.141 A 
HETATM    3  C   UNL     1     -41.450 -49.471  11.907  1.00  0.00     0.070 A 
HETATM    4  C   UNL     1     -40.836 -49.030  10.712  1.00  0.00     0.138 A 
HETATM    5  N   UNL     1     -41.621 -48.225   9.991  1.00  0.00    -0.307 N 
ATOM      6  HN  UNL     1     -41.413 -47.769   9.102  1.00  0.00     0.186 HD
ENDROOT
BRANCH   3   7
HETATM    7  N   UNL     1     -40.893 -50.311  12.857  1.00  0.00    -0.306 N 
HETATM    8  C   UNL     1     -40.873 -51.685  12.799  1.00  0.00     0.323 C 
HETATM    9  O   UNL     1     -41.378 -52.328  11.879  1.00  0.00    -0.247 OA
HETATM   10  N   UNL     1     -40.239 -52.333  13.860  1.00  0.00    -0.333 N 
HETATM   11  C   UNL     1     -40.162 -53.801  13.817  1.00  0.00     0.137 C 
HETATM   12  C   UNL     1     -39.615 -51.728  15.048  1.00  0.00     0.137 C 
HETATM   13  C   UNL     1     -40.888 -54.470  14.986  1.00  0.00     0.093 C 
HETATM   14  S   UNL     1     -40.202 -53.961  16.599  1.00  0.00    -0.166 SA
HETATM   15  C   UNL     1     -40.296 -52.160  16.349  1.00  0.00     0.093 C 
HETATM   16  H   UNL     1     -40.476 -49.838  13.638  1.00  0.00     0.171 HD
ENDBRANCH   3   7
BRANCH   1  17
HETATM   17  C   UNL     1     -43.877 -47.349  10.267  1.00  0.00     0.250 C 
BRANCH  17  18
HETATM   18  C   UNL     1     -43.795 -46.968   8.802  1.00  0.00     0.235 C 
HETATM   19  N   UNL     1     -44.367 -47.812   7.897  1.00  0.00    -0.369 N 
HETATM   20  H   UNL     1     -44.336 -47.582   6.916  1.00  0.00     0.159 HD
HETATM   21  H   UNL     1     -44.925 -48.605   8.209  1.00  0.00     0.159 HD
HETATM   22  O   UNL     1     -43.162 -45.988   8.414  1.00  0.00    -0.272 OA
ENDBRANCH  17  18
ENDBRANCH   1  17
TORSDOF 3
ENDMDL
MODEL 7
REMARK VINA RESULT:      -5.2      7.527      9.889
REMARK  3 active torsions:
REMARK  status: ('A' for Active; 'I' for Inactive)
REMARK       I    between atoms: N_1  and  C_2 
REMARK    1  A    between atoms: C_2  and  C_4 
REMARK    2  A    between atoms: C_4  and  N_5 
REMARK    3  A    between atoms: C_7  and  N_8 
REMARK       I    between atoms: N_8  and  C_9 
REMARK       I    between atoms: C_9  and  N_11 
ROOT
HETATM    1  N   UNL     1     -41.937 -46.588  10.498  1.00  0.00    -0.293 N 
HETATM    2  C   UNL     1     -42.298 -45.425  11.118  1.00  0.00     0.141 A 
HETATM    3  C   UNL     1     -41.145 -44.703  11.305  1.00  0.00     0.070 A 
HETATM    4  C   UNL     1     -40.135 -45.518  10.745  1.00  0.00     0.138 A 
HETATM    5  N   UNL     1     -40.607 -46.661  10.243  1.00  0.00    -0.307 N 
ATOM      6  HN  UNL     1     -40.092 -47.410   9.780  1.00  0.00     0.186 HD
ENDROOT
BRANCH   3   7
HETATM    7  N   UNL     1     -40.968 -43.465  11.901  1.00  0.00    -0.306 N 
HETATM    8  C   UNL     1     -41.402 -42.263  11.392  1.00  0.00     0.323 C 
HETATM    9  O   UNL     1     -41.992 -42.159  10.317  1.00  0.00    -0.247 OA
HETATM   10  N   UNL     1     -41.134 -41.137  12.171  1.00  0.00    -0.333 N 
HETATM   11  C   UNL     1     -41.615 -39.835  11.682  1.00  0.00     0.137 C 
HETATM   12  C   UNL     1     -40.417 -41.073  13.456  1.00  0.00     0.137 C 
HETATM   13  C   UNL     1     -40.480 -38.843  11.414  1.00  0.00     0.093 C 
HETATM   14  S   UNL     1     -39.501 -38.503  12.916  1.00  0.00    -0.166 SA
HETATM   15  C   UNL     1     -39.143 -40.229  13.373  1.00  0.00     0.093 C 
HETATM   16  H   UNL     1     -40.481 -43.489  12.777  1.00  0.00     0.171 HD
ENDBRANCH   3   7
BRANCH   1  17
HETATM   17  C   UNL     1     -42.821 -47.664  10.080  1.00  0.00     0.250 C 
BRANCH  17  18
HETATM   18  C   UNL     1     -43.477 -47.426   8.734  1.00  0.00     0.235 C 
HETATM   19  N   UNL     1     -42.996 -48.121   7.665  1.00  0.00    -0.369 N 
HETATM   20  H   UNL     1     -43.416 -47.989   6.758  1.00  0.00     0.159 HD
HETATM   21  H   UNL     1     -42.299 -48.853   7.793  1.00  0.00     0.159 HD
HETATM   22  O   UNL     1     -44.351 -46.576   8.572  1.00  0.00    -0.272 OA
ENDBRANCH  17  18
ENDBRANCH   1  17
TORSDOF 3
ENDMDL
MODEL 8
REMARK VINA RESULT:      -5.2      7.562      9.647
REMARK  3 active torsions:
REMARK  status: ('A' for Active; 'I' for Inactive)
REMARK       I    between atoms: N_1  and  C_2 
REMARK    1  A    between atoms: C_2  and  C_4 
REMARK    2  A    between atoms: C_4  and  N_5 
REMARK    3  A    between atoms: C_7  and  N_8 
REMARK       I    between atoms: N_8  and  C_9 
REMARK       I    between atoms: C_9  and  N_11 
ROOT
HETATM    1  N   UNL     1     -40.440 -46.306  11.301  1.00  0.00    -0.293 N 
HETATM    2  C   UNL     1     -40.901 -45.174  11.912  1.00  0.00     0.141 A 
HETATM    3  C   UNL     1     -40.417 -44.111  11.189  1.00  0.00     0.070 A 
HETATM    4  C   UNL     1     -39.681 -44.713  10.144  1.00  0.00     0.138 A 
HETATM    5  N   UNL     1     -39.696 -46.047  10.198  1.00  0.00    -0.307 N 
ATOM      6  HN  UNL     1     -39.255 -46.712   9.562  1.00  0.00     0.186 HD
ENDROOT
BRANCH   3   7
HETATM    7  N   UNL     1     -40.585 -42.752  11.402  1.00  0.00    -0.306 N 
HETATM    8  C   UNL     1     -39.988 -42.018  12.400  1.00  0.00     0.323 C 
HETATM    9  O   UNL     1     -39.236 -42.509  13.241  1.00  0.00    -0.247 OA
HETATM   10  N   UNL     1     -40.284 -40.654  12.416  1.00  0.00    -0.333 N 
HETATM   11  C   UNL     1     -39.636 -39.826  13.445  1.00  0.00     0.137 C 
HETATM   12  C   UNL     1     -41.180 -39.911  11.515  1.00  0.00     0.137 C 
HETATM   13  C   UNL     1     -40.637 -39.164  14.395  1.00  0.00     0.093 C 
HETATM   14  S   UNL     1     -41.803 -38.075  13.509  1.00  0.00    -0.166 SA
HETATM   15  C   UNL     1     -42.358 -39.275  12.257  1.00  0.00     0.093 C 
HETATM   16  H   UNL     1     -41.200 -42.301  10.750  1.00  0.00     0.171 HD
ENDBRANCH   3   7
BRANCH   1  17
HETATM   17  C   UNL     1     -40.706 -47.680  11.697  1.00  0.00     0.250 C 
BRANCH  17  18
HETATM   18  C   UNL     1     -41.249 -48.543  10.576  1.00  0.00     0.235 C 
HETATM   19  N   UNL     1     -40.632 -49.736  10.342  1.00  0.00    -0.369 N 
HETATM   20  H   UNL     1     -40.975 -50.336   9.608  1.00  0.00     0.159 HD
HETATM   21  H   UNL     1     -39.909 -50.079  10.973  1.00  0.00     0.159 HD
HETATM   22  O   UNL     1     -42.152 -48.162   9.833  1.00  0.00    -0.272 OA
ENDBRANCH  17  18
ENDBRANCH   1  17
TORSDOF 3
ENDMDL
MODEL 9
REMARK VINA RESULT:      -5.2      1.747      2.220
REMARK  3 active torsions:
REMARK  status: ('A' for Active; 'I' for Inactive)
REMARK       I    between atoms: N_1  and  C_2 
REMARK    1  A    between atoms: C_2  and  C_4 
REMARK    2  A    between atoms: C_4  and  N_5 
REMARK    3  A    between atoms: C_7  and  N_8 
REMARK       I    between atoms: N_8  and  C_9 
REMARK       I    between atoms: C_9  and  N_11 
ROOT
HETATM    1  N   UNL     1     -40.368 -50.629  12.245  1.00  0.00    -0.293 N 
HETATM    2  C   UNL     1     -41.147 -50.609  13.368  1.00  0.00     0.141 A 
HETATM    3  C   UNL     1     -41.998 -51.684  13.278  1.00  0.00     0.070 A 
HETATM    4  C   UNL     1     -41.640 -52.304  12.059  1.00  0.00     0.138 A 
HETATM    5  N   UNL     1     -40.645 -51.676  11.428  1.00  0.00    -0.307 N 
ATOM      6  HN  UNL     1     -40.199 -51.924  10.545  1.00  0.00     0.186 HD
ENDROOT
BRANCH   3   7
HETATM    7  N   UNL     1     -42.990 -52.097  14.152  1.00  0.00    -0.306 N 
HETATM    8  C   UNL     1     -44.332 -51.822  14.029  1.00  0.00     0.323 C 
HETATM    9  O   UNL     1     -44.801 -51.146  13.114  1.00  0.00    -0.247 OA
HETATM   10  N   UNL     1     -45.159 -52.357  15.018  1.00  0.00    -0.333 N 
HETATM   11  C   UNL     1     -46.606 -52.118  14.902  1.00  0.00     0.137 C 
HETATM   12  C   UNL     1     -44.768 -53.155  16.192  1.00  0.00     0.137 C 
HETATM   13  C   UNL     1     -47.175 -51.327  16.083  1.00  0.00     0.093 C 
HETATM   14  S   UNL     1     -46.915 -52.187  17.671  1.00  0.00    -0.166 SA
HETATM   15  C   UNL     1     -45.123 -52.465  17.511  1.00  0.00     0.093 C 
HETATM   16  H   UNL     1     -42.661 -52.644  14.926  1.00  0.00     0.171 HD
ENDBRANCH   3   7
BRANCH   1  17
HETATM   17  C   UNL     1     -39.307 -49.697  11.904  1.00  0.00     0.250 C 
BRANCH  17  18
HETATM   18  C   UNL     1     -37.977 -50.365  11.616  1.00  0.00     0.235 C 
HETATM   19  N   UNL     1     -37.301 -49.972  10.500  1.00  0.00    -0.369 N 
HETATM   20  H   UNL     1     -36.409 -50.393  10.286  1.00  0.00     0.159 HD
HETATM   21  H   UNL     1     -37.627 -49.179   9.948  1.00  0.00     0.159 HD
HETATM   22  O   UNL     1     -37.549 -51.294  12.299  1.00  0.00    -0.272 OA
ENDBRANCH  17  18
ENDBRANCH   1  17
TORSDOF 3
ENDMDL
