MODEL 1
REMARK VINA RESULT:      -5.4      0.000      0.000
REMARK  2 active torsions:
REMARK  status: ('A' for Active; 'I' for Inactive)
REMARK    1  A    between atoms: C_2  and  C_3 
REMARK    2  A    between atoms: C_3  and  C_10 
ROOT
HETATM    1  C   UNL     1     -41.903 -47.388  10.668  1.00  0.00     0.145 C 
HETATM    2  N   UNL     1     -40.997 -46.457  10.028  1.00  0.00    -0.320 N 
HETATM    3  C   UNL     1     -41.029 -45.218  10.622  1.00  0.00     0.324 C 
HETATM    4  O   UNL     1     -40.499 -44.218  10.175  1.00  0.00    -0.247 OA
HETATM    5  N   UNL     1     -41.733 -45.306  11.773  1.00  0.00    -0.277 N 
HETATM    6  C   UNL     1     -42.216 -46.569  11.945  1.00  0.00     0.259 C 
HETATM    7  O   UNL     1     -42.842 -46.947  12.924  1.00  0.00    -0.270 OA
HETATM    8  H   UNL     1     -40.624 -46.560   9.095  1.00  0.00     0.165 HD
HETATM    9  H   UNL     1     -41.868 -44.544  12.413  1.00  0.00     0.173 HD
ENDROOT
BRANCH   1  10
HETATM   10  C   UNL     1     -41.273 -48.759  10.942  1.00  0.00     0.042 C 
HETATM   11  C   UNL     1     -39.967 -48.732  11.724  1.00  0.00     0.008 C 
ENDBRANCH   1  10
BRANCH   1  12
HETATM   12  C   UNL     1     -43.138 -47.510   9.812  1.00  0.00     0.013 A 
HETATM   13  C   UNL     1     -43.191 -47.713   8.408  1.00  0.00     0.118 A 
HETATM   14  N   UNL     1     -44.439 -47.773   7.942  1.00  0.00    -0.310 N 
HETATM   15  N   UNL     1     -45.198 -47.607   9.037  1.00  0.00    -0.307 N 
ATOM     16  HN  UNL     1     -44.746 -47.911   6.979  1.00  0.00     0.186 HD
HETATM   17  C   UNL     1     -46.636 -47.627   8.933  1.00  0.00     0.177 C 
HETATM   18  C   UNL     1     -44.470 -47.428  10.178  1.00  0.00     0.121 A 
ENDBRANCH   1  12
TORSDOF 2
ENDMDL
MODEL 2
REMARK VINA RESULT:      -5.2      6.429      8.047
REMARK  2 active torsions:
REMARK  status: ('A' for Active; 'I' for Inactive)
REMARK    1  A    between atoms: C_2  and  C_3 
REMARK    2  A    between atoms: C_3  and  C_10 
ROOT
HETATM    1  C   UNL     1     -45.468 -52.557  13.593  1.00  0.00     0.145 C 
HETATM    2  N   UNL     1     -45.861 -53.874  13.135  1.00  0.00    -0.320 N 
HETATM    3  C   UNL     1     -45.662 -54.833  14.099  1.00  0.00     0.324 C 
HETATM    4  O   UNL     1     -45.746 -56.033  13.915  1.00  0.00    -0.247 OA
HETATM    5  N   UNL     1     -45.369 -54.221  15.268  1.00  0.00    -0.277 N 
HETATM    6  C   UNL     1     -45.322 -52.869  15.103  1.00  0.00     0.259 C 
HETATM    7  O   UNL     1     -45.132 -52.064  16.003  1.00  0.00    -0.270 OA
HETATM    8  H   UNL     1     -45.964 -54.144  12.168  1.00  0.00     0.165 HD
HETATM    9  H   UNL     1     -45.221 -54.702  16.137  1.00  0.00     0.173 HD
ENDROOT
BRANCH   1  10
HETATM   10  C   UNL     1     -46.500 -51.470  13.274  1.00  0.00     0.042 C 
HETATM   11  C   UNL     1     -47.086 -51.517  11.869  1.00  0.00     0.008 C 
ENDBRANCH   1  10
BRANCH   1  12
HETATM   12  C   UNL     1     -44.122 -52.231  12.995  1.00  0.00     0.013 A 
HETATM   13  C   UNL     1     -43.342 -53.053  12.141  1.00  0.00     0.118 A 
HETATM   14  N   UNL     1     -42.191 -52.481  11.785  1.00  0.00    -0.310 N 
HETATM   15  N   UNL     1     -42.219 -51.291  12.406  1.00  0.00    -0.307 N 
ATOM     16  HN  UNL     1     -41.459 -52.859  11.182  1.00  0.00     0.186 HD
HETATM   17  C   UNL     1     -41.126 -50.364  12.247  1.00  0.00     0.177 C 
HETATM   18  C   UNL     1     -43.343 -51.099  13.158  1.00  0.00     0.121 A 
ENDBRANCH   1  12
TORSDOF 2
ENDMDL
MODEL 3
REMARK VINA RESULT:      -5.2      2.159      4.253
REMARK  2 active torsions:
REMARK  status: ('A' for Active; 'I' for Inactive)
REMARK    1  A    between atoms: C_2  and  C_3 
REMARK    2  A    between atoms: C_3  and  C_10 
ROOT
HETATM    1  C   UNL     1     -41.218 -46.354  11.334  1.00  0.00     0.145 C 
HETATM    2  N   UNL     1     -41.446 -45.920   9.972  1.00  0.00    -0.320 N 
HETATM    3  C   UNL     1     -42.764 -46.048   9.605  1.00  0.00     0.324 C 
HETATM    4  O   UNL     1     -43.187 -45.919   8.471  1.00  0.00    -0.247 OA
HETATM    5  N   UNL     1     -43.496 -46.332  10.706  1.00  0.00    -0.277 N 
HETATM    6  C   UNL     1     -42.692 -46.442  11.801  1.00  0.00     0.259 C 
HETATM    7  O   UNL     1     -43.091 -46.639  12.940  1.00  0.00    -0.270 OA
HETATM    8  H   UNL     1     -40.731 -45.834   9.264  1.00  0.00     0.165 HD
HETATM    9  H   UNL     1     -44.495 -46.434  10.710  1.00  0.00     0.173 HD
ENDROOT
BRANCH   1  10
HETATM   10  C   UNL     1     -40.360 -45.379  12.148  1.00  0.00     0.042 C 
HETATM   11  C   UNL     1     -40.106 -44.029  11.492  1.00  0.00     0.008 C 
ENDBRANCH   1  10
BRANCH   1  12
HETATM   12  C   UNL     1     -40.602 -47.730  11.295  1.00  0.00     0.013 A 
HETATM   13  C   UNL     1     -41.121 -48.884  10.652  1.00  0.00     0.118 A 
HETATM   14  N   UNL     1     -40.340 -49.955  10.805  1.00  0.00    -0.310 N 
HETATM   15  N   UNL     1     -39.317 -49.502  11.546  1.00  0.00    -0.307 N 
ATOM     16  HN  UNL     1     -40.487 -50.898  10.444  1.00  0.00     0.186 HD
HETATM   17  C   UNL     1     -38.239 -50.387  11.914  1.00  0.00     0.177 C 
HETATM   18  C   UNL     1     -39.433 -48.183  11.882  1.00  0.00     0.121 A 
ENDBRANCH   1  12
TORSDOF 2
ENDMDL
MODEL 4
REMARK VINA RESULT:      -5.1      5.503      7.153
REMARK  2 active torsions:
REMARK  status: ('A' for Active; 'I' for Inactive)
REMARK    1  A    between atoms: C_2  and  C_3 
REMARK    2  A    between atoms: C_3  and  C_10 
ROOT
HETATM    1  C   UNL     1     -44.392 -51.711  13.605  1.00  0.00     0.145 C 
HETATM    2  N   UNL     1     -45.476 -51.295  12.738  1.00  0.00    -0.320 N 
HETATM    3  C   UNL     1     -46.177 -52.368  12.242  1.00  0.00     0.324 C 
HETATM    4  O   UNL     1     -47.017 -52.305  11.363  1.00  0.00    -0.247 OA
HETATM    5  N   UNL     1     -45.783 -53.484  12.895  1.00  0.00    -0.277 N 
HETATM    6  C   UNL     1     -44.798 -53.194  13.790  1.00  0.00     0.259 C 
HETATM    7  O   UNL     1     -44.292 -54.002  14.556  1.00  0.00    -0.270 OA
HETATM    8  H   UNL     1     -45.542 -50.396  12.285  1.00  0.00     0.165 HD
HETATM    9  H   UNL     1     -46.176 -54.396  12.744  1.00  0.00     0.173 HD
ENDROOT
BRANCH   1  10
HETATM   10  C   UNL     1     -44.319 -50.912  14.912  1.00  0.00     0.042 C 
HETATM   11  C   UNL     1     -45.572 -50.958  15.775  1.00  0.00     0.008 C 
ENDBRANCH   1  10
BRANCH   1  12
HETATM   12  C   UNL     1     -43.103 -51.616  12.828  1.00  0.00     0.013 A 
HETATM   13  C   UNL     1     -42.461 -52.653  12.103  1.00  0.00     0.118 A 
HETATM   14  N   UNL     1     -41.326 -52.253  11.526  1.00  0.00    -0.310 N 
HETATM   15  N   UNL     1     -41.228 -50.960  11.875  1.00  0.00    -0.307 N 
ATOM     16  HN  UNL     1     -40.684 -52.801  10.954  1.00  0.00     0.186 HD
HETATM   17  C   UNL     1     -40.114 -50.168  11.417  1.00  0.00     0.177 C 
HETATM   18  C   UNL     1     -42.255 -50.534  12.668  1.00  0.00     0.121 A 
ENDBRANCH   1  12
TORSDOF 2
ENDMDL
MODEL 5
REMARK VINA RESULT:      -5.1      2.699      3.956
REMARK  2 active torsions:
REMARK  status: ('A' for Active; 'I' for Inactive)
REMARK    1  A    between atoms: C_2  and  C_3 
REMARK    2  A    between atoms: C_3  and  C_10 
ROOT
HETATM    1  C   UNL     1     -41.569 -47.600  10.979  1.00  0.00     0.145 C 
HETATM    2  N   UNL     1     -41.937 -47.554   9.579  1.00  0.00    -0.320 N 
HETATM    3  C   UNL     1     -43.273 -47.281   9.408  1.00  0.00     0.324 C 
HETATM    4  O   UNL     1     -43.868 -47.357   8.349  1.00  0.00    -0.247 OA
HETATM    5  N   UNL     1     -43.798 -46.914  10.598  1.00  0.00    -0.277 N 
HETATM    6  C   UNL     1     -42.853 -46.976  11.579  1.00  0.00     0.259 C 
HETATM    7  O   UNL     1     -43.035 -46.648  12.742  1.00  0.00    -0.270 OA
HETATM    8  H   UNL     1     -41.405 -47.967   8.827  1.00  0.00     0.165 HD
HETATM    9  H   UNL     1     -44.750 -46.625  10.731  1.00  0.00     0.173 HD
ENDROOT
BRANCH   1  10
HETATM   10  C   UNL     1     -40.287 -46.822  11.297  1.00  0.00     0.042 C 
HETATM   11  C   UNL     1     -40.131 -45.495  10.568  1.00  0.00     0.008 C 
ENDBRANCH   1  10
BRANCH   1  12
HETATM   12  C   UNL     1     -41.451 -49.047  11.389  1.00  0.00     0.013 A 
HETATM   13  C   UNL     1     -40.443 -49.967  11.004  1.00  0.00     0.118 A 
HETATM   14  N   UNL     1     -40.622 -51.180  11.532  1.00  0.00    -0.310 N 
HETATM   15  N   UNL     1     -41.745 -51.051  12.256  1.00  0.00    -0.307 N 
ATOM     16  HN  UNL     1     -40.042 -52.011  11.413  1.00  0.00     0.186 HD
HETATM   17  C   UNL     1     -42.260 -52.173  13.001  1.00  0.00     0.177 C 
HETATM   18  C   UNL     1     -42.291 -49.801  12.190  1.00  0.00     0.121 A 
ENDBRANCH   1  12
TORSDOF 2
ENDMDL
MODEL 6
REMARK VINA RESULT:      -5.0      7.033      8.388
REMARK  2 active torsions:
REMARK  status: ('A' for Active; 'I' for Inactive)
REMARK    1  A    between atoms: C_2  and  C_3 
REMARK    2  A    between atoms: C_3  and  C_10 
ROOT
HETATM    1  C   UNL     1     -44.585 -53.656  14.957  1.00  0.00     0.145 C 
HETATM    2  N   UNL     1     -45.322 -52.557  15.545  1.00  0.00    -0.320 N 
HETATM    3  C   UNL     1     -46.636 -52.545  15.142  1.00  0.00     0.324 C 
HETATM    4  O   UNL     1     -47.420 -51.638  15.350  1.00  0.00    -0.247 OA
HETATM    5  N   UNL     1     -46.901 -53.701  14.492  1.00  0.00    -0.277 N 
HETATM    6  C   UNL     1     -45.781 -54.472  14.409  1.00  0.00     0.259 C 
HETATM    7  O   UNL     1     -45.743 -55.593  13.921  1.00  0.00    -0.270 OA
HETATM    8  H   UNL     1     -44.906 -51.723  15.934  1.00  0.00     0.165 HD
HETATM    9  H   UNL     1     -47.805 -53.953  14.133  1.00  0.00     0.173 HD
ENDROOT
BRANCH   1  10
HETATM   10  C   UNL     1     -43.717 -54.416  15.967  1.00  0.00     0.042 C 
HETATM   11  C   UNL     1     -42.725 -55.400  15.364  1.00  0.00     0.008 C 
ENDBRANCH   1  10
BRANCH   1  12
HETATM   12  C   UNL     1     -43.758 -53.114  13.818  1.00  0.00     0.013 A 
HETATM   13  C   UNL     1     -43.863 -53.456  12.445  1.00  0.00     0.118 A 
HETATM   14  N   UNL     1     -42.981 -52.806  11.683  1.00  0.00    -0.310 N 
HETATM   15  N   UNL     1     -42.303 -52.045  12.556  1.00  0.00    -0.307 N 
ATOM     16  HN  UNL     1     -42.852 -52.872  10.672  1.00  0.00     0.186 HD
HETATM   17  C   UNL     1     -41.252 -51.172  12.094  1.00  0.00     0.177 C 
HETATM   18  C   UNL     1     -42.715 -52.205  13.848  1.00  0.00     0.121 A 
ENDBRANCH   1  12
TORSDOF 2
ENDMDL
MODEL 7
REMARK VINA RESULT:      -5.0      2.853      3.946
REMARK  2 active torsions:
REMARK  status: ('A' for Active; 'I' for Inactive)
REMARK    1  A    between atoms: C_2  and  C_3 
REMARK    2  A    between atoms: C_3  and  C_10 
ROOT
HETATM    1  C   UNL     1     -40.461 -49.415  11.794  1.00  0.00     0.145 C 
HETATM    2  N   UNL     1     -39.410 -49.991  10.981  1.00  0.00    -0.320 N 
HETATM    3  C   UNL     1     -38.160 -49.655  11.444  1.00  0.00     0.324 C 
HETATM    4  O   UNL     1     -37.119 -49.863  10.850  1.00  0.00    -0.247 OA
HETATM    5  N   UNL     1     -38.289 -49.071  12.656  1.00  0.00    -0.277 N 
HETATM    6  C   UNL     1     -39.603 -48.965  13.001  1.00  0.00     0.259 C 
HETATM    7  O   UNL     1     -40.009 -48.525  14.067  1.00  0.00    -0.270 OA
HETATM    8  H   UNL     1     -39.526 -50.322  10.034  1.00  0.00     0.165 HD
HETATM    9  H   UNL     1     -37.516 -48.770  13.224  1.00  0.00     0.173 HD
ENDROOT
BRANCH   1  10
HETATM   10  C   UNL     1     -41.570 -50.412  12.150  1.00  0.00     0.042 C 
HETATM   11  C   UNL     1     -41.207 -51.880  11.978  1.00  0.00     0.008 C 
ENDBRANCH   1  10
BRANCH   1  12
HETATM   12  C   UNL     1     -41.013 -48.213  11.070  1.00  0.00     0.013 A 
HETATM   13  C   UNL     1     -40.434 -46.920  10.990  1.00  0.00     0.118 A 
HETATM   14  N   UNL     1     -41.172 -46.067  10.278  1.00  0.00    -0.310 N 
HETATM   15  N   UNL     1     -42.229 -46.800   9.895  1.00  0.00    -0.307 N 
ATOM     16  HN  UNL     1     -40.979 -45.086  10.071  1.00  0.00     0.186 HD
HETATM   17  C   UNL     1     -43.263 -46.213   9.078  1.00  0.00     0.177 C 
HETATM   18  C   UNL     1     -42.193 -48.085  10.357  1.00  0.00     0.121 A 
ENDBRANCH   1  12
TORSDOF 2
ENDMDL
MODEL 8
REMARK VINA RESULT:      -4.8      5.159      6.772
REMARK  2 active torsions:
REMARK  status: ('A' for Active; 'I' for Inactive)
REMARK    1  A    between atoms: C_2  and  C_3 
REMARK    2  A    between atoms: C_3  and  C_10 
ROOT
HETATM    1  C   UNL     1     -42.785 -52.157  13.528  1.00  0.00     0.145 C 
HETATM    2  N   UNL     1     -44.209 -51.996  13.320  1.00  0.00    -0.320 N 
HETATM    3  C   UNL     1     -44.732 -53.004  12.545  1.00  0.00     0.324 C 
HETATM    4  O   UNL     1     -45.857 -53.013  12.081  1.00  0.00    -0.247 OA
HETATM    5  N   UNL     1     -43.796 -53.969  12.398  1.00  0.00    -0.277 N 
HETATM    6  C   UNL     1     -42.637 -53.612  13.020  1.00  0.00     0.259 C 
HETATM    7  O   UNL     1     -41.642 -54.318  13.094  1.00  0.00    -0.270 OA
HETATM    8  H   UNL     1     -44.717 -51.131  13.433  1.00  0.00     0.165 HD
HETATM    9  H   UNL     1     -43.947 -54.831  11.906  1.00  0.00     0.173 HD
ENDROOT
BRANCH   1  10
HETATM   10  C   UNL     1     -42.358 -51.957  14.987  1.00  0.00     0.042 C 
HETATM   11  C   UNL     1     -43.284 -52.569  16.028  1.00  0.00     0.008 C 
ENDBRANCH   1  10
BRANCH   1  12
HETATM   12  C   UNL     1     -42.063 -51.207  12.607  1.00  0.00     0.013 A 
HETATM   13  C   UNL     1     -40.946 -51.496  11.782  1.00  0.00     0.118 A 
HETATM   14  N   UNL     1     -40.530 -50.437  11.085  1.00  0.00    -0.310 N 
HETATM   15  N   UNL     1     -41.371 -49.459  11.457  1.00  0.00    -0.307 N 
ATOM     16  HN  UNL     1     -39.754 -50.382  10.425  1.00  0.00     0.186 HD
HETATM   17  C   UNL     1     -41.243 -48.138  10.893  1.00  0.00     0.177 C 
HETATM   18  C   UNL     1     -42.296 -49.861  12.378  1.00  0.00     0.121 A 
ENDBRANCH   1  12
TORSDOF 2
ENDMDL
MODEL 9
REMARK VINA RESULT:      -4.8      1.514      2.606
REMARK  2 active torsions:
REMARK  status: ('A' for Active; 'I' for Inactive)
REMARK    1  A    between atoms: C_2  and  C_3 
REMARK    2  A    between atoms: C_3  and  C_10 
ROOT
HETATM    1  C   UNL     1     -42.479 -46.946  11.224  1.00  0.00     0.145 C 
HETATM    2  N   UNL     1     -41.894 -48.169  11.735  1.00  0.00    -0.320 N 
HETATM    3  C   UNL     1     -40.628 -48.377  11.244  1.00  0.00     0.324 C 
HETATM    4  O   UNL     1     -39.989 -49.405  11.377  1.00  0.00    -0.247 OA
HETATM    5  N   UNL     1     -40.219 -47.257  10.606  1.00  0.00    -0.277 N 
HETATM    6  C   UNL     1     -41.203 -46.313  10.617  1.00  0.00     0.259 C 
HETATM    7  O   UNL     1     -41.089 -45.185  10.161  1.00  0.00    -0.270 OA
HETATM    8  H   UNL     1     -42.415 -48.938  12.131  1.00  0.00     0.165 HD
HETATM    9  H   UNL     1     -39.311 -47.140  10.194  1.00  0.00     0.173 HD
ENDROOT
BRANCH   1  10
HETATM   10  C   UNL     1     -43.147 -46.092  12.308  1.00  0.00     0.042 C 
HETATM   11  C   UNL     1     -42.282 -45.788  13.524  1.00  0.00     0.008 C 
ENDBRANCH   1  10
BRANCH   1  12
HETATM   12  C   UNL     1     -43.452 -47.308  10.131  1.00  0.00     0.013 A 
HETATM   13  C   UNL     1     -43.196 -47.354   8.736  1.00  0.00     0.118 A 
HETATM   14  N   UNL     1     -44.269 -47.705   8.025  1.00  0.00    -0.310 N 
HETATM   15  N   UNL     1     -45.222 -47.886   8.953  1.00  0.00    -0.307 N 
ATOM     16  HN  UNL     1     -44.347 -47.811   7.013  1.00  0.00     0.186 HD
HETATM   17  C   UNL     1     -46.548 -48.294   8.560  1.00  0.00     0.177 C 
HETATM   18  C   UNL     1     -44.791 -47.644  10.226  1.00  0.00     0.121 A 
ENDBRANCH   1  12
TORSDOF 2
ENDMDL
