MODEL 1
REMARK VINA RESULT:      -6.6      0.000      0.000
REMARK  5 active torsions:
REMARK  status: ('A' for Active; 'I' for Inactive)
REMARK    1  A    between atoms: C_2  and  C_5 
REMARK    2  A    between atoms: C_9  and  N_10 
REMARK       I    between atoms: N_10  and  C_11 
REMARK       I    between atoms: C_11  and  N_13 
REMARK    3  A    between atoms: N_13  and  C_14 
REMARK    4  A    between atoms: C_14  and  C_15 
REMARK    5  A    between atoms: C_19  and  O_20 
ROOT
HETATM    1  N   UNL     1     -40.873 -50.789  11.044  1.00  0.00    -0.306 N 
HETATM    2  C   UNL     1     -40.943 -51.590  12.160  1.00  0.00     0.320 C 
HETATM    3  O   UNL     1     -40.823 -51.209  13.318  1.00  0.00    -0.247 OA
HETATM    4  N   UNL     1     -41.113 -52.918  11.847  1.00  0.00    -0.342 N 
HETATM    5  H   UNL     1     -40.905 -51.251  10.148  1.00  0.00     0.171 HD
HETATM    6  H   UNL     1     -41.658 -53.132  11.019  1.00  0.00     0.164 HD
ENDROOT
BRANCH   1   7
HETATM    7  C   UNL     1     -40.667 -49.389  11.063  1.00  0.00     0.067 A 
HETATM    8  C   UNL     1     -39.513 -48.762  11.482  1.00  0.00     0.120 A 
HETATM    9  N   UNL     1     -39.338 -47.423  11.497  1.00  0.00    -0.353 N 
HETATM   10  C   UNL     1     -40.353 -46.662  11.052  1.00  0.00     0.088 A 
ATOM     11  HN  UNL     1     -38.471 -47.005  11.832  1.00  0.00     0.166 HD
HETATM   12  N   UNL     1     -41.531 -47.167  10.632  1.00  0.00    -0.353 N 
HETATM   13  C   UNL     1     -41.653 -48.519  10.643  1.00  0.00     0.120 A 
ATOM     14  HN  UNL     1     -42.292 -46.562  10.322  1.00  0.00     0.166 HD
BRANCH  10  15
HETATM   15  C   UNL     1     -40.168 -45.149  11.131  1.00  0.00     0.007 C 
HETATM   16  C   UNL     1     -41.540 -44.440  11.133  1.00  0.00     0.022 C 
HETATM   17  C   UNL     1     -39.369 -44.691   9.900  1.00  0.00     0.022 C 
HETATM   18  C   UNL     1     -39.421 -44.737  12.411  1.00  0.00     0.022 C 
ENDBRANCH  10  15
ENDBRANCH   1   7
BRANCH   4  19
HETATM   19  C   UNL     1     -41.243 -53.890  12.920  1.00  0.00     0.131 C 
BRANCH  19  20
HETATM   20  C   UNL     1     -42.477 -53.688  13.792  1.00  0.00     0.032 C 
HETATM   21  C   UNL     1     -42.830 -54.903  14.665  1.00  0.00     0.009 C 
HETATM   22  C   UNL     1     -44.350 -54.869  14.838  1.00  0.00     0.003 C 
HETATM   23  C   UNL     1     -44.834 -53.614  14.113  1.00  0.00     0.032 C 
HETATM   24  C   UNL     1     -43.772 -53.355  13.051  1.00  0.00     0.123 C 
BRANCH  24  25
HETATM   25  O   UNL     1     -43.980 -54.198  11.920  1.00  0.00    -0.395 OA
HETATM   26  H   UNL     1     -44.896 -54.066  11.620  1.00  0.00     0.210 HD
ENDBRANCH  24  25
ENDBRANCH  19  20
ENDBRANCH   4  19
TORSDOF 5
ENDMDL
MODEL 2
REMARK VINA RESULT:      -6.5      0.650      1.178
REMARK  5 active torsions:
REMARK  status: ('A' for Active; 'I' for Inactive)
REMARK    1  A    between atoms: C_2  and  C_5 
REMARK    2  A    between atoms: C_9  and  N_10 
REMARK       I    between atoms: N_10  and  C_11 
REMARK       I    between atoms: C_11  and  N_13 
REMARK    3  A    between atoms: N_13  and  C_14 
REMARK    4  A    between atoms: C_14  and  C_15 
REMARK    5  A    between atoms: C_19  and  O_20 
ROOT
HETATM    1  N   UNL     1     -41.345 -50.745  11.330  1.00  0.00    -0.306 N 
HETATM    2  C   UNL     1     -41.513 -51.471  12.486  1.00  0.00     0.320 C 
HETATM    3  O   UNL     1     -41.405 -51.031  13.624  1.00  0.00    -0.247 OA
HETATM    4  N   UNL     1     -41.770 -52.799  12.242  1.00  0.00    -0.342 N 
HETATM    5  H   UNL     1     -41.381 -51.256  10.461  1.00  0.00     0.171 HD
HETATM    6  H   UNL     1     -42.300 -53.023  11.408  1.00  0.00     0.164 HD
ENDROOT
BRANCH   1   7
HETATM    7  C   UNL     1     -41.037 -49.365  11.276  1.00  0.00     0.067 A 
HETATM    8  C   UNL     1     -39.786 -48.822  11.477  1.00  0.00     0.120 A 
HETATM    9  N   UNL     1     -39.514 -47.500  11.427  1.00  0.00    -0.353 N 
HETATM   10  C   UNL     1     -40.530 -46.670  11.141  1.00  0.00     0.088 A 
ATOM     11  HN  UNL     1     -38.573 -47.146  11.599  1.00  0.00     0.166 HD
HETATM   12  N   UNL     1     -41.797 -47.089  10.940  1.00  0.00    -0.353 N 
HETATM   13  C   UNL     1     -42.014 -48.427  11.006  1.00  0.00     0.120 A 
ATOM     14  HN  UNL     1     -42.553 -46.432  10.747  1.00  0.00     0.166 HD
BRANCH  10  15
HETATM   15  C   UNL     1     -40.225 -45.175  11.147  1.00  0.00     0.007 C 
HETATM   16  C   UNL     1     -39.389 -44.792   9.906  1.00  0.00     0.022 C 
HETATM   17  C   UNL     1     -39.420 -44.847  12.415  1.00  0.00     0.022 C 
HETATM   18  C   UNL     1     -41.515 -44.336  11.127  1.00  0.00     0.022 C 
ENDBRANCH  10  15
ENDBRANCH   1   7
BRANCH   4  19
HETATM   19  C   UNL     1     -42.008 -53.694  13.364  1.00  0.00     0.131 C 
BRANCH  19  20
HETATM   20  C   UNL     1     -43.431 -53.639  13.909  1.00  0.00     0.032 C 
HETATM   21  C   UNL     1     -44.009 -55.012  14.287  1.00  0.00     0.009 C 
HETATM   22  C   UNL     1     -45.519 -54.909  14.064  1.00  0.00     0.003 C 
HETATM   23  C   UNL     1     -45.787 -53.472  13.617  1.00  0.00     0.032 C 
HETATM   24  C   UNL     1     -44.478 -53.021  12.981  1.00  0.00     0.123 C 
BRANCH  24  25
HETATM   25  O   UNL     1     -44.375 -53.513  11.646  1.00  0.00    -0.395 OA
HETATM   26  H   UNL     1     -45.085 -53.098  11.125  1.00  0.00     0.210 HD
ENDBRANCH  24  25
ENDBRANCH  19  20
ENDBRANCH   4  19
TORSDOF 5
ENDMDL
MODEL 3
REMARK VINA RESULT:      -6.5      1.271      1.723
REMARK  5 active torsions:
REMARK  status: ('A' for Active; 'I' for Inactive)
REMARK    1  A    between atoms: C_2  and  C_5 
REMARK    2  A    between atoms: C_9  and  N_10 
REMARK       I    between atoms: N_10  and  C_11 
REMARK       I    between atoms: C_11  and  N_13 
REMARK    3  A    between atoms: N_13  and  C_14 
REMARK    4  A    between atoms: C_14  and  C_15 
REMARK    5  A    between atoms: C_19  and  O_20 
ROOT
HETATM    1  N   UNL     1     -41.292 -50.526  11.220  1.00  0.00    -0.306 N 
HETATM    2  C   UNL     1     -42.168 -51.108  12.107  1.00  0.00     0.320 C 
HETATM    3  O   UNL     1     -42.760 -50.526  13.007  1.00  0.00    -0.247 OA
HETATM    4  N   UNL     1     -42.283 -52.465  11.921  1.00  0.00    -0.342 N 
HETATM    5  H   UNL     1     -40.811 -51.143  10.582  1.00  0.00     0.171 HD
HETATM    6  H   UNL     1     -42.200 -52.811  10.971  1.00  0.00     0.164 HD
ENDROOT
BRANCH   1   7
HETATM    7  C   UNL     1     -40.951 -49.153  11.199  1.00  0.00     0.067 A 
HETATM    8  C   UNL     1     -39.986 -48.562  11.987  1.00  0.00     0.120 A 
HETATM    9  N   UNL     1     -39.680 -47.247  11.957  1.00  0.00    -0.353 N 
HETATM   10  C   UNL     1     -40.349 -46.477  11.083  1.00  0.00     0.088 A 
ATOM     11  HN  UNL     1     -38.968 -46.855  12.572  1.00  0.00     0.166 HD
HETATM   12  N   UNL     1     -41.322 -46.944  10.274  1.00  0.00    -0.353 N 
HETATM   13  C   UNL     1     -41.592 -48.272  10.350  1.00  0.00     0.120 A 
ATOM     14  HN  UNL     1     -41.830 -46.330   9.637  1.00  0.00     0.166 HD
BRANCH  10  15
HETATM   15  C   UNL     1     -40.039 -44.982  11.100  1.00  0.00     0.007 C 
HETATM   16  C   UNL     1     -41.347 -44.162  11.123  1.00  0.00     0.022 C 
HETATM   17  C   UNL     1     -39.252 -44.634   9.826  1.00  0.00     0.022 C 
HETATM   18  C   UNL     1     -39.213 -44.592  12.337  1.00  0.00     0.022 C 
ENDBRANCH  10  15
ENDBRANCH   1   7
BRANCH   4  19
HETATM   19  C   UNL     1     -43.201 -53.221  12.757  1.00  0.00     0.131 C 
BRANCH  19  20
HETATM   20  C   UNL     1     -42.519 -54.245  13.657  1.00  0.00     0.032 C 
HETATM   21  C   UNL     1     -43.468 -54.935  14.650  1.00  0.00     0.009 C 
HETATM   22  C   UNL     1     -42.618 -55.277  15.876  1.00  0.00     0.003 C 
HETATM   23  C   UNL     1     -41.194 -54.831  15.546  1.00  0.00     0.032 C 
HETATM   24  C   UNL     1     -41.373 -53.718  14.521  1.00  0.00     0.123 C 
BRANCH  24  25
HETATM   25  O   UNL     1     -41.704 -52.490  15.168  1.00  0.00    -0.395 OA
HETATM   26  H   UNL     1     -42.439 -52.670  15.779  1.00  0.00     0.210 HD
ENDBRANCH  24  25
ENDBRANCH  19  20
ENDBRANCH   4  19
TORSDOF 5
ENDMDL
MODEL 4
REMARK VINA RESULT:      -6.4      2.965      7.447
REMARK  5 active torsions:
REMARK  status: ('A' for Active; 'I' for Inactive)
REMARK    1  A    between atoms: C_2  and  C_5 
REMARK    2  A    between atoms: C_9  and  N_10 
REMARK       I    between atoms: N_10  and  C_11 
REMARK       I    between atoms: C_11  and  N_13 
REMARK    3  A    between atoms: N_13  and  C_14 
REMARK    4  A    between atoms: C_14  and  C_15 
REMARK    5  A    between atoms: C_19  and  O_20 
ROOT
HETATM    1  N   UNL     1     -40.788 -50.336  11.081  1.00  0.00    -0.306 N 
HETATM    2  C   UNL     1     -41.099 -49.016  11.314  1.00  0.00     0.320 C 
HETATM    3  O   UNL     1     -41.223 -48.499  12.418  1.00  0.00    -0.247 OA
HETATM    4  N   UNL     1     -41.321 -48.313  10.154  1.00  0.00    -0.342 N 
HETATM    5  H   UNL     1     -40.802 -50.645  10.121  1.00  0.00     0.171 HD
HETATM    6  H   UNL     1     -40.781 -48.583   9.339  1.00  0.00     0.164 HD
ENDROOT
BRANCH   1   7
HETATM    7  C   UNL     1     -40.545 -51.301  12.087  1.00  0.00     0.067 A 
HETATM    8  C   UNL     1     -41.370 -52.366  12.381  1.00  0.00     0.120 A 
HETATM    9  N   UNL     1     -41.123 -53.274  13.350  1.00  0.00    -0.353 N 
HETATM   10  C   UNL     1     -39.986 -53.135  14.052  1.00  0.00     0.088 A 
ATOM     11  HN  UNL     1     -41.773 -54.036  13.541  1.00  0.00     0.166 HD
HETATM   12  N   UNL     1     -39.112 -52.125  13.859  1.00  0.00    -0.353 N 
HETATM   13  C   UNL     1     -39.413 -51.239  12.876  1.00  0.00     0.120 A 
ATOM     14  HN  UNL     1     -38.268 -52.032  14.423  1.00  0.00     0.166 HD
BRANCH  10  15
HETATM   15  C   UNL     1     -39.745 -54.130  15.184  1.00  0.00     0.007 C 
HETATM   16  C   UNL     1     -39.147 -53.411  16.413  1.00  0.00     0.022 C 
HETATM   17  C   UNL     1     -38.752 -55.196  14.693  1.00  0.00     0.022 C 
HETATM   18  C   UNL     1     -41.053 -54.811  15.623  1.00  0.00     0.022 C 
ENDBRANCH  10  15
ENDBRANCH   1   7
BRANCH   4  19
HETATM   19  C   UNL     1     -41.624 -46.893  10.230  1.00  0.00     0.131 C 
BRANCH  19  20
HETATM   20  C   UNL     1     -43.104 -46.566  10.065  1.00  0.00     0.032 C 
HETATM   21  C   UNL     1     -44.047 -47.690  10.525  1.00  0.00     0.009 C 
HETATM   22  C   UNL     1     -45.298 -47.573   9.651  1.00  0.00     0.003 C 
HETATM   23  C   UNL     1     -45.076 -46.360   8.748  1.00  0.00     0.032 C 
HETATM   24  C   UNL     1     -43.561 -46.236   8.644  1.00  0.00     0.123 C 
BRANCH  24  25
HETATM   25  O   UNL     1     -43.048 -47.157   7.683  1.00  0.00    -0.395 OA
HETATM   26  H   UNL     1     -43.779 -47.395   7.085  1.00  0.00     0.210 HD
ENDBRANCH  24  25
ENDBRANCH  19  20
ENDBRANCH   4  19
TORSDOF 5
ENDMDL
MODEL 5
REMARK VINA RESULT:      -6.3      1.482      1.984
REMARK  5 active torsions:
REMARK  status: ('A' for Active; 'I' for Inactive)
REMARK    1  A    between atoms: C_2  and  C_5 
REMARK    2  A    between atoms: C_9  and  N_10 
REMARK       I    between atoms: N_10  and  C_11 
REMARK       I    between atoms: C_11  and  N_13 
REMARK    3  A    between atoms: N_13  and  C_14 
REMARK    4  A    between atoms: C_14  and  C_15 
REMARK    5  A    between atoms: C_19  and  O_20 
ROOT
HETATM    1  N   UNL     1     -42.162 -49.289  11.195  1.00  0.00    -0.306 N 
HETATM    2  C   UNL     1     -41.725 -50.184  12.145  1.00  0.00     0.320 C 
HETATM    3  O   UNL     1     -41.191 -49.889  13.208  1.00  0.00    -0.247 OA
HETATM    4  N   UNL     1     -41.898 -51.491  11.757  1.00  0.00    -0.342 N 
HETATM    5  H   UNL     1     -42.506 -49.675  10.329  1.00  0.00     0.171 HD
HETATM    6  H   UNL     1     -42.705 -51.700  11.180  1.00  0.00     0.164 HD
ENDROOT
BRANCH   1   7
HETATM    7  C   UNL     1     -42.077 -47.882  11.308  1.00  0.00     0.067 A 
HETATM    8  C   UNL     1     -41.026 -47.111  10.858  1.00  0.00     0.120 A 
HETATM    9  N   UNL     1     -40.962 -45.767  10.980  1.00  0.00    -0.353 N 
HETATM   10  C   UNL     1     -42.004 -45.148  11.561  1.00  0.00     0.088 A 
ATOM     11  HN  UNL     1     -40.155 -45.242  10.645  1.00  0.00     0.166 HD
HETATM   12  N   UNL     1     -43.078 -45.803  12.050  1.00  0.00    -0.353 N 
HETATM   13  C   UNL     1     -43.088 -47.153  11.904  1.00  0.00     0.120 A 
ATOM     14  HN  UNL     1     -43.844 -45.308  12.506  1.00  0.00     0.166 HD
BRANCH  10  15
HETATM   15  C   UNL     1     -41.895 -43.638  11.749  1.00  0.00     0.007 C 
HETATM   16  C   UNL     1     -41.993 -43.275  13.247  1.00  0.00     0.022 C 
HETATM   17  C   UNL     1     -43.054 -42.968  10.994  1.00  0.00     0.022 C 
HETATM   18  C   UNL     1     -40.556 -43.099  11.218  1.00  0.00     0.022 C 
ENDBRANCH  10  15
ENDBRANCH   1   7
BRANCH   4  19
HETATM   19  C   UNL     1     -41.519 -52.559  12.669  1.00  0.00     0.131 C 
BRANCH  19  20
HETATM   20  C   UNL     1     -42.627 -52.975  13.630  1.00  0.00     0.032 C 
HETATM   21  C   UNL     1     -42.493 -54.415  14.151  1.00  0.00     0.009 C 
HETATM   22  C   UNL     1     -43.920 -54.902  14.410  1.00  0.00     0.003 C 
HETATM   23  C   UNL     1     -44.839 -53.724  14.088  1.00  0.00     0.032 C 
HETATM   24  C   UNL     1     -44.052 -52.893  13.082  1.00  0.00     0.123 C 
BRANCH  24  25
HETATM   25  O   UNL     1     -44.163 -53.452  11.775  1.00  0.00    -0.395 OA
HETATM   26  H   UNL     1     -44.512 -52.760  11.188  1.00  0.00     0.210 HD
ENDBRANCH  24  25
ENDBRANCH  19  20
ENDBRANCH   4  19
TORSDOF 5
ENDMDL
MODEL 6
REMARK VINA RESULT:      -6.3      2.173      3.108
REMARK  5 active torsions:
REMARK  status: ('A' for Active; 'I' for Inactive)
REMARK    1  A    between atoms: C_2  and  C_5 
REMARK    2  A    between atoms: C_9  and  N_10 
REMARK       I    between atoms: N_10  and  C_11 
REMARK       I    between atoms: C_11  and  N_13 
REMARK    3  A    between atoms: N_13  and  C_14 
REMARK    4  A    between atoms: C_14  and  C_15 
REMARK    5  A    between atoms: C_19  and  O_20 
ROOT
HETATM    1  N   UNL     1     -42.127 -49.296  11.405  1.00  0.00    -0.306 N 
HETATM    2  C   UNL     1     -42.612 -50.146  12.371  1.00  0.00     0.320 C 
HETATM    3  O   UNL     1     -43.132 -49.801  13.426  1.00  0.00    -0.247 OA
HETATM    4  N   UNL     1     -42.404 -51.469  12.063  1.00  0.00    -0.342 N 
HETATM    5  H   UNL     1     -41.648 -49.719  10.624  1.00  0.00     0.171 HD
HETATM    6  H   UNL     1     -42.436 -51.726  11.082  1.00  0.00     0.164 HD
ENDROOT
BRANCH   1   7
HETATM    7  C   UNL     1     -42.170 -47.883  11.471  1.00  0.00     0.067 A 
HETATM    8  C   UNL     1     -43.170 -47.093  10.946  1.00  0.00     0.120 A 
HETATM    9  N   UNL     1     -43.189 -45.744  11.016  1.00  0.00    -0.353 N 
HETATM   10  C   UNL     1     -42.174 -45.144  11.659  1.00  0.00     0.088 A 
ATOM     11  HN  UNL     1     -43.944 -45.203  10.597  1.00  0.00     0.166 HD
HETATM   12  N   UNL     1     -41.136 -45.816  12.199  1.00  0.00    -0.353 N 
HETATM   13  C   UNL     1     -41.166 -47.169  12.096  1.00  0.00     0.120 A 
ATOM     14  HN  UNL     1     -40.367 -45.331  12.662  1.00  0.00     0.166 HD
BRANCH  10  15
HETATM   15  C   UNL     1     -42.173 -43.618  11.679  1.00  0.00     0.007 C 
HETATM   16  C   UNL     1     -42.499 -43.099  13.096  1.00  0.00     0.022 C 
HETATM   17  C   UNL     1     -43.249 -43.118  10.702  1.00  0.00     0.022 C 
HETATM   18  C   UNL     1     -40.803 -43.049  11.270  1.00  0.00     0.022 C 
ENDBRANCH  10  15
ENDBRANCH   1   7
BRANCH   4  19
HETATM   19  C   UNL     1     -42.894 -52.495  12.969  1.00  0.00     0.131 C 
BRANCH  19  20
HETATM   20  C   UNL     1     -41.792 -53.249  13.705  1.00  0.00     0.032 C 
HETATM   21  C   UNL     1     -40.804 -52.339  14.453  1.00  0.00     0.009 C 
HETATM   22  C   UNL     1     -39.466 -53.080  14.452  1.00  0.00     0.003 C 
HETATM   23  C   UNL     1     -39.719 -54.418  13.758  1.00  0.00     0.032 C 
HETATM   24  C   UNL     1     -40.909 -54.152  12.843  1.00  0.00     0.123 C 
BRANCH  24  25
HETATM   25  O   UNL     1     -40.484 -53.507  11.644  1.00  0.00    -0.395 OA
HETATM   26  H   UNL     1     -41.234 -52.985  11.310  1.00  0.00     0.210 HD
ENDBRANCH  24  25
ENDBRANCH  19  20
ENDBRANCH   4  19
TORSDOF 5
ENDMDL
MODEL 7
REMARK VINA RESULT:      -6.1      3.219      4.612
REMARK  5 active torsions:
REMARK  status: ('A' for Active; 'I' for Inactive)
REMARK    1  A    between atoms: C_2  and  C_5 
REMARK    2  A    between atoms: C_9  and  N_10 
REMARK       I    between atoms: N_10  and  C_11 
REMARK       I    between atoms: C_11  and  N_13 
REMARK    3  A    between atoms: N_13  and  C_14 
REMARK    4  A    between atoms: C_14  and  C_15 
REMARK    5  A    between atoms: C_19  and  O_20 
ROOT
HETATM    1  N   UNL     1     -43.473 -51.459  12.581  1.00  0.00    -0.306 N 
HETATM    2  C   UNL     1     -44.009 -52.460  13.358  1.00  0.00     0.320 C 
HETATM    3  O   UNL     1     -43.376 -53.198  14.104  1.00  0.00    -0.247 OA
HETATM    4  N   UNL     1     -45.365 -52.600  13.177  1.00  0.00    -0.342 N 
HETATM    5  H   UNL     1     -44.102 -50.985  11.951  1.00  0.00     0.171 HD
HETATM    6  H   UNL     1     -45.894 -51.759  12.976  1.00  0.00     0.164 HD
ENDROOT
BRANCH   1   7
HETATM    7  C   UNL     1     -42.102 -51.115  12.535  1.00  0.00     0.067 A 
HETATM    8  C   UNL     1     -41.144 -51.766  11.787  1.00  0.00     0.120 A 
HETATM    9  N   UNL     1     -39.838 -51.424  11.762  1.00  0.00    -0.353 N 
HETATM   10  C   UNL     1     -39.460 -50.367  12.500  1.00  0.00     0.088 A 
ATOM     11  HN  UNL     1     -39.164 -51.948  11.204  1.00  0.00     0.166 HD
HETATM   12  N   UNL     1     -40.309 -49.665  13.279  1.00  0.00    -0.353 N 
HETATM   13  C   UNL     1     -41.609 -50.054  13.270  1.00  0.00     0.120 A 
ATOM     14  HN  UNL     1     -39.989 -48.880  13.847  1.00  0.00     0.166 HD
BRANCH  10  15
HETATM   15  C   UNL     1     -37.973 -50.027  12.512  1.00  0.00     0.007 C 
HETATM   16  C   UNL     1     -37.166 -51.172  13.162  1.00  0.00     0.022 C 
HETATM   17  C   UNL     1     -37.773 -48.743  13.334  1.00  0.00     0.022 C 
HETATM   18  C   UNL     1     -37.431 -49.814  11.088  1.00  0.00     0.022 C 
ENDBRANCH  10  15
ENDBRANCH   1   7
BRANCH   4  19
HETATM   19  C   UNL     1     -46.087 -53.593  13.957  1.00  0.00     0.131 C 
BRANCH  19  20
HETATM   20  C   UNL     1     -46.803 -53.023  15.175  1.00  0.00     0.032 C 
HETATM   21  C   UNL     1     -47.024 -51.502  15.116  1.00  0.00     0.009 C 
HETATM   22  C   UNL     1     -47.007 -51.018  16.567  1.00  0.00     0.003 C 
HETATM   23  C   UNL     1     -46.833 -52.266  17.432  1.00  0.00     0.032 C 
HETATM   24  C   UNL     1     -46.122 -53.262  16.523  1.00  0.00     0.123 C 
BRANCH  24  25
HETATM   25  O   UNL     1     -44.723 -52.989  16.479  1.00  0.00    -0.395 OA
HETATM   26  H   UNL     1     -44.460 -52.664  17.358  1.00  0.00     0.210 HD
ENDBRANCH  24  25
ENDBRANCH  19  20
ENDBRANCH   4  19
TORSDOF 5
ENDMDL
MODEL 8
REMARK VINA RESULT:      -6.0      1.726      2.450
REMARK  5 active torsions:
REMARK  status: ('A' for Active; 'I' for Inactive)
REMARK    1  A    between atoms: C_2  and  C_5 
REMARK    2  A    between atoms: C_9  and  N_10 
REMARK       I    between atoms: N_10  and  C_11 
REMARK       I    between atoms: C_11  and  N_13 
REMARK    3  A    between atoms: N_13  and  C_14 
REMARK    4  A    between atoms: C_14  and  C_15 
REMARK    5  A    between atoms: C_19  and  O_20 
ROOT
HETATM    1  N   UNL     1     -42.036 -50.339  11.657  1.00  0.00    -0.306 N 
HETATM    2  C   UNL     1     -42.434 -50.892  12.852  1.00  0.00     0.320 C 
HETATM    3  O   UNL     1     -42.405 -50.330  13.941  1.00  0.00    -0.247 OA
HETATM    4  N   UNL     1     -42.833 -52.201  12.721  1.00  0.00    -0.342 N 
HETATM    5  H   UNL     1     -42.035 -50.946  10.852  1.00  0.00     0.171 HD
HETATM    6  H   UNL     1     -43.285 -52.462  11.852  1.00  0.00     0.164 HD
ENDROOT
BRANCH   1   7
HETATM    7  C   UNL     1     -41.544 -49.022  11.497  1.00  0.00     0.067 A 
HETATM    8  C   UNL     1     -40.212 -48.666  11.492  1.00  0.00     0.120 A 
HETATM    9  N   UNL     1     -39.764 -47.401  11.343  1.00  0.00    -0.353 N 
HETATM   10  C   UNL     1     -40.682 -46.436  11.169  1.00  0.00     0.088 A 
ATOM     11  HN  UNL     1     -38.767 -47.187  11.362  1.00  0.00     0.166 HD
HETATM   12  N   UNL     1     -42.011 -46.666  11.170  1.00  0.00    -0.353 N 
HETATM   13  C   UNL     1     -42.406 -47.956  11.329  1.00  0.00     0.120 A 
ATOM     14  HN  UNL     1     -42.686 -45.909  11.059  1.00  0.00     0.166 HD
BRANCH  10  15
HETATM   15  C   UNL     1     -40.168 -45.003  11.063  1.00  0.00     0.007 C 
HETATM   16  C   UNL     1     -39.301 -44.651  12.292  1.00  0.00     0.022 C 
HETATM   17  C   UNL     1     -41.376 -44.054  11.013  1.00  0.00     0.022 C 
HETATM   18  C   UNL     1     -39.307 -44.804   9.804  1.00  0.00     0.022 C 
ENDBRANCH  10  15
ENDBRANCH   1   7
BRANCH   4  19
HETATM   19  C   UNL     1     -43.318 -52.916  13.890  1.00  0.00     0.131 C 
BRANCH  19  20
HETATM   20  C   UNL     1     -44.832 -52.862  14.065  1.00  0.00     0.032 C 
HETATM   21  C   UNL     1     -45.577 -52.241  12.872  1.00  0.00     0.009 C 
HETATM   22  C   UNL     1     -46.829 -51.583  13.455  1.00  0.00     0.003 C 
HETATM   23  C   UNL     1     -46.811 -51.883  14.953  1.00  0.00     0.032 C 
HETATM   24  C   UNL     1     -45.337 -52.087  15.282  1.00  0.00     0.123 C 
BRANCH  24  25
HETATM   25  O   UNL     1     -44.680 -50.830  15.434  1.00  0.00    -0.395 OA
HETATM   26  H   UNL     1     -44.970 -50.448  16.281  1.00  0.00     0.210 HD
ENDBRANCH  24  25
ENDBRANCH  19  20
ENDBRANCH   4  19
TORSDOF 5
ENDMDL
MODEL 9
REMARK VINA RESULT:      -6.0      4.196      6.227
REMARK  5 active torsions:
REMARK  status: ('A' for Active; 'I' for Inactive)
REMARK    1  A    between atoms: C_2  and  C_5 
REMARK    2  A    between atoms: C_9  and  N_10 
REMARK       I    between atoms: N_10  and  C_11 
REMARK       I    between atoms: C_11  and  N_13 
REMARK    3  A    between atoms: N_13  and  C_14 
REMARK    4  A    between atoms: C_14  and  C_15 
REMARK    5  A    between atoms: C_19  and  O_20 
ROOT
HETATM    1  N   UNL     1     -40.569 -49.898  12.964  1.00  0.00    -0.306 N 
HETATM    2  C   UNL     1     -39.274 -49.536  13.253  1.00  0.00     0.320 C 
HETATM    3  O   UNL     1     -38.665 -48.604  12.743  1.00  0.00    -0.247 OA
HETATM    4  N   UNL     1     -38.680 -50.381  14.161  1.00  0.00    -0.342 N 
HETATM    5  H   UNL     1     -40.915 -50.740  13.398  1.00  0.00     0.171 HD
HETATM    6  H   UNL     1     -39.276 -50.788  14.872  1.00  0.00     0.164 HD
ENDROOT
BRANCH   1   7
HETATM    7  C   UNL     1     -41.409 -49.234  12.039  1.00  0.00     0.067 A 
HETATM    8  C   UNL     1     -42.690 -48.796  12.303  1.00  0.00     0.120 A 
HETATM    9  N   UNL     1     -43.478 -48.168  11.404  1.00  0.00    -0.353 N 
HETATM   10  C   UNL     1     -42.965 -47.941  10.183  1.00  0.00     0.088 A 
ATOM     11  HN  UNL     1     -44.426 -47.877  11.642  1.00  0.00     0.166 HD
HETATM   12  N   UNL     1     -41.731 -48.338   9.811  1.00  0.00    -0.353 N 
HETATM   13  C   UNL     1     -40.983 -48.968  10.753  1.00  0.00     0.120 A 
ATOM     14  HN  UNL     1     -41.377 -48.172   8.869  1.00  0.00     0.166 HD
BRANCH  10  15
HETATM   15  C   UNL     1     -43.886 -47.286   9.156  1.00  0.00     0.007 C 
HETATM   16  C   UNL     1     -43.594 -47.839   7.744  1.00  0.00     0.022 C 
HETATM   17  C   UNL     1     -43.626 -45.771   9.166  1.00  0.00     0.022 C 
HETATM   18  C   UNL     1     -45.367 -47.556   9.474  1.00  0.00     0.022 C 
ENDBRANCH  10  15
ENDBRANCH   1   7
BRANCH   4  19
HETATM   19  C   UNL     1     -37.320 -50.111  14.598  1.00  0.00     0.131 C 
BRANCH  19  20
HETATM   20  C   UNL     1     -37.228 -49.482  15.984  1.00  0.00     0.032 C 
HETATM   21  C   UNL     1     -37.139 -47.948  15.970  1.00  0.00     0.009 C 
HETATM   22  C   UNL     1     -36.328 -47.562  17.207  1.00  0.00     0.003 C 
HETATM   23  C   UNL     1     -36.013 -48.868  17.936  1.00  0.00     0.032 C 
HETATM   24  C   UNL     1     -36.045 -49.930  16.844  1.00  0.00     0.123 C 
BRANCH  24  25
HETATM   25  O   UNL     1     -34.819 -49.936  16.115  1.00  0.00    -0.395 OA
HETATM   26  H   UNL     1     -34.980 -49.489  15.266  1.00  0.00     0.210 HD
ENDBRANCH  24  25
ENDBRANCH  19  20
ENDBRANCH   4  19
TORSDOF 5
ENDMDL
