MODEL 1
REMARK VINA RESULT:      -6.6      0.000      0.000
REMARK  3 active torsions:
REMARK  status: ('A' for Active; 'I' for Inactive)
REMARK    1  A    between atoms: C_5  and  N_6 
REMARK       I    between atoms: N_6  and  C_7 
REMARK       I    between atoms: C_7  and  N_9 
REMARK    2  A    between atoms: N_9  and  C_10 
REMARK    3  A    between atoms: N_12  and  C_13 
ROOT
HETATM    1  N   UNL     1     -41.000 -48.390  10.396  1.00  0.00    -0.295 N 
HETATM    2  C   UNL     1     -40.578 -49.493  11.080  1.00  0.00     0.322 C 
HETATM    3  O   UNL     1     -39.379 -49.681  11.270  1.00  0.00    -0.247 OA
HETATM    4  N   UNL     1     -41.536 -50.354  11.505  1.00  0.00    -0.336 N 
HETATM    5  H   UNL     1     -40.245 -47.789  10.100  1.00  0.00     0.172 HD
HETATM    6  H   UNL     1     -42.492 -50.089  11.270  1.00  0.00     0.164 HD
ENDROOT
BRANCH   1   7
HETATM    7  C   UNL     1     -42.307 -48.047  10.033  1.00  0.00     0.108 A 
HETATM    8  C   UNL     1     -43.217 -47.744  11.041  1.00  0.00     0.049 A 
HETATM    9  C   UNL     1     -44.511 -47.355  10.681  1.00  0.00     0.012 A 
HETATM   10  C   UNL     1     -44.861 -47.277   9.334  1.00  0.00    -0.046 A 
HETATM   11  C   UNL     1     -46.217 -46.844   8.878  1.00  0.00     0.049 C 
HETATM   12  C   UNL     1     -43.895 -47.627   8.405  1.00  0.00     0.096 A 
HETATM   13  N   UNL     1     -42.639 -48.001   8.724  1.00  0.00    -0.352 N 
ATOM     14  HN  UNL     1     -41.962 -48.241   8.000  1.00  0.00     0.166 HD
ENDBRANCH   1   7
BRANCH   4  15
HETATM   15  C   UNL     1     -41.269 -51.587  12.211  1.00  0.00     0.112 C 
HETATM   16  C   UNL     1     -42.457 -52.542  12.245  1.00  0.00     0.152 C 
HETATM   17  N   UNL     1     -42.258 -53.307  13.450  1.00  0.00    -0.345 N 
HETATM   18  C   UNL     1     -41.412 -52.643  14.339  1.00  0.00     0.222 C 
HETATM   19  O   UNL     1     -41.142 -52.968  15.486  1.00  0.00    -0.273 OA
HETATM   20  C   UNL     1     -40.963 -51.360  13.688  1.00  0.00     0.129 C 
BRANCH  17  21
HETATM   21  C   UNL     1     -43.256 -54.237  13.874  1.00  0.00     0.087 A 
HETATM   22  C   UNL     1     -44.600 -54.342  13.211  1.00  0.00     0.027 A 
HETATM   23  C   UNL     1     -44.491 -53.760  14.589  1.00  0.00     0.027 A 
ENDBRANCH  17  21
ENDBRANCH   4  15
TORSDOF 3
ENDMDL
MODEL 2
REMARK VINA RESULT:      -6.5      2.875      6.801
REMARK  3 active torsions:
REMARK  status: ('A' for Active; 'I' for Inactive)
REMARK    1  A    between atoms: C_5  and  N_6 
REMARK       I    between atoms: N_6  and  C_7 
REMARK       I    between atoms: C_7  and  N_9 
REMARK    2  A    between atoms: N_9  and  C_10 
REMARK    3  A    between atoms: N_12  and  C_13 
ROOT
HETATM    1  N   UNL     1     -41.736 -51.139  12.666  1.00  0.00    -0.295 N 
HETATM    2  C   UNL     1     -41.296 -50.200  11.779  1.00  0.00     0.322 C 
HETATM    3  O   UNL     1     -40.131 -50.212  11.393  1.00  0.00    -0.247 OA
HETATM    4  N   UNL     1     -42.197 -49.266  11.380  1.00  0.00    -0.336 N 
HETATM    5  H   UNL     1     -41.023 -51.803  12.932  1.00  0.00     0.172 HD
HETATM    6  H   UNL     1     -43.128 -49.360  11.785  1.00  0.00     0.164 HD
ENDROOT
BRANCH   1   7
HETATM    7  C   UNL     1     -42.999 -51.243  13.259  1.00  0.00     0.108 A 
HETATM    8  C   UNL     1     -43.204 -50.632  14.492  1.00  0.00     0.049 A 
HETATM    9  C   UNL     1     -44.477 -50.692  15.067  1.00  0.00     0.012 A 
HETATM   10  C   UNL     1     -45.507 -51.354  14.400  1.00  0.00    -0.046 A 
HETATM   11  C   UNL     1     -46.897 -51.434  14.943  1.00  0.00     0.049 C 
HETATM   12  C   UNL     1     -45.198 -51.955  13.192  1.00  0.00     0.096 A 
HETATM   13  N   UNL     1     -43.980 -51.909  12.613  1.00  0.00    -0.352 N 
ATOM     14  HN  UNL     1     -43.807 -52.363  11.716  1.00  0.00     0.166 HD
ENDBRANCH   1   7
BRANCH   4  15
HETATM   15  C   UNL     1     -41.897 -48.180  10.474  1.00  0.00     0.112 C 
HETATM   16  C   UNL     1     -41.007 -47.104  11.085  1.00  0.00     0.152 C 
HETATM   17  N   UNL     1     -41.359 -45.906  10.363  1.00  0.00    -0.345 N 
HETATM   18  C   UNL     1     -42.615 -46.024   9.768  1.00  0.00     0.222 C 
HETATM   19  O   UNL     1     -43.246 -45.149   9.192  1.00  0.00    -0.273 OA
HETATM   20  C   UNL     1     -43.144 -47.405  10.058  1.00  0.00     0.129 C 
BRANCH  17  21
HETATM   21  C   UNL     1     -40.797 -44.652  10.753  1.00  0.00     0.087 A 
HETATM   22  C   UNL     1     -39.867 -44.509  11.923  1.00  0.00     0.027 A 
HETATM   23  C   UNL     1     -41.260 -43.962  12.007  1.00  0.00     0.027 A 
ENDBRANCH  17  21
ENDBRANCH   4  15
TORSDOF 3
ENDMDL
MODEL 3
REMARK VINA RESULT:      -6.4      1.903      2.143
REMARK  3 active torsions:
REMARK  status: ('A' for Active; 'I' for Inactive)
REMARK    1  A    between atoms: C_5  and  N_6 
REMARK       I    between atoms: N_6  and  C_7 
REMARK       I    between atoms: C_7  and  N_9 
REMARK    2  A    between atoms: N_9  and  C_10 
REMARK    3  A    between atoms: N_12  and  C_13 
ROOT
HETATM    1  N   UNL     1     -40.931 -49.325  10.821  1.00  0.00    -0.295 N 
HETATM    2  C   UNL     1     -41.185 -50.312  11.728  1.00  0.00     0.322 C 
HETATM    3  O   UNL     1     -40.358 -51.197  11.927  1.00  0.00    -0.247 OA
HETATM    4  N   UNL     1     -42.384 -50.267  12.362  1.00  0.00    -0.336 N 
HETATM    5  H   UNL     1     -40.029 -49.413  10.376  1.00  0.00     0.172 HD
HETATM    6  H   UNL     1     -42.986 -49.488  12.096  1.00  0.00     0.164 HD
ENDROOT
BRANCH   1   7
HETATM    7  C   UNL     1     -41.774 -48.282  10.421  1.00  0.00     0.108 A 
HETATM    8  C   UNL     1     -41.844 -47.144  11.217  1.00  0.00     0.049 A 
HETATM    9  C   UNL     1     -42.648 -46.080  10.798  1.00  0.00     0.012 A 
HETATM   10  C   UNL     1     -43.355 -46.177   9.601  1.00  0.00    -0.046 A 
HETATM   11  C   UNL     1     -44.212 -45.069   9.079  1.00  0.00     0.049 C 
HETATM   12  C   UNL     1     -43.245 -47.362   8.892  1.00  0.00     0.096 A 
HETATM   13  N   UNL     1     -42.474 -48.402   9.271  1.00  0.00    -0.352 N 
ATOM     14  HN  UNL     1     -42.421 -49.250   8.708  1.00  0.00     0.166 HD
ENDBRANCH   1   7
BRANCH   4  15
HETATM   15  C   UNL     1     -42.834 -51.247  13.326  1.00  0.00     0.112 C 
HETATM   16  C   UNL     1     -43.730 -52.325  12.728  1.00  0.00     0.152 C 
HETATM   17  N   UNL     1     -44.555 -52.748  13.832  1.00  0.00    -0.345 N 
HETATM   18  C   UNL     1     -44.596 -51.778  14.835  1.00  0.00     0.222 C 
HETATM   19  O   UNL     1     -45.294 -51.781  15.838  1.00  0.00    -0.273 OA
HETATM   20  C   UNL     1     -43.707 -50.635  14.417  1.00  0.00     0.129 C 
BRANCH  17  21
HETATM   21  C   UNL     1     -45.612 -53.683  13.611  1.00  0.00     0.087 A 
HETATM   22  C   UNL     1     -46.252 -54.461  14.725  1.00  0.00     0.027 A 
HETATM   23  C   UNL     1     -45.365 -55.162  13.740  1.00  0.00     0.027 A 
ENDBRANCH  17  21
ENDBRANCH   4  15
TORSDOF 3
ENDMDL
MODEL 4
REMARK VINA RESULT:      -6.3      2.273      3.198
REMARK  3 active torsions:
REMARK  status: ('A' for Active; 'I' for Inactive)
REMARK    1  A    between atoms: C_5  and  N_6 
REMARK       I    between atoms: N_6  and  C_7 
REMARK       I    between atoms: C_7  and  N_9 
REMARK    2  A    between atoms: N_9  and  C_10 
REMARK    3  A    between atoms: N_12  and  C_13 
ROOT
HETATM    1  N   UNL     1     -40.445 -50.875  11.472  1.00  0.00    -0.295 N 
HETATM    2  C   UNL     1     -41.184 -51.976  11.794  1.00  0.00     0.322 C 
HETATM    3  O   UNL     1     -40.688 -53.097  11.723  1.00  0.00    -0.247 OA
HETATM    4  N   UNL     1     -42.472 -51.761  12.166  1.00  0.00    -0.336 N 
HETATM    5  H   UNL     1     -39.499 -51.095  11.197  1.00  0.00     0.172 HD
HETATM    6  H   UNL     1     -42.764 -50.785  12.170  1.00  0.00     0.164 HD
ENDROOT
BRANCH   1   7
HETATM    7  C   UNL     1     -40.858 -49.539  11.432  1.00  0.00     0.108 A 
HETATM    8  C   UNL     1     -40.669 -48.754  12.565  1.00  0.00     0.049 A 
HETATM    9  C   UNL     1     -41.036 -47.405  12.514  1.00  0.00     0.012 A 
HETATM   10  C   UNL     1     -41.577 -46.879  11.343  1.00  0.00    -0.046 A 
HETATM   11  C   UNL     1     -41.967 -45.442  11.211  1.00  0.00     0.049 C 
HETATM   12  C   UNL     1     -41.754 -47.746  10.279  1.00  0.00     0.096 A 
HETATM   13  N   UNL     1     -41.405 -49.049  10.298  1.00  0.00    -0.352 N 
ATOM     14  HN  UNL     1     -41.549 -49.645   9.483  1.00  0.00     0.166 HD
ENDBRANCH   1   7
BRANCH   4  15
HETATM   15  C   UNL     1     -43.407 -52.810  12.507  1.00  0.00     0.112 C 
HETATM   16  C   UNL     1     -44.732 -52.292  13.057  1.00  0.00     0.152 C 
HETATM   17  N   UNL     1     -45.202 -53.361  13.903  1.00  0.00    -0.345 N 
HETATM   18  C   UNL     1     -44.157 -54.202  14.286  1.00  0.00     0.222 C 
HETATM   19  O   UNL     1     -44.204 -55.121  15.090  1.00  0.00    -0.273 OA
HETATM   20  C   UNL     1     -42.893 -53.710  13.627  1.00  0.00     0.129 C 
BRANCH  17  21
HETATM   21  C   UNL     1     -46.381 -53.178  14.688  1.00  0.00     0.087 A 
HETATM   22  C   UNL     1     -46.994 -51.827  14.927  1.00  0.00     0.027 A 
HETATM   23  C   UNL     1     -46.302 -52.542  16.050  1.00  0.00     0.027 A 
ENDBRANCH  17  21
ENDBRANCH   4  15
TORSDOF 3
ENDMDL
MODEL 5
REMARK VINA RESULT:      -5.9      4.663      6.980
REMARK  3 active torsions:
REMARK  status: ('A' for Active; 'I' for Inactive)
REMARK    1  A    between atoms: C_5  and  N_6 
REMARK       I    between atoms: N_6  and  C_7 
REMARK       I    between atoms: C_7  and  N_9 
REMARK    2  A    between atoms: N_9  and  C_10 
REMARK    3  A    between atoms: N_12  and  C_13 
ROOT
HETATM    1  N   UNL     1     -46.401 -54.274  15.230  1.00  0.00    -0.295 N 
HETATM    2  C   UNL     1     -45.393 -54.655  14.393  1.00  0.00     0.322 C 
HETATM    3  O   UNL     1     -45.448 -55.732  13.807  1.00  0.00    -0.247 OA
HETATM    4  N   UNL     1     -44.345 -53.801  14.270  1.00  0.00    -0.336 N 
HETATM    5  H   UNL     1     -47.149 -54.950  15.287  1.00  0.00     0.172 HD
HETATM    6  H   UNL     1     -44.415 -52.946  14.820  1.00  0.00     0.164 HD
ENDROOT
BRANCH   1   7
HETATM    7  C   UNL     1     -46.479 -53.123  16.022  1.00  0.00     0.108 A 
HETATM    8  C   UNL     1     -47.206 -52.038  15.544  1.00  0.00     0.049 A 
HETATM    9  C   UNL     1     -47.326 -50.903  16.352  1.00  0.00     0.012 A 
HETATM   10  C   UNL     1     -46.723 -50.881  17.608  1.00  0.00    -0.046 A 
HETATM   11  C   UNL     1     -46.832 -49.713  18.534  1.00  0.00     0.049 C 
HETATM   12  C   UNL     1     -45.995 -51.998  17.983  1.00  0.00     0.096 A 
HETATM   13  N   UNL     1     -45.867 -53.107  17.226  1.00  0.00    -0.352 N 
ATOM     14  HN  UNL     1     -45.325 -53.908  17.552  1.00  0.00     0.166 HD
ENDBRANCH   1   7
BRANCH   4  15
HETATM   15  C   UNL     1     -43.177 -54.056  13.457  1.00  0.00     0.112 C 
HETATM   16  C   UNL     1     -41.981 -54.571  14.249  1.00  0.00     0.152 C 
HETATM   17  N   UNL     1     -40.839 -54.142  13.481  1.00  0.00    -0.345 N 
HETATM   18  C   UNL     1     -41.167 -53.082  12.634  1.00  0.00     0.222 C 
HETATM   19  O   UNL     1     -40.403 -52.421  11.947  1.00  0.00    -0.273 OA
HETATM   20  C   UNL     1     -42.638 -52.791  12.795  1.00  0.00     0.129 C 
BRANCH  17  21
HETATM   21  C   UNL     1     -39.521 -54.352  13.990  1.00  0.00     0.087 A 
HETATM   22  C   UNL     1     -39.258 -55.045  15.296  1.00  0.00     0.027 A 
HETATM   23  C   UNL     1     -39.026 -53.569  15.176  1.00  0.00     0.027 A 
ENDBRANCH  17  21
ENDBRANCH   4  15
TORSDOF 3
ENDMDL
MODEL 6
REMARK VINA RESULT:      -5.9      3.951      5.029
REMARK  3 active torsions:
REMARK  status: ('A' for Active; 'I' for Inactive)
REMARK    1  A    between atoms: C_5  and  N_6 
REMARK       I    between atoms: N_6  and  C_7 
REMARK       I    between atoms: C_7  and  N_9 
REMARK    2  A    between atoms: N_9  and  C_10 
REMARK    3  A    between atoms: N_12  and  C_13 
ROOT
HETATM    1  N   UNL     1     -39.033 -52.381  13.708  1.00  0.00    -0.295 N 
HETATM    2  C   UNL     1     -40.077 -53.256  13.635  1.00  0.00     0.322 C 
HETATM    3  O   UNL     1     -39.875 -54.466  13.680  1.00  0.00    -0.247 OA
HETATM    4  N   UNL     1     -41.316 -52.720  13.492  1.00  0.00    -0.336 N 
HETATM    5  H   UNL     1     -38.137 -52.835  13.807  1.00  0.00     0.172 HD
HETATM    6  H   UNL     1     -41.346 -51.702  13.455  1.00  0.00     0.164 HD
ENDROOT
BRANCH   1   7
HETATM    7  C   UNL     1     -39.067 -50.986  13.611  1.00  0.00     0.108 A 
HETATM    8  C   UNL     1     -38.786 -50.401  12.381  1.00  0.00     0.049 A 
HETATM    9  C   UNL     1     -38.865 -49.009  12.266  1.00  0.00     0.012 A 
HETATM   10  C   UNL     1     -39.221 -48.243  13.374  1.00  0.00    -0.046 A 
HETATM   11  C   UNL     1     -39.351 -46.755  13.317  1.00  0.00     0.049 C 
HETATM   12  C   UNL     1     -39.454 -48.914  14.563  1.00  0.00     0.096 A 
HETATM   13  N   UNL     1     -39.389 -50.255  14.700  1.00  0.00    -0.352 N 
ATOM     14  HN  UNL     1     -39.578 -50.702  15.597  1.00  0.00     0.166 HD
ENDBRANCH   1   7
BRANCH   4  15
HETATM   15  C   UNL     1     -42.530 -53.495  13.364  1.00  0.00     0.112 C 
HETATM   16  C   UNL     1     -43.737 -52.673  12.927  1.00  0.00     0.152 C 
HETATM   17  N   UNL     1     -44.864 -53.385  13.477  1.00  0.00    -0.345 N 
HETATM   18  C   UNL     1     -44.475 -54.212  14.532  1.00  0.00     0.222 C 
HETATM   19  O   UNL     1     -45.203 -54.850  15.278  1.00  0.00    -0.273 OA
HETATM   20  C   UNL     1     -42.981 -54.098  14.691  1.00  0.00     0.129 C 
BRANCH  17  21
HETATM   21  C   UNL     1     -46.176 -52.832  13.364  1.00  0.00     0.087 A 
HETATM   22  C   UNL     1     -46.455 -51.547  12.639  1.00  0.00     0.027 A 
HETATM   23  C   UNL     1     -46.555 -51.596  14.135  1.00  0.00     0.027 A 
ENDBRANCH  17  21
ENDBRANCH   4  15
TORSDOF 3
ENDMDL
MODEL 7
REMARK VINA RESULT:      -5.7      2.713      3.130
REMARK  3 active torsions:
REMARK  status: ('A' for Active; 'I' for Inactive)
REMARK    1  A    between atoms: C_5  and  N_6 
REMARK       I    between atoms: N_6  and  C_7 
REMARK       I    between atoms: C_7  and  N_9 
REMARK    2  A    between atoms: N_9  and  C_10 
REMARK    3  A    between atoms: N_12  and  C_13 
ROOT
HETATM    1  N   UNL     1     -38.356 -49.372  12.312  1.00  0.00    -0.295 N 
HETATM    2  C   UNL     1     -38.675 -50.696  12.405  1.00  0.00     0.322 C 
HETATM    3  O   UNL     1     -37.792 -51.548  12.380  1.00  0.00    -0.247 OA
HETATM    4  N   UNL     1     -39.994 -51.003  12.504  1.00  0.00    -0.336 N 
HETATM    5  H   UNL     1     -37.364 -49.204  12.235  1.00  0.00     0.172 HD
HETATM    6  H   UNL     1     -40.626 -50.203  12.500  1.00  0.00     0.164 HD
ENDROOT
BRANCH   1   7
HETATM    7  C   UNL     1     -39.225 -48.276  12.261  1.00  0.00     0.108 A 
HETATM    8  C   UNL     1     -39.482 -47.579  13.436  1.00  0.00     0.049 A 
HETATM    9  C   UNL     1     -40.312 -46.454  13.381  1.00  0.00     0.012 A 
HETATM   10  C   UNL     1     -40.858 -46.057  12.162  1.00  0.00    -0.046 A 
HETATM   11  C   UNL     1     -41.731 -44.851  12.025  1.00  0.00     0.049 C 
HETATM   12  C   UNL     1     -40.567 -46.832  11.052  1.00  0.00     0.096 A 
HETATM   13  N   UNL     1     -39.767 -47.918  11.076  1.00  0.00    -0.352 N 
ATOM     14  HN  UNL     1     -39.578 -48.451  10.228  1.00  0.00     0.166 HD
ENDBRANCH   1   7
BRANCH   4  15
HETATM   15  C   UNL     1     -40.514 -52.350  12.576  1.00  0.00     0.112 C 
HETATM   16  C   UNL     1     -42.001 -52.449  12.255  1.00  0.00     0.152 C 
HETATM   17  N   UNL     1     -42.440 -53.612  12.984  1.00  0.00    -0.345 N 
HETATM   18  C   UNL     1     -41.561 -53.921  14.023  1.00  0.00     0.222 C 
HETATM   19  O   UNL     1     -41.711 -54.769  14.891  1.00  0.00    -0.273 OA
HETATM   20  C   UNL     1     -40.421 -52.937  13.981  1.00  0.00     0.129 C 
BRANCH  17  21
HETATM   21  C   UNL     1     -43.828 -53.950  13.012  1.00  0.00     0.087 A 
HETATM   22  C   UNL     1     -44.898 -53.024  12.509  1.00  0.00     0.027 A 
HETATM   23  C   UNL     1     -44.760 -53.274  13.981  1.00  0.00     0.027 A 
ENDBRANCH  17  21
ENDBRANCH   4  15
TORSDOF 3
ENDMDL
MODEL 8
REMARK VINA RESULT:      -5.6      3.790      6.399
REMARK  3 active torsions:
REMARK  status: ('A' for Active; 'I' for Inactive)
REMARK    1  A    between atoms: C_5  and  N_6 
REMARK       I    between atoms: N_6  and  C_7 
REMARK       I    between atoms: C_7  and  N_9 
REMARK    2  A    between atoms: N_9  and  C_10 
REMARK    3  A    between atoms: N_12  and  C_13 
ROOT
HETATM    1  N   UNL     1     -40.561 -51.384  11.371  1.00  0.00    -0.295 N 
HETATM    2  C   UNL     1     -39.843 -50.348  11.894  1.00  0.00     0.322 C 
HETATM    3  O   UNL     1     -39.074 -49.707  11.183  1.00  0.00    -0.247 OA
HETATM    4  N   UNL     1     -40.011 -50.092  13.216  1.00  0.00    -0.336 N 
HETATM    5  H   UNL     1     -40.391 -51.532  10.387  1.00  0.00     0.172 HD
HETATM    6  H   UNL     1     -40.668 -50.707  13.696  1.00  0.00     0.164 HD
ENDROOT
BRANCH   1   7
HETATM    7  C   UNL     1     -41.428 -52.257  12.038  1.00  0.00     0.108 A 
HETATM    8  C   UNL     1     -40.886 -53.364  12.682  1.00  0.00     0.049 A 
HETATM    9  C   UNL     1     -41.743 -54.214  13.390  1.00  0.00     0.012 A 
HETATM   10  C   UNL     1     -43.108 -53.937  13.437  1.00  0.00    -0.046 A 
HETATM   11  C   UNL     1     -44.076 -54.786  14.195  1.00  0.00     0.049 C 
HETATM   12  C   UNL     1     -43.556 -52.828  12.739  1.00  0.00     0.096 A 
HETATM   13  N   UNL     1     -42.752 -51.990  12.053  1.00  0.00    -0.352 N 
ATOM     14  HN  UNL     1     -43.132 -51.181  11.561  1.00  0.00     0.166 HD
ENDBRANCH   1   7
BRANCH   4  15
HETATM   15  C   UNL     1     -39.307 -49.059  13.942  1.00  0.00     0.112 C 
HETATM   16  C   UNL     1     -37.942 -49.496  14.459  1.00  0.00     0.152 C 
HETATM   17  N   UNL     1     -37.726 -48.671  15.621  1.00  0.00    -0.345 N 
HETATM   18  C   UNL     1     -38.929 -48.166  16.115  1.00  0.00     0.222 C 
HETATM   19  O   UNL     1     -39.097 -47.537  17.150  1.00  0.00    -0.273 OA
HETATM   20  C   UNL     1     -40.040 -48.635  15.211  1.00  0.00     0.129 C 
BRANCH  17  21
HETATM   21  C   UNL     1     -36.577 -48.889  16.443  1.00  0.00     0.087 A 
HETATM   22  C   UNL     1     -35.619 -50.023  16.212  1.00  0.00     0.027 A 
HETATM   23  C   UNL     1     -36.532 -50.048  17.402  1.00  0.00     0.027 A 
ENDBRANCH  17  21
ENDBRANCH   4  15
TORSDOF 3
ENDMDL
MODEL 9
REMARK VINA RESULT:      -5.6      4.093      6.480
REMARK  3 active torsions:
REMARK  status: ('A' for Active; 'I' for Inactive)
REMARK    1  A    between atoms: C_5  and  N_6 
REMARK       I    between atoms: N_6  and  C_7 
REMARK       I    between atoms: C_7  and  N_9 
REMARK    2  A    between atoms: N_9  and  C_10 
REMARK    3  A    between atoms: N_12  and  C_13 
ROOT
HETATM    1  N   UNL     1     -41.340 -54.418  13.529  1.00  0.00    -0.295 N 
HETATM    2  C   UNL     1     -40.206 -53.662  13.463  1.00  0.00     0.322 C 
HETATM    3  O   UNL     1     -39.102 -54.198  13.510  1.00  0.00    -0.247 OA
HETATM    4  N   UNL     1     -40.370 -52.319  13.364  1.00  0.00    -0.336 N 
HETATM    5  H   UNL     1     -41.158 -55.407  13.608  1.00  0.00     0.172 HD
HETATM    6  H   UNL     1     -41.338 -52.000  13.348  1.00  0.00     0.164 HD
ENDROOT
BRANCH   1   7
HETATM    7  C   UNL     1     -42.669 -53.980  13.554  1.00  0.00     0.108 A 
HETATM    8  C   UNL     1     -43.293 -53.825  14.787  1.00  0.00     0.049 A 
HETATM    9  C   UNL     1     -44.605 -53.342  14.819  1.00  0.00     0.012 A 
HETATM   10  C   UNL     1     -45.255 -53.027  13.628  1.00  0.00    -0.046 A 
HETATM   11  C   UNL     1     -46.647 -52.483  13.589  1.00  0.00     0.049 C 
HETATM   12  C   UNL     1     -44.562 -53.243  12.449  1.00  0.00     0.096 A 
HETATM   13  N   UNL     1     -43.295 -53.703  12.389  1.00  0.00    -0.352 N 
ATOM     14  HN  UNL     1     -42.826 -53.838  11.493  1.00  0.00     0.166 HD
ENDBRANCH   1   7
BRANCH   4  15
HETATM   15  C   UNL     1     -39.283 -51.366  13.318  1.00  0.00     0.112 C 
HETATM   16  C   UNL     1     -38.663 -51.080  14.680  1.00  0.00     0.152 C 
HETATM   17  N   UNL     1     -38.139 -49.742  14.553  1.00  0.00    -0.345 N 
HETATM   18  C   UNL     1     -38.756 -49.053  13.508  1.00  0.00     0.222 C 
HETATM   19  O   UNL     1     -38.623 -47.873  13.221  1.00  0.00    -0.273 OA
HETATM   20  C   UNL     1     -39.734 -49.988  12.844  1.00  0.00     0.129 C 
BRANCH  17  21
HETATM   21  C   UNL     1     -37.579 -49.088  15.693  1.00  0.00     0.087 A 
HETATM   22  C   UNL     1     -36.487 -48.063  15.584  1.00  0.00     0.027 A 
HETATM   23  C   UNL     1     -36.185 -49.416  16.155  1.00  0.00     0.027 A 
ENDBRANCH  17  21
ENDBRANCH   4  15
TORSDOF 3
ENDMDL
