MODEL 1
REMARK VINA RESULT:      -6.4      0.000      0.000
REMARK  5 active torsions:
REMARK  status: ('A' for Active; 'I' for Inactive)
REMARK    1  A    between atoms: C_2  and  C_3 
REMARK       I    between atoms: C_2  and  N_12 
REMARK    2  A    between atoms: C_3  and  N_4 
REMARK    3  A    between atoms: N_12  and  C_13 
REMARK    4  A    between atoms: N_16  and  C_17 
REMARK    5  A    between atoms: C_17  and  C_18 
ROOT
HETATM    1  C   UNL     1     -40.257 -52.852  13.433  1.00  0.00     0.087 C 
HETATM    2  C   UNL     1     -41.173 -51.969  12.582  1.00  0.00     0.044 C 
HETATM    3  C   UNL     1     -42.575 -51.854  13.204  1.00  0.00     0.119 C 
HETATM    4  N   UNL     1     -43.229 -53.123  13.579  1.00  0.00    -0.412 N 
HETATM    5  C   UNL     1     -42.327 -54.147  14.117  1.00  0.00     0.119 C 
HETATM    6  C   UNL     1     -40.928 -54.228  13.493  1.00  0.00     0.044 C 
ENDROOT
BRANCH   1   7
HETATM    7  N   UNL     1     -40.092 -52.289  14.780  1.00  0.00    -0.355 N 
HETATM    8  C   UNL     1     -39.130 -51.540  15.379  1.00  0.00     0.236 C 
HETATM    9  O   UNL     1     -39.355 -51.167  16.540  1.00  0.00    -0.272 OA
HETATM   10  H   UNL     1     -40.851 -52.459  15.431  1.00  0.00     0.162 HD
BRANCH   8  11
HETATM   11  C   UNL     1     -37.872 -51.085  14.660  1.00  0.00     0.235 C 
BRANCH  11  12
HETATM   12  N   UNL     1     -38.179 -50.275  13.482  1.00  0.00    -0.301 N 
HETATM   13  C   UNL     1     -38.952 -49.139  13.612  1.00  0.00     0.097 A 
HETATM   14  C   UNL     1     -39.273 -48.400  12.550  1.00  0.00     0.034 A 
HETATM   15  C   UNL     1     -38.733 -48.895  11.283  1.00  0.00     0.094 A 
HETATM   16  N   UNL     1     -37.993 -49.939  11.133  1.00  0.00    -0.319 N 
HETATM   17  C   UNL     1     -37.671 -50.683  12.245  1.00  0.00     0.326 A 
ATOM     18  HN  UNL     1     -37.653 -50.208  10.210  1.00  0.00     0.170 HD
HETATM   19  O   UNL     1     -36.959 -51.680  12.146  1.00  0.00    -0.246 OA
ENDBRANCH  11  12
ENDBRANCH   8  11
ENDBRANCH   1   7
BRANCH   4  20
HETATM   20  C   UNL     1     -44.246 -53.536  12.600  1.00  0.00     0.121 C 
BRANCH  20  21
HETATM   21  C   UNL     1     -45.742 -53.595  13.027  1.00  0.00     0.003 C 
HETATM   22  C   UNL     1     -46.396 -52.203  12.893  1.00  0.00     0.006 C 
HETATM   23  C   UNL     1     -46.318 -51.332  14.142  1.00  0.00     0.000 C 
HETATM   24  C   UNL     1     -46.894 -52.056  15.347  1.00  0.00     0.000 C 
HETATM   25  C   UNL     1     -46.128 -53.342  15.611  1.00  0.00     0.000 C 
HETATM   26  C   UNL     1     -46.047 -54.259  14.388  1.00  0.00     0.006 C 
ENDBRANCH  20  21
ENDBRANCH   4  20
TORSDOF 5
ENDMDL
MODEL 2
REMARK VINA RESULT:      -6.1      1.744      2.664
REMARK  5 active torsions:
REMARK  status: ('A' for Active; 'I' for Inactive)
REMARK    1  A    between atoms: C_2  and  C_3 
REMARK       I    between atoms: C_2  and  N_12 
REMARK    2  A    between atoms: C_3  and  N_4 
REMARK    3  A    between atoms: N_12  and  C_13 
REMARK    4  A    between atoms: N_16  and  C_17 
REMARK    5  A    between atoms: C_17  and  C_18 
ROOT
HETATM    1  C   UNL     1     -40.822 -53.149  16.500  1.00  0.00     0.087 C 
HETATM    2  C   UNL     1     -41.601 -54.247  17.228  1.00  0.00     0.044 C 
HETATM    3  C   UNL     1     -42.708 -54.832  16.335  1.00  0.00     0.119 C 
HETATM    4  N   UNL     1     -43.608 -53.857  15.687  1.00  0.00    -0.412 N 
HETATM    5  C   UNL     1     -42.959 -52.618  15.244  1.00  0.00     0.119 C 
HETATM    6  C   UNL     1     -41.844 -52.066  16.142  1.00  0.00     0.044 C 
ENDROOT
BRANCH   1   7
HETATM    7  N   UNL     1     -40.173 -53.680  15.293  1.00  0.00    -0.355 N 
HETATM    8  C   UNL     1     -39.352 -53.149  14.350  1.00  0.00     0.236 C 
HETATM    9  O   UNL     1     -38.922 -53.925  13.484  1.00  0.00    -0.272 OA
HETATM   10  H   UNL     1     -40.337 -54.662  15.095  1.00  0.00     0.162 HD
BRANCH   8  11
HETATM   11  C   UNL     1     -38.890 -51.703  14.379  1.00  0.00     0.235 C 
BRANCH  11  12
HETATM   12  N   UNL     1     -39.389 -50.947  13.231  1.00  0.00    -0.301 N 
HETATM   13  C   UNL     1     -40.683 -50.465  13.236  1.00  0.00     0.097 A 
HETATM   14  C   UNL     1     -41.174 -49.800  12.190  1.00  0.00     0.034 A 
HETATM   15  C   UNL     1     -40.229 -49.632  11.084  1.00  0.00     0.094 A 
HETATM   16  N   UNL     1     -39.013 -50.052  11.059  1.00  0.00    -0.319 N 
HETATM   17  C   UNL     1     -38.527 -50.731  12.152  1.00  0.00     0.326 A 
ATOM     18  HN  UNL     1     -38.420 -49.883  10.246  1.00  0.00     0.170 HD
HETATM   19  O   UNL     1     -37.368 -51.139  12.172  1.00  0.00    -0.246 OA
ENDBRANCH  11  12
ENDBRANCH   8  11
ENDBRANCH   1   7
BRANCH   4  20
HETATM   20  C   UNL     1     -44.905 -53.758  16.370  1.00  0.00     0.121 C 
BRANCH  20  21
HETATM   21  C   UNL     1     -46.212 -53.674  15.527  1.00  0.00     0.003 C 
HETATM   22  C   UNL     1     -46.004 -54.332  14.145  1.00  0.00     0.006 C 
HETATM   23  C   UNL     1     -45.516 -53.389  13.051  1.00  0.00     0.000 C 
HETATM   24  C   UNL     1     -46.438 -52.190  12.915  1.00  0.00     0.000 C 
HETATM   25  C   UNL     1     -46.499 -51.415  14.222  1.00  0.00     0.000 C 
HETATM   26  C   UNL     1     -46.880 -52.285  15.422  1.00  0.00     0.006 C 
ENDBRANCH  20  21
ENDBRANCH   4  20
TORSDOF 5
ENDMDL
MODEL 3
REMARK VINA RESULT:      -6.1      2.572      7.443
REMARK  5 active torsions:
REMARK  status: ('A' for Active; 'I' for Inactive)
REMARK    1  A    between atoms: C_2  and  C_3 
REMARK       I    between atoms: C_2  and  N_12 
REMARK    2  A    between atoms: C_3  and  N_4 
REMARK    3  A    between atoms: N_12  and  C_13 
REMARK    4  A    between atoms: N_16  and  C_17 
REMARK    5  A    between atoms: C_17  and  C_18 
ROOT
HETATM    1  C   UNL     1     -42.377 -53.717  14.932  1.00  0.00     0.087 C 
HETATM    2  C   UNL     1     -42.060 -52.263  15.289  1.00  0.00     0.044 C 
HETATM    3  C   UNL     1     -41.160 -51.609  14.226  1.00  0.00     0.119 C 
HETATM    4  N   UNL     1     -39.946 -52.359  13.848  1.00  0.00    -0.412 N 
HETATM    5  C   UNL     1     -40.111 -53.816  13.799  1.00  0.00     0.119 C 
HETATM    6  C   UNL     1     -41.029 -54.441  14.857  1.00  0.00     0.044 C 
ENDROOT
BRANCH   1   7
HETATM    7  N   UNL     1     -43.089 -53.796  13.649  1.00  0.00    -0.355 N 
HETATM    8  C   UNL     1     -44.343 -54.173  13.286  1.00  0.00     0.236 C 
HETATM    9  O   UNL     1     -44.640 -54.042  12.089  1.00  0.00    -0.272 OA
HETATM   10  H   UNL     1     -42.569 -53.496  12.831  1.00  0.00     0.162 HD
BRANCH   8  11
HETATM   11  C   UNL     1     -45.383 -54.647  14.286  1.00  0.00     0.235 C 
BRANCH  11  12
HETATM   12  N   UNL     1     -45.936 -53.539  15.064  1.00  0.00    -0.301 N 
HETATM   13  C   UNL     1     -46.561 -52.490  14.419  1.00  0.00     0.097 A 
HETATM   14  C   UNL     1     -47.046 -51.453  15.101  1.00  0.00     0.034 A 
HETATM   15  C   UNL     1     -46.861 -51.544  16.551  1.00  0.00     0.094 A 
HETATM   16  N   UNL     1     -46.302 -52.516  17.182  1.00  0.00    -0.319 N 
HETATM   17  C   UNL     1     -45.813 -53.578  16.456  1.00  0.00     0.326 A 
ATOM     18  HN  UNL     1     -46.222 -52.500  18.199  1.00  0.00     0.170 HD
HETATM   19  O   UNL     1     -45.281 -54.531  17.021  1.00  0.00    -0.246 OA
ENDBRANCH  11  12
ENDBRANCH   8  11
ENDBRANCH   1   7
BRANCH   4  20
HETATM   20  C   UNL     1     -38.737 -51.816  14.482  1.00  0.00     0.121 C 
BRANCH  20  21
HETATM   21  C   UNL     1     -37.889 -50.747  13.730  1.00  0.00     0.003 C 
HETATM   22  C   UNL     1     -38.039 -49.368  14.409  1.00  0.00     0.006 C 
HETATM   23  C   UNL     1     -39.176 -48.506  13.870  1.00  0.00     0.000 C 
HETATM   24  C   UNL     1     -39.058 -48.328  12.366  1.00  0.00     0.000 C 
HETATM   25  C   UNL     1     -39.106 -49.677  11.666  1.00  0.00     0.000 C 
HETATM   26  C   UNL     1     -38.073 -50.671  12.199  1.00  0.00     0.006 C 
ENDBRANCH  20  21
ENDBRANCH   4  20
TORSDOF 5
ENDMDL
MODEL 4
REMARK VINA RESULT:      -6.1      2.863      7.576
REMARK  5 active torsions:
REMARK  status: ('A' for Active; 'I' for Inactive)
REMARK    1  A    between atoms: C_2  and  C_3 
REMARK       I    between atoms: C_2  and  N_12 
REMARK    2  A    between atoms: C_3  and  N_4 
REMARK    3  A    between atoms: N_12  and  C_13 
REMARK    4  A    between atoms: N_16  and  C_17 
REMARK    5  A    between atoms: C_17  and  C_18 
ROOT
HETATM    1  C   UNL     1     -41.964 -51.023  12.256  1.00  0.00     0.087 C 
HETATM    2  C   UNL     1     -40.616 -50.636  11.644  1.00  0.00     0.044 C 
HETATM    3  C   UNL     1     -39.597 -50.254  12.732  1.00  0.00     0.119 C 
HETATM    4  N   UNL     1     -40.049 -49.268  13.732  1.00  0.00    -0.412 N 
HETATM    5  C   UNL     1     -41.455 -49.393  14.130  1.00  0.00     0.119 C 
HETATM    6  C   UNL     1     -42.448 -49.794  13.032  1.00  0.00     0.044 C 
ENDROOT
BRANCH   1   7
HETATM    7  N   UNL     1     -41.820 -52.183  13.147  1.00  0.00    -0.355 N 
HETATM    8  C   UNL     1     -42.543 -53.316  13.346  1.00  0.00     0.236 C 
HETATM    9  O   UNL     1     -42.078 -54.140  14.149  1.00  0.00    -0.272 OA
HETATM   10  H   UNL     1     -41.003 -52.185  13.749  1.00  0.00     0.162 HD
BRANCH   8  11
HETATM   11  C   UNL     1     -43.811 -53.632  12.573  1.00  0.00     0.235 C 
BRANCH  11  12
HETATM   12  N   UNL     1     -45.013 -53.292  13.334  1.00  0.00    -0.301 N 
HETATM   13  C   UNL     1     -45.436 -51.980  13.399  1.00  0.00     0.097 A 
HETATM   14  C   UNL     1     -46.510 -51.637  14.111  1.00  0.00     0.034 A 
HETATM   15  C   UNL     1     -47.173 -52.758  14.783  1.00  0.00     0.094 A 
HETATM   16  N   UNL     1     -46.814 -53.992  14.724  1.00  0.00    -0.319 N 
HETATM   17  C   UNL     1     -45.705 -54.322  13.979  1.00  0.00     0.326 A 
ATOM     18  HN  UNL     1     -47.340 -54.712  15.219  1.00  0.00     0.170 HD
HETATM   19  O   UNL     1     -45.335 -55.491  13.889  1.00  0.00    -0.246 OA
ENDBRANCH  11  12
ENDBRANCH   8  11
ENDBRANCH   1   7
BRANCH   4  20
HETATM   20  C   UNL     1     -39.517 -47.923  13.468  1.00  0.00     0.121 C 
BRANCH  20  21
HETATM   21  C   UNL     1     -40.497 -46.765  13.117  1.00  0.00     0.003 C 
HETATM   22  C   UNL     1     -40.798 -46.756  11.602  1.00  0.00     0.006 C 
HETATM   23  C   UNL     1     -39.856 -45.899  10.764  1.00  0.00     0.000 C 
HETATM   24  C   UNL     1     -39.808 -44.473  11.287  1.00  0.00     0.000 C 
HETATM   25  C   UNL     1     -39.322 -44.451  12.727  1.00  0.00     0.000 C 
HETATM   26  C   UNL     1     -40.132 -45.363  13.651  1.00  0.00     0.006 C 
ENDBRANCH  20  21
ENDBRANCH   4  20
TORSDOF 5
ENDMDL
MODEL 5
REMARK VINA RESULT:      -6.1      3.689      4.594
REMARK  5 active torsions:
REMARK  status: ('A' for Active; 'I' for Inactive)
REMARK    1  A    between atoms: C_2  and  C_3 
REMARK       I    between atoms: C_2  and  N_12 
REMARK    2  A    between atoms: C_3  and  N_4 
REMARK    3  A    between atoms: N_12  and  C_13 
REMARK    4  A    between atoms: N_16  and  C_17 
REMARK    5  A    between atoms: C_17  and  C_18 
ROOT
HETATM    1  C   UNL     1     -40.890 -50.207  12.327  1.00  0.00     0.087 C 
HETATM    2  C   UNL     1     -40.875 -51.725  12.132  1.00  0.00     0.044 C 
HETATM    3  C   UNL     1     -42.301 -52.303  12.141  1.00  0.00     0.119 C 
HETATM    4  N   UNL     1     -43.161 -51.903  13.272  1.00  0.00    -0.412 N 
HETATM    5  C   UNL     1     -42.985 -50.517  13.720  1.00  0.00     0.119 C 
HETATM    6  C   UNL     1     -41.557 -49.958  13.682  1.00  0.00     0.044 C 
ENDROOT
BRANCH   1   7
HETATM    7  N   UNL     1     -41.635 -49.548  11.245  1.00  0.00    -0.355 N 
HETATM    8  C   UNL     1     -41.574 -48.319  10.669  1.00  0.00     0.236 C 
HETATM    9  O   UNL     1     -42.325 -48.119   9.702  1.00  0.00    -0.272 OA
HETATM   10  H   UNL     1     -42.349 -50.107  10.791  1.00  0.00     0.162 HD
BRANCH   8  11
HETATM   11  C   UNL     1     -40.582 -47.254  11.100  1.00  0.00     0.235 C 
BRANCH  11  12
HETATM   12  N   UNL     1     -41.251 -46.078  11.655  1.00  0.00    -0.301 N 
HETATM   13  C   UNL     1     -41.989 -46.191  12.817  1.00  0.00     0.097 A 
HETATM   14  C   UNL     1     -42.635 -45.143  13.328  1.00  0.00     0.034 A 
HETATM   15  C   UNL     1     -42.478 -43.905  12.562  1.00  0.00     0.094 A 
HETATM   16  N   UNL     1     -41.782 -43.764  11.488  1.00  0.00    -0.319 N 
HETATM   17  C   UNL     1     -41.120 -44.859  10.983  1.00  0.00     0.326 A 
ATOM     18  HN  UNL     1     -41.722 -42.859  11.021  1.00  0.00     0.170 HD
HETATM   19  O   UNL     1     -40.437 -44.764   9.966  1.00  0.00    -0.246 OA
ENDBRANCH  11  12
ENDBRANCH   8  11
ENDBRANCH   1   7
BRANCH   4  20
HETATM   20  C   UNL     1     -43.266 -52.957  14.291  1.00  0.00     0.121 C 
BRANCH  20  21
HETATM   21  C   UNL     1     -44.654 -53.280  14.920  1.00  0.00     0.003 C 
HETATM   22  C   UNL     1     -45.751 -53.277  13.833  1.00  0.00     0.006 C 
HETATM   23  C   UNL     1     -46.429 -51.930  13.607  1.00  0.00     0.000 C 
HETATM   24  C   UNL     1     -46.992 -51.380  14.907  1.00  0.00     0.000 C 
HETATM   25  C   UNL     1     -45.882 -51.192  15.929  1.00  0.00     0.000 C 
HETATM   26  C   UNL     1     -45.057 -52.458  16.164  1.00  0.00     0.006 C 
ENDBRANCH  20  21
ENDBRANCH   4  20
TORSDOF 5
ENDMDL
MODEL 6
REMARK VINA RESULT:      -6.0      2.302      6.856
REMARK  5 active torsions:
REMARK  status: ('A' for Active; 'I' for Inactive)
REMARK    1  A    between atoms: C_2  and  C_3 
REMARK       I    between atoms: C_2  and  N_12 
REMARK    2  A    between atoms: C_3  and  N_4 
REMARK    3  A    between atoms: N_12  and  C_13 
REMARK    4  A    between atoms: N_16  and  C_17 
REMARK    5  A    between atoms: C_17  and  C_18 
ROOT
HETATM    1  C   UNL     1     -41.608 -53.587  13.737  1.00  0.00     0.087 C 
HETATM    2  C   UNL     1     -40.091 -53.743  13.605  1.00  0.00     0.044 C 
HETATM    3  C   UNL     1     -39.359 -52.454  14.014  1.00  0.00     0.119 C 
HETATM    4  N   UNL     1     -39.839 -51.204  13.391  1.00  0.00    -0.412 N 
HETATM    5  C   UNL     1     -41.290 -51.131  13.197  1.00  0.00     0.119 C 
HETATM    6  C   UNL     1     -42.000 -52.434  12.809  1.00  0.00     0.044 C 
ENDROOT
BRANCH   1   7
HETATM    7  N   UNL     1     -41.984 -53.294  15.127  1.00  0.00    -0.355 N 
HETATM    8  C   UNL     1     -43.100 -53.513  15.870  1.00  0.00     0.236 C 
HETATM    9  O   UNL     1     -43.044 -53.192  17.067  1.00  0.00    -0.272 OA
HETATM   10  H   UNL     1     -41.273 -52.844  15.696  1.00  0.00     0.162 HD
BRANCH   8  11
HETATM   11  C   UNL     1     -44.336 -54.200  15.319  1.00  0.00     0.235 C 
BRANCH  11  12
HETATM   12  N   UNL     1     -45.173 -53.281  14.549  1.00  0.00    -0.301 N 
HETATM   13  C   UNL     1     -45.688 -52.151  15.152  1.00  0.00     0.097 A 
HETATM   14  C   UNL     1     -46.479 -51.312  14.483  1.00  0.00     0.034 A 
HETATM   15  C   UNL     1     -46.728 -51.697  13.092  1.00  0.00     0.094 A 
HETATM   16  N   UNL     1     -46.247 -52.732  12.497  1.00  0.00    -0.319 N 
HETATM   17  C   UNL     1     -45.428 -53.580  13.207  1.00  0.00     0.326 A 
ATOM     18  HN  UNL     1     -46.468 -52.920  11.519  1.00  0.00     0.170 HD
HETATM   19  O   UNL     1     -44.941 -54.573  12.672  1.00  0.00    -0.246 OA
ENDBRANCH  11  12
ENDBRANCH   8  11
ENDBRANCH   1   7
BRANCH   4  20
HETATM   20  C   UNL     1     -38.966 -50.757  12.297  1.00  0.00     0.121 C 
BRANCH  20  21
HETATM   21  C   UNL     1     -38.422 -49.297  12.296  1.00  0.00     0.003 C 
HETATM   22  C   UNL     1     -37.711 -48.988  13.632  1.00  0.00     0.006 C 
HETATM   23  C   UNL     1     -38.607 -48.404  14.718  1.00  0.00     0.000 C 
HETATM   24  C   UNL     1     -39.328 -47.163  14.220  1.00  0.00     0.000 C 
HETATM   25  C   UNL     1     -40.192 -47.497  13.015  1.00  0.00     0.000 C 
HETATM   26  C   UNL     1     -39.418 -48.188  11.890  1.00  0.00     0.006 C 
ENDBRANCH  20  21
ENDBRANCH   4  20
TORSDOF 5
ENDMDL
MODEL 7
REMARK VINA RESULT:      -6.0      2.896      3.555
REMARK  5 active torsions:
REMARK  status: ('A' for Active; 'I' for Inactive)
REMARK    1  A    between atoms: C_2  and  C_3 
REMARK       I    between atoms: C_2  and  N_12 
REMARK    2  A    between atoms: C_3  and  N_4 
REMARK    3  A    between atoms: N_12  and  C_13 
REMARK    4  A    between atoms: N_16  and  C_17 
REMARK    5  A    between atoms: C_17  and  C_18 
ROOT
HETATM    1  C   UNL     1     -39.726 -51.020  13.077  1.00  0.00     0.087 C 
HETATM    2  C   UNL     1     -40.905 -51.365  12.166  1.00  0.00     0.044 C 
HETATM    3  C   UNL     1     -42.232 -51.362  12.943  1.00  0.00     0.119 C 
HETATM    4  N   UNL     1     -42.257 -52.146  14.194  1.00  0.00    -0.412 N 
HETATM    5  C   UNL     1     -41.013 -52.109  14.970  1.00  0.00     0.119 C 
HETATM    6  C   UNL     1     -39.704 -52.091  14.172  1.00  0.00     0.044 C 
ENDROOT
BRANCH   1   7
HETATM    7  N   UNL     1     -39.889 -49.679  13.658  1.00  0.00    -0.355 N 
HETATM    8  C   UNL     1     -39.827 -48.418  13.156  1.00  0.00     0.236 C 
HETATM    9  O   UNL     1     -40.097 -47.493  13.937  1.00  0.00    -0.272 OA
HETATM   10  H   UNL     1     -40.117 -49.646  14.646  1.00  0.00     0.162 HD
BRANCH   8  11
HETATM   11  C   UNL     1     -39.536 -48.126  11.694  1.00  0.00     0.235 C 
BRANCH  11  12
HETATM   12  N   UNL     1     -40.683 -47.520  11.020  1.00  0.00    -0.301 N 
HETATM   13  C   UNL     1     -41.810 -48.278  10.767  1.00  0.00     0.097 A 
HETATM   14  C   UNL     1     -42.858 -47.760  10.127  1.00  0.00     0.034 A 
HETATM   15  C   UNL     1     -42.698 -46.356   9.743  1.00  0.00     0.094 A 
HETATM   16  N   UNL     1     -41.670 -45.619   9.982  1.00  0.00    -0.319 N 
HETATM   17  C   UNL     1     -40.602 -46.175  10.649  1.00  0.00     0.326 A 
ATOM     18  HN  UNL     1     -41.646 -44.644   9.683  1.00  0.00     0.170 HD
HETATM   19  O   UNL     1     -39.606 -45.503  10.906  1.00  0.00    -0.246 OA
ENDBRANCH  11  12
ENDBRANCH   8  11
ENDBRANCH   1   7
BRANCH   4  20
HETATM   20  C   UNL     1     -42.936 -53.439  14.028  1.00  0.00     0.121 C 
BRANCH  20  21
HETATM   21  C   UNL     1     -44.432 -53.579  14.440  1.00  0.00     0.003 C 
HETATM   22  C   UNL     1     -45.334 -53.605  13.187  1.00  0.00     0.006 C 
HETATM   23  C   UNL     1     -45.833 -52.240  12.725  1.00  0.00     0.000 C 
HETATM   24  C   UNL     1     -46.541 -51.509  13.854  1.00  0.00     0.000 C 
HETATM   25  C   UNL     1     -45.597 -51.302  15.027  1.00  0.00     0.000 C 
HETATM   26  C   UNL     1     -44.948 -52.598  15.516  1.00  0.00     0.006 C 
ENDBRANCH  20  21
ENDBRANCH   4  20
TORSDOF 5
ENDMDL
MODEL 8
REMARK VINA RESULT:      -5.9      3.614      7.963
REMARK  5 active torsions:
REMARK  status: ('A' for Active; 'I' for Inactive)
REMARK    1  A    between atoms: C_2  and  C_3 
REMARK       I    between atoms: C_2  and  N_12 
REMARK    2  A    between atoms: C_3  and  N_4 
REMARK    3  A    between atoms: N_12  and  C_13 
REMARK    4  A    between atoms: N_16  and  C_17 
REMARK    5  A    between atoms: C_17  and  C_18 
ROOT
HETATM    1  C   UNL     1     -42.728 -49.161  12.654  1.00  0.00     0.087 C 
HETATM    2  C   UNL     1     -43.122 -48.174  11.553  1.00  0.00     0.044 C 
HETATM    3  C   UNL     1     -41.960 -47.937  10.572  1.00  0.00     0.119 C 
HETATM    4  N   UNL     1     -40.657 -47.594  11.175  1.00  0.00    -0.412 N 
HETATM    5  C   UNL     1     -40.357 -48.290  12.431  1.00  0.00     0.119 C 
HETATM    6  C   UNL     1     -41.536 -48.533  13.382  1.00  0.00     0.044 C 
ENDROOT
BRANCH   1   7
HETATM    7  N   UNL     1     -42.365 -50.465  12.081  1.00  0.00    -0.355 N 
HETATM    8  C   UNL     1     -42.378 -51.740  12.552  1.00  0.00     0.236 C 
HETATM    9  O   UNL     1     -42.067 -52.633  11.750  1.00  0.00    -0.272 OA
HETATM   10  H   UNL     1     -42.047 -50.457  11.118  1.00  0.00     0.162 HD
BRANCH   8  11
HETATM   11  C   UNL     1     -42.837 -52.097  13.955  1.00  0.00     0.235 C 
BRANCH  11  12
HETATM   12  N   UNL     1     -44.279 -52.331  14.015  1.00  0.00    -0.301 N 
HETATM   13  C   UNL     1     -45.141 -51.266  14.187  1.00  0.00     0.097 A 
HETATM   14  C   UNL     1     -46.458 -51.454  14.276  1.00  0.00     0.034 A 
HETATM   15  C   UNL     1     -46.877 -52.853  14.168  1.00  0.00     0.094 A 
HETATM   16  N   UNL     1     -46.100 -53.863  13.988  1.00  0.00    -0.319 N 
HETATM   17  C   UNL     1     -44.745 -53.643  13.893  1.00  0.00     0.326 A 
ATOM     18  HN  UNL     1     -46.480 -54.806  13.916  1.00  0.00     0.170 HD
HETATM   19  O   UNL     1     -43.970 -54.579  13.710  1.00  0.00    -0.246 OA
ENDBRANCH  11  12
ENDBRANCH   8  11
ENDBRANCH   1   7
BRANCH   4  20
HETATM   20  C   UNL     1     -40.364 -46.157  11.088  1.00  0.00     0.121 C 
BRANCH  20  21
HETATM   21  C   UNL     1     -40.978 -45.183  12.137  1.00  0.00     0.003 C 
HETATM   22  C   UNL     1     -41.744 -44.044  11.429  1.00  0.00     0.006 C 
HETATM   23  C   UNL     1     -40.911 -42.806  11.115  1.00  0.00     0.000 C 
HETATM   24  C   UNL     1     -40.238 -42.272  12.368  1.00  0.00     0.000 C 
HETATM   25  C   UNL     1     -39.322 -43.325  12.970  1.00  0.00     0.000 C 
HETATM   26  C   UNL     1     -40.026 -44.658  13.234  1.00  0.00     0.006 C 
ENDBRANCH  20  21
ENDBRANCH   4  20
TORSDOF 5
ENDMDL
MODEL 9
REMARK VINA RESULT:      -5.9      1.572      2.805
REMARK  5 active torsions:
REMARK  status: ('A' for Active; 'I' for Inactive)
REMARK    1  A    between atoms: C_2  and  C_3 
REMARK       I    between atoms: C_2  and  N_12 
REMARK    2  A    between atoms: C_3  and  N_4 
REMARK    3  A    between atoms: N_12  and  C_13 
REMARK    4  A    between atoms: N_16  and  C_17 
REMARK    5  A    between atoms: C_17  and  C_18 
ROOT
HETATM    1  C   UNL     1     -39.773 -52.066  14.465  1.00  0.00     0.087 C 
HETATM    2  C   UNL     1     -40.411 -53.451  14.598  1.00  0.00     0.044 C 
HETATM    3  C   UNL     1     -41.037 -53.908  13.269  1.00  0.00     0.119 C 
HETATM    4  N   UNL     1     -41.943 -52.947  12.609  1.00  0.00    -0.412 N 
HETATM    5  C   UNL     1     -41.541 -51.541  12.726  1.00  0.00     0.119 C 
HETATM    6  C   UNL     1     -40.901 -51.115  14.052  1.00  0.00     0.044 C 
ENDROOT
BRANCH   1   7
HETATM    7  N   UNL     1     -38.702 -52.079  13.459  1.00  0.00    -0.355 N 
HETATM    8  C   UNL     1     -37.687 -51.231  13.150  1.00  0.00     0.236 C 
HETATM    9  O   UNL     1     -36.902 -51.600  12.263  1.00  0.00    -0.272 OA
HETATM   10  H   UNL     1     -38.668 -52.893  12.853  1.00  0.00     0.162 HD
BRANCH   8  11
HETATM   11  C   UNL     1     -37.441 -49.931  13.896  1.00  0.00     0.235 C 
BRANCH  11  12
HETATM   12  N   UNL     1     -38.369 -48.880  13.481  1.00  0.00    -0.301 N 
HETATM   13  C   UNL     1     -38.783 -48.809  12.166  1.00  0.00     0.097 A 
HETATM   14  C   UNL     1     -39.604 -47.842  11.753  1.00  0.00     0.034 A 
HETATM   15  C   UNL     1     -40.012 -46.907  12.804  1.00  0.00     0.094 A 
HETATM   16  N   UNL     1     -39.659 -46.960  14.041  1.00  0.00    -0.319 N 
HETATM   17  C   UNL     1     -38.815 -47.969  14.443  1.00  0.00     0.326 A 
ATOM     18  HN  UNL     1     -39.998 -46.268  14.709  1.00  0.00     0.170 HD
HETATM   19  O   UNL     1     -38.463 -48.061  15.617  1.00  0.00    -0.246 OA
ENDBRANCH  11  12
ENDBRANCH   8  11
ENDBRANCH   1   7
BRANCH   4  20
HETATM   20  C   UNL     1     -43.359 -53.285  12.815  1.00  0.00     0.121 C 
BRANCH  20  21
HETATM   21  C   UNL     1     -44.029 -52.983  14.188  1.00  0.00     0.003 C 
HETATM   22  C   UNL     1     -44.677 -54.261  14.763  1.00  0.00     0.006 C 
HETATM   23  C   UNL     1     -46.133 -54.479  14.365  1.00  0.00     0.000 C 
HETATM   24  C   UNL     1     -46.981 -53.269  14.720  1.00  0.00     0.000 C 
HETATM   25  C   UNL     1     -46.468 -52.032  14.000  1.00  0.00     0.000 C 
HETATM   26  C   UNL     1     -44.980 -51.767  14.240  1.00  0.00     0.006 C 
ENDBRANCH  20  21
ENDBRANCH   4  20
TORSDOF 5
ENDMDL
