MODEL 1
REMARK VINA RESULT:      -6.0      0.000      0.000
REMARK  4 active torsions:
REMARK  status: ('A' for Active; 'I' for Inactive)
REMARK    1  A    between atoms: C_2  and  C_5 
REMARK    2  A    between atoms: C_10  and  N_11 
REMARK    3  A    between atoms: N_11  and  C_12 
REMARK    4  A    between atoms: C_12  and  C_13 
ROOT
HETATM    1  C   UNL     1     -39.193 -49.782  11.970  1.00  0.00     0.052 A 
HETATM    2  C   UNL     1     -39.882 -48.598  11.703  1.00  0.00     0.033 A 
HETATM    3  C   UNL     1     -41.245 -48.669  11.486  1.00  0.00     0.090 A 
HETATM    4  N   UNL     1     -41.948 -49.822  11.498  1.00  0.00    -0.353 N 
ATOM      5  HN  UNL     1     -42.951 -49.826  11.311  1.00  0.00     0.166 HD
HETATM    6  C   UNL     1     -41.290 -50.968  11.764  1.00  0.00     0.101 A 
HETATM    7  C   UNL     1     -39.924 -50.975  12.018  1.00  0.00     0.064 A 
ENDROOT
BRANCH   6   8
HETATM    8  N   UNL     1     -41.924 -52.197  11.671  1.00  0.00    -0.370 N 
HETATM    9  H   UNL     1     -41.978 -52.554  10.725  1.00  0.00     0.161 HD
BRANCH   8  10
HETATM   10  C   UNL     1     -41.614 -53.225  12.643  1.00  0.00     0.187 C 
BRANCH  10  11
HETATM   11  C   UNL     1     -42.944 -53.787  13.105  1.00  0.00     0.085 C 
HETATM   12  C   UNL     1     -44.074 -53.554  12.424  1.00  0.00     0.168 C 
HETATM   13  O   UNL     1     -45.313 -54.009  12.743  1.00  0.00    -0.358 OA
HETATM   14  C   UNL     1     -45.350 -54.942  13.816  1.00  0.00     0.201 C 
HETATM   15  C   UNL     1     -44.133 -55.009  14.742  1.00  0.00     0.202 C 
HETATM   16  O   UNL     1     -42.882 -54.562  14.233  1.00  0.00    -0.350 OA
ENDBRANCH  10  11
ENDBRANCH   8  10
ENDBRANCH   6   8
BRANCH   1  17
HETATM   17  C   UNL     1     -37.708 -49.817  12.166  1.00  0.00     0.417 C 
HETATM   18  F   UNL     1     -37.251 -51.008  12.642  1.00  0.00    -0.166 F 
HETATM   19  F   UNL     1     -37.279 -48.875  13.052  1.00  0.00    -0.166 F 
HETATM   20  F   UNL     1     -37.022 -49.585  11.013  1.00  0.00    -0.166 F 
ENDBRANCH   1  17
TORSDOF 4
ENDMDL
MODEL 2
REMARK VINA RESULT:      -5.8      6.818      8.601
REMARK  4 active torsions:
REMARK  status: ('A' for Active; 'I' for Inactive)
REMARK    1  A    between atoms: C_2  and  C_5 
REMARK    2  A    between atoms: C_10  and  N_11 
REMARK    3  A    between atoms: N_11  and  C_12 
REMARK    4  A    between atoms: C_12  and  C_13 
ROOT
HETATM    1  C   UNL     1     -45.383 -47.333   9.279  1.00  0.00     0.052 A 
HETATM    2  C   UNL     1     -45.302 -46.022   8.806  1.00  0.00     0.033 A 
HETATM    3  C   UNL     1     -44.220 -45.254   9.193  1.00  0.00     0.090 A 
HETATM    4  N   UNL     1     -43.244 -45.692  10.018  1.00  0.00    -0.353 N 
ATOM      5  HN  UNL     1     -42.476 -45.080  10.292  1.00  0.00     0.166 HD
HETATM    6  C   UNL     1     -43.313 -46.960  10.470  1.00  0.00     0.101 A 
HETATM    7  C   UNL     1     -44.356 -47.803  10.106  1.00  0.00     0.064 A 
ENDROOT
BRANCH   6   8
HETATM    8  N   UNL     1     -42.416 -47.433  11.415  1.00  0.00    -0.370 N 
HETATM    9  H   UNL     1     -42.752 -48.242  11.924  1.00  0.00     0.161 HD
BRANCH   8  10
HETATM   10  C   UNL     1     -41.014 -47.532  11.067  1.00  0.00     0.187 C 
BRANCH  10  11
HETATM   11  C   UNL     1     -40.321 -46.376  11.763  1.00  0.00     0.085 C 
HETATM   12  C   UNL     1     -39.666 -46.551  12.918  1.00  0.00     0.168 C 
HETATM   13  O   UNL     1     -39.009 -45.592  13.622  1.00  0.00    -0.358 OA
HETATM   14  C   UNL     1     -38.899 -44.336  12.963  1.00  0.00     0.201 C 
HETATM   15  C   UNL     1     -39.844 -44.062  11.793  1.00  0.00     0.202 C 
HETATM   16  O   UNL     1     -40.396 -45.178  11.104  1.00  0.00    -0.350 OA
ENDBRANCH  10  11
ENDBRANCH   8  10
ENDBRANCH   6   8
BRANCH   1  17
HETATM   17  C   UNL     1     -46.542 -48.227   8.961  1.00  0.00     0.417 C 
HETATM   18  F   UNL     1     -46.655 -49.291   9.803  1.00  0.00    -0.166 F 
HETATM   19  F   UNL     1     -46.463 -48.754   7.707  1.00  0.00    -0.166 F 
HETATM   20  F   UNL     1     -47.737 -47.577   9.017  1.00  0.00    -0.166 F 
ENDBRANCH   1  17
TORSDOF 4
ENDMDL
MODEL 3
REMARK VINA RESULT:      -5.8      5.366      6.812
REMARK  4 active torsions:
REMARK  status: ('A' for Active; 'I' for Inactive)
REMARK    1  A    between atoms: C_2  and  C_5 
REMARK    2  A    between atoms: C_10  and  N_11 
REMARK    3  A    between atoms: N_11  and  C_12 
REMARK    4  A    between atoms: C_12  and  C_13 
ROOT
HETATM    1  C   UNL     1     -45.210 -47.357   9.315  1.00  0.00     0.052 A 
HETATM    2  C   UNL     1     -44.994 -46.068   8.824  1.00  0.00     0.033 A 
HETATM    3  C   UNL     1     -43.853 -45.399   9.223  1.00  0.00     0.090 A 
HETATM    4  N   UNL     1     -42.942 -45.913  10.078  1.00  0.00    -0.353 N 
ATOM      5  HN  UNL     1     -42.124 -45.372  10.360  1.00  0.00     0.166 HD
HETATM    6  C   UNL     1     -43.141 -47.161  10.548  1.00  0.00     0.101 A 
HETATM    7  C   UNL     1     -44.251 -47.907  10.173  1.00  0.00     0.064 A 
ENDROOT
BRANCH   6   8
HETATM    8  N   UNL     1     -42.313 -47.700  11.521  1.00  0.00    -0.370 N 
HETATM    9  H   UNL     1     -42.776 -48.376  12.117  1.00  0.00     0.161 HD
BRANCH   8  10
HETATM   10  C   UNL     1     -40.968 -48.098  11.161  1.00  0.00     0.187 C 
BRANCH  10  11
HETATM   11  C   UNL     1     -40.799 -49.521  11.655  1.00  0.00     0.085 C 
HETATM   12  C   UNL     1     -39.586 -50.073  11.789  1.00  0.00     0.168 C 
HETATM   13  O   UNL     1     -39.319 -51.331  12.225  1.00  0.00    -0.358 OA
HETATM   14  C   UNL     1     -40.445 -52.043  12.722  1.00  0.00     0.201 C 
HETATM   15  C   UNL     1     -41.835 -51.532  12.340  1.00  0.00     0.202 C 
HETATM   16  O   UNL     1     -41.966 -50.162  11.976  1.00  0.00    -0.350 OA
ENDBRANCH  10  11
ENDBRANCH   8  10
ENDBRANCH   6   8
BRANCH   1  17
HETATM   17  C   UNL     1     -46.442 -48.143   8.983  1.00  0.00     0.417 C 
HETATM   18  F   UNL     1     -46.432 -48.662   7.725  1.00  0.00    -0.166 F 
HETATM   19  F   UNL     1     -47.575 -47.392   9.065  1.00  0.00    -0.166 F 
HETATM   20  F   UNL     1     -46.632 -49.198   9.823  1.00  0.00    -0.166 F 
ENDBRANCH   1  17
TORSDOF 4
ENDMDL
MODEL 4
REMARK VINA RESULT:      -5.8      4.713      6.992
REMARK  4 active torsions:
REMARK  status: ('A' for Active; 'I' for Inactive)
REMARK    1  A    between atoms: C_2  and  C_5 
REMARK    2  A    between atoms: C_10  and  N_11 
REMARK    3  A    between atoms: N_11  and  C_12 
REMARK    4  A    between atoms: C_12  and  C_13 
ROOT
HETATM    1  C   UNL     1     -45.510 -52.563  14.025  1.00  0.00     0.052 A 
HETATM    2  C   UNL     1     -45.725 -53.942  13.994  1.00  0.00     0.033 A 
HETATM    3  C   UNL     1     -44.838 -54.726  13.282  1.00  0.00     0.090 A 
HETATM    4  N   UNL     1     -43.783 -54.234  12.596  1.00  0.00    -0.353 N 
ATOM      5  HN  UNL     1     -43.167 -54.851  12.067  1.00  0.00     0.166 HD
HETATM    6  C   UNL     1     -43.566 -52.904  12.630  1.00  0.00     0.101 A 
HETATM    7  C   UNL     1     -44.398 -52.052  13.345  1.00  0.00     0.064 A 
ENDROOT
BRANCH   6   8
HETATM    8  N   UNL     1     -42.578 -52.319  11.852  1.00  0.00    -0.370 N 
HETATM    9  H   UNL     1     -42.706 -51.323  11.716  1.00  0.00     0.161 HD
BRANCH   8  10
HETATM   10  C   UNL     1     -41.195 -52.682  12.079  1.00  0.00     0.187 C 
BRANCH  10  11
HETATM   11  C   UNL     1     -40.411 -51.385  12.085  1.00  0.00     0.085 C 
HETATM   12  C   UNL     1     -40.995 -50.216  11.788  1.00  0.00     0.168 C 
HETATM   13  O   UNL     1     -40.393 -48.999  11.768  1.00  0.00    -0.358 OA
HETATM   14  C   UNL     1     -39.059 -48.984  12.262  1.00  0.00     0.201 C 
HETATM   15  C   UNL     1     -38.319 -50.319  12.354  1.00  0.00     0.202 C 
HETATM   16  O   UNL     1     -39.096 -51.508  12.446  1.00  0.00    -0.350 OA
ENDBRANCH  10  11
ENDBRANCH   8  10
ENDBRANCH   6   8
BRANCH   1  17
HETATM   17  C   UNL     1     -46.444 -51.623  14.725  1.00  0.00     0.417 C 
HETATM   18  F   UNL     1     -47.295 -52.245  15.587  1.00  0.00    -0.166 F 
HETATM   19  F   UNL     1     -47.236 -50.935  13.856  1.00  0.00    -0.166 F 
HETATM   20  F   UNL     1     -45.789 -50.682  15.458  1.00  0.00    -0.166 F 
ENDBRANCH   1  17
TORSDOF 4
ENDMDL
MODEL 5
REMARK VINA RESULT:      -5.8      4.597      7.147
REMARK  4 active torsions:
REMARK  status: ('A' for Active; 'I' for Inactive)
REMARK    1  A    between atoms: C_2  and  C_5 
REMARK    2  A    between atoms: C_10  and  N_11 
REMARK    3  A    between atoms: N_11  and  C_12 
REMARK    4  A    between atoms: C_12  and  C_13 
ROOT
HETATM    1  C   UNL     1     -43.889 -54.596  14.208  1.00  0.00     0.052 A 
HETATM    2  C   UNL     1     -43.175 -55.076  15.307  1.00  0.00     0.033 A 
HETATM    3  C   UNL     1     -41.806 -54.892  15.328  1.00  0.00     0.090 A 
HETATM    4  N   UNL     1     -41.114 -54.290  14.336  1.00  0.00    -0.353 N 
ATOM      5  HN  UNL     1     -40.099 -54.196  14.387  1.00  0.00     0.166 HD
HETATM    6  C   UNL     1     -41.800 -53.817  13.276  1.00  0.00     0.101 A 
HETATM    7  C   UNL     1     -43.181 -53.941  13.194  1.00  0.00     0.064 A 
ENDROOT
BRANCH   6   8
HETATM    8  N   UNL     1     -41.142 -53.301  12.170  1.00  0.00    -0.370 N 
HETATM    9  H   UNL     1     -41.150 -53.921  11.369  1.00  0.00     0.161 HD
BRANCH   8  10
HETATM   10  C   UNL     1     -41.351 -51.915  11.809  1.00  0.00     0.187 C 
BRANCH  10  11
HETATM   11  C   UNL     1     -40.071 -51.185  12.167  1.00  0.00     0.085 C 
HETATM   12  C   UNL     1     -39.832 -49.942  11.728  1.00  0.00     0.168 C 
HETATM   13  O   UNL     1     -38.728 -49.196  11.990  1.00  0.00    -0.358 OA
HETATM   14  C   UNL     1     -37.838 -49.760  12.945  1.00  0.00     0.201 C 
HETATM   15  C   UNL     1     -37.969 -51.254  13.244  1.00  0.00     0.202 C 
HETATM   16  O   UNL     1     -39.221 -51.880  12.985  1.00  0.00    -0.350 OA
ENDBRANCH  10  11
ENDBRANCH   8  10
ENDBRANCH   6   8
BRANCH   1  17
HETATM   17  C   UNL     1     -45.368 -54.793  14.067  1.00  0.00     0.417 C 
HETATM   18  F   UNL     1     -45.950 -53.928  13.192  1.00  0.00    -0.166 F 
HETATM   19  F   UNL     1     -46.029 -54.628  15.246  1.00  0.00    -0.166 F 
HETATM   20  F   UNL     1     -45.691 -56.042  13.630  1.00  0.00    -0.166 F 
ENDBRANCH   1  17
TORSDOF 4
ENDMDL
MODEL 6
REMARK VINA RESULT:      -5.6      4.442      6.247
REMARK  4 active torsions:
REMARK  status: ('A' for Active; 'I' for Inactive)
REMARK    1  A    between atoms: C_2  and  C_5 
REMARK    2  A    between atoms: C_10  and  N_11 
REMARK    3  A    between atoms: N_11  and  C_12 
REMARK    4  A    between atoms: C_12  and  C_13 
ROOT
HETATM    1  C   UNL     1     -44.532 -53.565  13.674  1.00  0.00     0.052 A 
HETATM    2  C   UNL     1     -45.145 -52.341  13.946  1.00  0.00     0.033 A 
HETATM    3  C   UNL     1     -44.603 -51.200  13.385  1.00  0.00     0.090 A 
HETATM    4  N   UNL     1     -43.503 -51.198  12.602  1.00  0.00    -0.353 N 
ATOM      5  HN  UNL     1     -43.128 -50.326  12.227  1.00  0.00     0.166 HD
HETATM    6  C   UNL     1     -42.913 -52.378  12.329  1.00  0.00     0.101 A 
HETATM    7  C   UNL     1     -43.412 -53.572  12.835  1.00  0.00     0.064 A 
ENDROOT
BRANCH   6   8
HETATM    8  N   UNL     1     -41.713 -52.436  11.636  1.00  0.00    -0.370 N 
HETATM    9  H   UNL     1     -41.827 -52.458  10.629  1.00  0.00     0.161 HD
BRANCH   8  10
HETATM   10  C   UNL     1     -40.615 -51.591  12.058  1.00  0.00     0.187 C 
BRANCH  10  11
HETATM   11  C   UNL     1     -40.024 -52.247  13.291  1.00  0.00     0.085 C 
HETATM   12  C   UNL     1     -39.846 -51.561  14.427  1.00  0.00     0.168 C 
HETATM   13  O   UNL     1     -39.332 -52.047  15.587  1.00  0.00    -0.358 OA
HETATM   14  C   UNL     1     -39.120 -53.454  15.604  1.00  0.00     0.201 C 
HETATM   15  C   UNL     1     -39.075 -54.183  14.260  1.00  0.00     0.202 C 
HETATM   16  O   UNL     1     -39.728 -53.577  13.150  1.00  0.00    -0.350 OA
ENDBRANCH  10  11
ENDBRANCH   8  10
ENDBRANCH   6   8
BRANCH   1  17
HETATM   17  C   UNL     1     -45.011 -54.850  14.277  1.00  0.00     0.417 C 
HETATM   18  F   UNL     1     -45.759 -55.604  13.426  1.00  0.00    -0.166 F 
HETATM   19  F   UNL     1     -45.790 -54.650  15.377  1.00  0.00    -0.166 F 
HETATM   20  F   UNL     1     -43.987 -55.651  14.686  1.00  0.00    -0.166 F 
ENDBRANCH   1  17
TORSDOF 4
ENDMDL
MODEL 7
REMARK VINA RESULT:      -5.6      3.001      4.092
REMARK  4 active torsions:
REMARK  status: ('A' for Active; 'I' for Inactive)
REMARK    1  A    between atoms: C_2  and  C_5 
REMARK    2  A    between atoms: C_10  and  N_11 
REMARK    3  A    between atoms: N_11  and  C_12 
REMARK    4  A    between atoms: C_12  and  C_13 
ROOT
HETATM    1  C   UNL     1     -40.959 -46.165  10.703  1.00  0.00     0.052 A 
HETATM    2  C   UNL     1     -42.300 -46.018  10.345  1.00  0.00     0.033 A 
HETATM    3  C   UNL     1     -43.054 -47.161  10.155  1.00  0.00     0.090 A 
HETATM    4  N   UNL     1     -42.563 -48.413  10.276  1.00  0.00    -0.353 N 
ATOM      5  HN  UNL     1     -43.155 -49.227  10.105  1.00  0.00     0.166 HD
HETATM    6  C   UNL     1     -41.271 -48.560  10.630  1.00  0.00     0.101 A 
HETATM    7  C   UNL     1     -40.455 -47.461  10.864  1.00  0.00     0.064 A 
ENDROOT
BRANCH   6   8
HETATM    8  N   UNL     1     -40.672 -49.810  10.652  1.00  0.00    -0.370 N 
HETATM    9  H   UNL     1     -40.135 -50.017   9.818  1.00  0.00     0.161 HD
BRANCH   8  10
HETATM   10  C   UNL     1     -40.020 -50.258  11.865  1.00  0.00     0.187 C 
BRANCH  10  11
HETATM   11  C   UNL     1     -40.789 -51.477  12.335  1.00  0.00     0.085 C 
HETATM   12  C   UNL     1     -42.103 -51.417  12.589  1.00  0.00     0.168 C 
HETATM   13  O   UNL     1     -42.888 -52.443  13.007  1.00  0.00    -0.358 OA
HETATM   14  C   UNL     1     -42.254 -53.716  13.017  1.00  0.00     0.201 C 
HETATM   15  C   UNL     1     -40.725 -53.750  12.982  1.00  0.00     0.202 C 
HETATM   16  O   UNL     1     -40.046 -52.623  12.441  1.00  0.00    -0.350 OA
ENDBRANCH  10  11
ENDBRANCH   8  10
ENDBRANCH   6   8
BRANCH   1  17
HETATM   17  C   UNL     1     -40.045 -44.990  10.879  1.00  0.00     0.417 C 
HETATM   18  F   UNL     1     -39.147 -44.843   9.866  1.00  0.00    -0.166 F 
HETATM   19  F   UNL     1     -39.306 -45.074  12.020  1.00  0.00    -0.166 F 
HETATM   20  F   UNL     1     -40.719 -43.809  10.957  1.00  0.00    -0.166 F 
ENDBRANCH   1  17
TORSDOF 4
ENDMDL
MODEL 8
REMARK VINA RESULT:      -5.6      4.667      6.538
REMARK  4 active torsions:
REMARK  status: ('A' for Active; 'I' for Inactive)
REMARK    1  A    between atoms: C_2  and  C_5 
REMARK    2  A    between atoms: C_10  and  N_11 
REMARK    3  A    between atoms: N_11  and  C_12 
REMARK    4  A    between atoms: C_12  and  C_13 
ROOT
HETATM    1  C   UNL     1     -45.419 -52.414  13.969  1.00  0.00     0.052 A 
HETATM    2  C   UNL     1     -45.486 -53.779  13.684  1.00  0.00     0.033 A 
HETATM    3  C   UNL     1     -44.470 -54.341  12.935  1.00  0.00     0.090 A 
HETATM    4  N   UNL     1     -43.423 -53.643  12.445  1.00  0.00    -0.353 N 
ATOM      5  HN  UNL     1     -42.708 -54.099  11.879  1.00  0.00     0.166 HD
HETATM    6  C   UNL     1     -43.348 -52.326  12.725  1.00  0.00     0.101 A 
HETATM    7  C   UNL     1     -44.317 -51.693  13.493  1.00  0.00     0.064 A 
ENDROOT
BRANCH   6   8
HETATM    8  N   UNL     1     -42.370 -51.527  12.152  1.00  0.00    -0.370 N 
HETATM    9  H   UNL     1     -42.204 -50.665  12.659  1.00  0.00     0.161 HD
BRANCH   8  10
HETATM   10  C   UNL     1     -41.149 -52.141  11.674  1.00  0.00     0.187 C 
BRANCH  10  11
HETATM   11  C   UNL     1     -40.361 -52.537  12.907  1.00  0.00     0.085 C 
HETATM   12  C   UNL     1     -39.921 -51.617  13.777  1.00  0.00     0.168 C 
HETATM   13  O   UNL     1     -39.213 -51.858  14.911  1.00  0.00    -0.358 OA
HETATM   14  C   UNL     1     -39.081 -53.233  15.253  1.00  0.00     0.201 C 
HETATM   15  C   UNL     1     -39.348 -54.267  14.158  1.00  0.00     0.202 C 
HETATM   16  O   UNL     1     -40.175 -53.884  13.065  1.00  0.00    -0.350 OA
ENDBRANCH  10  11
ENDBRANCH   8  10
ENDBRANCH   6   8
BRANCH   1  17
HETATM   17  C   UNL     1     -46.497 -51.700  14.727  1.00  0.00     0.417 C 
HETATM   18  F   UNL     1     -47.331 -52.538  15.401  1.00  0.00    -0.166 F 
HETATM   19  F   UNL     1     -47.297 -50.956  13.914  1.00  0.00    -0.166 F 
HETATM   20  F   UNL     1     -46.001 -50.837  15.656  1.00  0.00    -0.166 F 
ENDBRANCH   1  17
TORSDOF 4
ENDMDL
MODEL 9
REMARK VINA RESULT:      -5.6      3.886      6.309
REMARK  4 active torsions:
REMARK  status: ('A' for Active; 'I' for Inactive)
REMARK    1  A    between atoms: C_2  and  C_5 
REMARK    2  A    between atoms: C_10  and  N_11 
REMARK    3  A    between atoms: N_11  and  C_12 
REMARK    4  A    between atoms: C_12  and  C_13 
ROOT
HETATM    1  C   UNL     1     -42.539 -54.152  14.030  1.00  0.00     0.052 A 
HETATM    2  C   UNL     1     -43.868 -54.093  13.609  1.00  0.00     0.033 A 
HETATM    3  C   UNL     1     -44.158 -53.391  12.454  1.00  0.00     0.090 A 
HETATM    4  N   UNL     1     -43.230 -52.742  11.717  1.00  0.00    -0.353 N 
ATOM      5  HN  UNL     1     -43.496 -52.220  10.882  1.00  0.00     0.166 HD
HETATM    6  C   UNL     1     -41.943 -52.804  12.114  1.00  0.00     0.101 A 
HETATM    7  C   UNL     1     -41.569 -53.510  13.250  1.00  0.00     0.064 A 
ENDROOT
BRANCH   6   8
HETATM    8  N   UNL     1     -40.961 -52.061  11.477  1.00  0.00    -0.370 N 
HETATM    9  H   UNL     1     -40.876 -52.266  10.488  1.00  0.00     0.161 HD
BRANCH   8  10
HETATM   10  C   UNL     1     -40.845 -50.648  11.770  1.00  0.00     0.187 C 
BRANCH  10  11
HETATM   11  C   UNL     1     -39.611 -50.494  12.637  1.00  0.00     0.085 C 
HETATM   12  C   UNL     1     -39.621 -49.723  13.732  1.00  0.00     0.168 C 
HETATM   13  O   UNL     1     -38.580 -49.518  14.580  1.00  0.00    -0.358 OA
HETATM   14  C   UNL     1     -37.441 -50.334  14.338  1.00  0.00     0.201 C 
HETATM   15  C   UNL     1     -37.329 -51.009  12.970  1.00  0.00     0.202 C 
HETATM   16  O   UNL     1     -38.525 -51.223  12.230  1.00  0.00    -0.350 OA
ENDBRANCH  10  11
ENDBRANCH   8  10
ENDBRANCH   6   8
BRANCH   1  17
HETATM   17  C   UNL     1     -42.130 -54.842  15.296  1.00  0.00     0.417 C 
HETATM   18  F   UNL     1     -42.383 -54.112  16.417  1.00  0.00    -0.166 F 
HETATM   19  F   UNL     1     -40.797 -55.120  15.329  1.00  0.00    -0.166 F 
HETATM   20  F   UNL     1     -42.765 -56.033  15.472  1.00  0.00    -0.166 F 
ENDBRANCH   1  17
TORSDOF 4
ENDMDL
