MODEL 1
REMARK VINA RESULT:      -6.7      0.000      0.000
REMARK  7 active torsions:
REMARK  status: ('A' for Active; 'I' for Inactive)
REMARK    1  A    between atoms: N_1  and  C_12 
REMARK    2  A    between atoms: N_2  and  C_14 
REMARK    3  A    between atoms: C_4  and  C_13 
REMARK    4  A    between atoms: N_8  and  C_20 
REMARK    5  A    between atoms: C_12  and  C_13 
REMARK    6  A    between atoms: C_20  and  C_26 
REMARK    7  A    between atoms: O_24  and  C_26 
ROOT
HETATM    1  C   UNL     1     -38.932 -52.043  14.487  1.00  0.00     0.221 C 
ENDROOT
BRANCH   1   2
HETATM    2  N   UNL     1     -38.973 -50.973  13.476  1.00  0.00    -0.256 N 
HETATM    3  C   UNL     1     -39.887 -49.939  13.640  1.00  0.00     0.334 C 
HETATM    4  N   UNL     1     -39.992 -49.032  12.583  1.00  0.00    -0.279 N 
HETATM    5  O   UNL     1     -40.580 -49.836  14.651  1.00  0.00    -0.246 OA
HETATM    6  C   UNL     1     -39.020 -48.968  11.605  1.00  0.00     0.146 C 
HETATM    7  C   UNL     1     -37.972 -49.790  11.610  1.00  0.00     0.200 C 
HETATM    8  C   UNL     1     -37.892 -50.881  12.607  1.00  0.00     0.292 C 
HETATM    9  F   UNL     1     -36.997 -49.711  10.685  1.00  0.00    -0.199 F 
HETATM   10  O   UNL     1     -36.919 -51.627  12.648  1.00  0.00    -0.264 OA
BRANCH   4  11
HETATM   11  C   UNL     1     -41.306 -48.411  12.357  1.00  0.00     0.232 C 
HETATM   12  O   UNL     1     -41.837 -48.773  11.071  1.00  0.00    -0.366 OA
HETATM   13  C   UNL     1     -42.839 -47.812  10.722  1.00  0.00     0.170 C 
HETATM   14  C   UNL     1     -42.653 -46.598  11.607  1.00  0.00     0.031 C 
HETATM   15  C   UNL     1     -41.405 -46.895  12.404  1.00  0.00     0.056 C 
ENDBRANCH   4  11
ENDBRANCH   1   2
BRANCH   1  16
HETATM   16  C   UNL     1     -39.582 -53.375  14.057  1.00  0.00     0.179 C 
HETATM   17  O   UNL     1     -38.862 -54.273  13.606  1.00  0.00    -0.290 OA
BRANCH  16  18
HETATM   18  C   UNL     1     -41.059 -53.492  14.069  1.00  0.00     0.036 C 
HETATM   19  C   UNL     1     -41.955 -52.950  13.131  1.00  0.00     0.022 C 
HETATM   20  N   UNL     1     -43.215 -52.956  13.710  1.00  0.00    -0.347 N 
HETATM   21  C   UNL     1     -41.667 -52.455  11.757  1.00  0.00     0.069 C 
HETATM   22  C   UNL     1     -43.201 -53.995  14.641  1.00  0.00     0.009 C 
HETATM   23  C   UNL     1     -41.883 -54.236  14.957  1.00  0.00     0.042 C 
HETATM   24  C   UNL     1     -44.423 -54.672  15.160  1.00  0.00     0.068 C 
BRANCH  20  25
HETATM   25  C   UNL     1     -44.325 -51.985  13.573  1.00  0.00     0.109 C 
HETATM   26  C   UNL     1     -44.349 -50.917  14.671  1.00  0.00     0.035 C 
BRANCH  25  27
HETATM   27  C   UNL     1     -45.774 -52.523  13.351  1.00  0.00     0.192 C 
BRANCH  27  28
HETATM   28  O   UNL     1     -46.038 -52.693  11.938  1.00  0.00    -0.394 OA
HETATM   29  C   UNL     1     -47.053 -51.860  11.385  1.00  0.00     0.201 C 
ENDBRANCH  27  28
ENDBRANCH  25  27
ENDBRANCH  20  25
ENDBRANCH  16  18
ENDBRANCH   1  16
TORSDOF 7
ENDMDL
MODEL 2
REMARK VINA RESULT:      -6.5      1.491      2.492
REMARK  7 active torsions:
REMARK  status: ('A' for Active; 'I' for Inactive)
REMARK    1  A    between atoms: N_1  and  C_12 
REMARK    2  A    between atoms: N_2  and  C_14 
REMARK    3  A    between atoms: C_4  and  C_13 
REMARK    4  A    between atoms: N_8  and  C_20 
REMARK    5  A    between atoms: C_12  and  C_13 
REMARK    6  A    between atoms: C_20  and  C_26 
REMARK    7  A    between atoms: O_24  and  C_26 
ROOT
HETATM    1  C   UNL     1     -39.246 -51.842  14.235  1.00  0.00     0.221 C 
ENDROOT
BRANCH   1   2
HETATM    2  N   UNL     1     -39.050 -50.819  13.194  1.00  0.00    -0.256 N 
HETATM    3  C   UNL     1     -39.809 -49.656  13.254  1.00  0.00     0.334 C 
HETATM    4  N   UNL     1     -39.697 -48.786  12.167  1.00  0.00    -0.279 N 
HETATM    5  O   UNL     1     -40.553 -49.412  14.203  1.00  0.00    -0.246 OA
HETATM    6  C   UNL     1     -38.657 -48.906  11.269  1.00  0.00     0.146 C 
HETATM    7  C   UNL     1     -37.746 -49.872  11.381  1.00  0.00     0.200 C 
HETATM    8  C   UNL     1     -37.906 -50.921  12.412  1.00  0.00     0.292 C 
HETATM    9  F   UNL     1     -36.704 -49.974  10.535  1.00  0.00    -0.199 F 
HETATM   10  O   UNL     1     -37.062 -51.801  12.552  1.00  0.00    -0.264 OA
BRANCH   4  11
HETATM   11  C   UNL     1     -40.883 -47.988  11.819  1.00  0.00     0.232 C 
HETATM   12  O   UNL     1     -41.769 -48.724  10.957  1.00  0.00    -0.366 OA
HETATM   13  C   UNL     1     -42.622 -47.782  10.298  1.00  0.00     0.170 C 
HETATM   14  C   UNL     1     -41.998 -46.409  10.430  1.00  0.00     0.031 C 
HETATM   15  C   UNL     1     -40.675 -46.657  11.115  1.00  0.00     0.056 C 
ENDBRANCH   4  11
ENDBRANCH   1   2
BRANCH   1  16
HETATM   16  C   UNL     1     -40.140 -53.030  13.824  1.00  0.00     0.179 C 
HETATM   17  O   UNL     1     -39.624 -53.997  13.253  1.00  0.00    -0.290 OA
BRANCH  16  18
HETATM   18  C   UNL     1     -41.608 -52.923  14.004  1.00  0.00     0.036 C 
HETATM   19  C   UNL     1     -42.372 -53.481  15.044  1.00  0.00     0.022 C 
HETATM   20  N   UNL     1     -43.696 -53.478  14.632  1.00  0.00    -0.347 N 
HETATM   21  C   UNL     1     -41.905 -53.987  16.364  1.00  0.00     0.069 C 
HETATM   22  C   UNL     1     -43.809 -52.430  13.719  1.00  0.00     0.009 C 
HETATM   23  C   UNL     1     -42.543 -52.176  13.238  1.00  0.00     0.042 C 
HETATM   24  C   UNL     1     -45.091 -51.756  13.369  1.00  0.00     0.068 C 
BRANCH  20  25
HETATM   25  C   UNL     1     -44.773 -54.458  14.901  1.00  0.00     0.109 C 
HETATM   26  C   UNL     1     -45.330 -55.124  13.638  1.00  0.00     0.035 C 
BRANCH  25  27
HETATM   27  C   UNL     1     -45.961 -54.038  15.824  1.00  0.00     0.192 C 
BRANCH  27  28
HETATM   28  O   UNL     1     -45.785 -54.583  17.153  1.00  0.00    -0.394 OA
HETATM   29  C   UNL     1     -45.603 -53.636  18.201  1.00  0.00     0.201 C 
ENDBRANCH  27  28
ENDBRANCH  25  27
ENDBRANCH  20  25
ENDBRANCH  16  18
ENDBRANCH   1  16
TORSDOF 7
ENDMDL
MODEL 3
REMARK VINA RESULT:      -6.2      2.381      6.341
REMARK  7 active torsions:
REMARK  status: ('A' for Active; 'I' for Inactive)
REMARK    1  A    between atoms: N_1  and  C_12 
REMARK    2  A    between atoms: N_2  and  C_14 
REMARK    3  A    between atoms: C_4  and  C_13 
REMARK    4  A    between atoms: N_8  and  C_20 
REMARK    5  A    between atoms: C_12  and  C_13 
REMARK    6  A    between atoms: C_20  and  C_26 
REMARK    7  A    between atoms: O_24  and  C_26 
ROOT
HETATM    1  C   UNL     1     -40.222 -51.138  12.406  1.00  0.00     0.221 C 
ENDROOT
BRANCH   1   2
HETATM    2  N   UNL     1     -40.762 -52.287  13.151  1.00  0.00    -0.256 N 
HETATM    3  C   UNL     1     -42.094 -52.637  12.961  1.00  0.00     0.334 C 
HETATM    4  N   UNL     1     -42.598 -53.634  13.799  1.00  0.00    -0.279 N 
HETATM    5  O   UNL     1     -42.797 -52.087  12.115  1.00  0.00    -0.246 OA
HETATM    6  C   UNL     1     -41.749 -54.449  14.520  1.00  0.00     0.146 C 
HETATM    7  C   UNL     1     -40.427 -54.291  14.477  1.00  0.00     0.200 C 
HETATM    8  C   UNL     1     -39.843 -53.148  13.741  1.00  0.00     0.292 C 
HETATM    9  F   UNL     1     -39.587 -55.104  15.145  1.00  0.00    -0.199 F 
HETATM   10  O   UNL     1     -38.627 -53.004  13.662  1.00  0.00    -0.264 OA
BRANCH   4  11
HETATM   11  C   UNL     1     -44.024 -53.560  14.151  1.00  0.00     0.232 C 
HETATM   12  O   UNL     1     -44.209 -53.592  15.576  1.00  0.00    -0.366 OA
HETATM   13  C   UNL     1     -45.562 -53.980  15.836  1.00  0.00     0.170 C 
HETATM   14  C   UNL     1     -46.123 -54.600  14.574  1.00  0.00     0.031 C 
HETATM   15  C   UNL     1     -44.956 -54.636  13.616  1.00  0.00     0.056 C 
ENDBRANCH   4  11
ENDBRANCH   1   2
BRANCH   1  16
HETATM   16  C   UNL     1     -40.285 -49.788  13.150  1.00  0.00     0.179 C 
HETATM   17  O   UNL     1     -40.294 -49.787  14.386  1.00  0.00    -0.290 OA
BRANCH  16  18
HETATM   18  C   UNL     1     -40.466 -48.542  12.369  1.00  0.00     0.036 C 
HETATM   19  C   UNL     1     -41.677 -47.870  12.124  1.00  0.00     0.022 C 
HETATM   20  N   UNL     1     -41.463 -47.005  11.061  1.00  0.00    -0.347 N 
HETATM   21  C   UNL     1     -42.974 -48.012  12.841  1.00  0.00     0.069 C 
HETATM   22  C   UNL     1     -40.102 -46.699  11.087  1.00  0.00     0.009 C 
HETATM   23  C   UNL     1     -39.475 -47.711  11.780  1.00  0.00     0.042 C 
HETATM   24  C   UNL     1     -39.503 -45.489  10.458  1.00  0.00     0.068 C 
BRANCH  20  25
HETATM   25  C   UNL     1     -42.379 -46.600   9.971  1.00  0.00     0.109 C 
HETATM   26  C   UNL     1     -43.152 -45.310  10.264  1.00  0.00     0.035 C 
BRANCH  25  27
HETATM   27  C   UNL     1     -43.359 -47.660   9.376  1.00  0.00     0.192 C 
BRANCH  27  28
HETATM   28  O   UNL     1     -44.680 -47.502   9.946  1.00  0.00    -0.394 OA
HETATM   29  C   UNL     1     -45.766 -47.498   9.024  1.00  0.00     0.201 C 
ENDBRANCH  27  28
ENDBRANCH  25  27
ENDBRANCH  20  25
ENDBRANCH  16  18
ENDBRANCH   1  16
TORSDOF 7
ENDMDL
MODEL 4
REMARK VINA RESULT:      -6.0      2.289      5.909
REMARK  7 active torsions:
REMARK  status: ('A' for Active; 'I' for Inactive)
REMARK    1  A    between atoms: N_1  and  C_12 
REMARK    2  A    between atoms: N_2  and  C_14 
REMARK    3  A    between atoms: C_4  and  C_13 
REMARK    4  A    between atoms: N_8  and  C_20 
REMARK    5  A    between atoms: C_12  and  C_13 
REMARK    6  A    between atoms: C_20  and  C_26 
REMARK    7  A    between atoms: O_24  and  C_26 
ROOT
HETATM    1  C   UNL     1     -38.069 -51.619  13.877  1.00  0.00     0.221 C 
ENDROOT
BRANCH   1   2
HETATM    2  N   UNL     1     -39.388 -51.857  14.485  1.00  0.00    -0.256 N 
HETATM    3  C   UNL     1     -40.134 -52.947  14.049  1.00  0.00     0.334 C 
HETATM    4  N   UNL     1     -41.437 -53.044  14.544  1.00  0.00    -0.279 N 
HETATM    5  O   UNL     1     -39.681 -53.772  13.257  1.00  0.00    -0.246 OA
HETATM    6  C   UNL     1     -41.833 -52.311  15.644  1.00  0.00     0.146 C 
HETATM    7  C   UNL     1     -41.006 -51.459  16.248  1.00  0.00     0.200 C 
HETATM    8  C   UNL     1     -39.671 -51.189  15.670  1.00  0.00     0.292 C 
HETATM    9  F   UNL     1     -41.368 -50.768  17.346  1.00  0.00    -0.199 F 
HETATM   10  O   UNL     1     -38.883 -50.432  16.230  1.00  0.00    -0.264 OA
BRANCH   4  11
HETATM   11  C   UNL     1     -42.444 -53.663  13.670  1.00  0.00     0.232 C 
HETATM   12  O   UNL     1     -43.129 -52.672  12.885  1.00  0.00    -0.366 OA
HETATM   13  C   UNL     1     -44.360 -53.245  12.430  1.00  0.00     0.170 C 
HETATM   14  C   UNL     1     -44.649 -54.468  13.275  1.00  0.00     0.031 C 
HETATM   15  C   UNL     1     -43.553 -54.481  14.313  1.00  0.00     0.056 C 
ENDBRANCH   4  11
ENDBRANCH   1   2
BRANCH   1  16
HETATM   16  C   UNL     1     -38.074 -50.695  12.642  1.00  0.00     0.179 C 
HETATM   17  O   UNL     1     -37.391 -51.007  11.660  1.00  0.00    -0.290 OA
BRANCH  16  18
HETATM   18  C   UNL     1     -38.787 -49.398  12.716  1.00  0.00     0.036 C 
HETATM   19  C   UNL     1     -40.038 -49.092  12.151  1.00  0.00     0.022 C 
HETATM   20  N   UNL     1     -40.150 -47.710  12.118  1.00  0.00    -0.347 N 
HETATM   21  C   UNL     1     -41.090 -50.030  11.671  1.00  0.00     0.069 C 
HETATM   22  C   UNL     1     -39.343 -47.237  13.152  1.00  0.00     0.009 C 
HETATM   23  C   UNL     1     -38.424 -48.225  13.431  1.00  0.00     0.042 C 
HETATM   24  C   UNL     1     -39.496 -45.900  13.791  1.00  0.00     0.068 C 
BRANCH  20  25
HETATM   25  C   UNL     1     -40.803 -46.837  11.115  1.00  0.00     0.109 C 
HETATM   26  C   UNL     1     -39.892 -45.728  10.579  1.00  0.00     0.035 C 
BRANCH  25  27
HETATM   27  C   UNL     1     -42.206 -46.235  11.439  1.00  0.00     0.192 C 
BRANCH  27  28
HETATM   28  O   UNL     1     -43.253 -47.078  10.903  1.00  0.00    -0.394 OA
HETATM   29  C   UNL     1     -43.039 -47.588   9.590  1.00  0.00     0.201 C 
ENDBRANCH  27  28
ENDBRANCH  25  27
ENDBRANCH  20  25
ENDBRANCH  16  18
ENDBRANCH   1  16
TORSDOF 7
ENDMDL
MODEL 5
REMARK VINA RESULT:      -6.0      3.374      7.219
REMARK  7 active torsions:
REMARK  status: ('A' for Active; 'I' for Inactive)
REMARK    1  A    between atoms: N_1  and  C_12 
REMARK    2  A    between atoms: N_2  and  C_14 
REMARK    3  A    between atoms: C_4  and  C_13 
REMARK    4  A    between atoms: N_8  and  C_20 
REMARK    5  A    between atoms: C_12  and  C_13 
REMARK    6  A    between atoms: C_20  and  C_26 
REMARK    7  A    between atoms: O_24  and  C_26 
ROOT
HETATM    1  C   UNL     1     -43.402 -52.002  12.945  1.00  0.00     0.221 C 
ENDROOT
BRANCH   1   2
HETATM    2  N   UNL     1     -44.437 -52.704  13.723  1.00  0.00    -0.256 N 
HETATM    3  C   UNL     1     -45.223 -51.966  14.600  1.00  0.00     0.334 C 
HETATM    4  N   UNL     1     -46.085 -52.696  15.423  1.00  0.00    -0.279 N 
HETATM    5  O   UNL     1     -45.154 -50.740  14.663  1.00  0.00    -0.246 OA
HETATM    6  C   UNL     1     -46.382 -54.014  15.144  1.00  0.00     0.146 C 
HETATM    7  C   UNL     1     -45.833 -54.650  14.111  1.00  0.00     0.200 C 
HETATM    8  C   UNL     1     -44.788 -53.981  13.303  1.00  0.00     0.292 C 
HETATM    9  F   UNL     1     -46.146 -55.923  13.805  1.00  0.00    -0.199 F 
HETATM   10  O   UNL     1     -44.293 -54.538  12.328  1.00  0.00    -0.264 OA
BRANCH   4  11
HETATM   11  C   UNL     1     -46.377 -52.139  16.752  1.00  0.00     0.232 C 
HETATM   12  O   UNL     1     -46.323 -53.159  17.765  1.00  0.00    -0.366 OA
HETATM   13  C   UNL     1     -47.045 -52.684  18.906  1.00  0.00     0.170 C 
HETATM   14  C   UNL     1     -47.914 -51.526  18.463  1.00  0.00     0.031 C 
HETATM   15  C   UNL     1     -47.715 -51.451  16.968  1.00  0.00     0.056 C 
ENDBRANCH   4  11
ENDBRANCH   1   2
BRANCH   1  16
HETATM   16  C   UNL     1     -42.015 -51.929  13.617  1.00  0.00     0.179 C 
HETATM   17  O   UNL     1     -41.809 -52.598  14.635  1.00  0.00    -0.290 OA
BRANCH  16  18
HETATM   18  C   UNL     1     -41.016 -50.962  13.104  1.00  0.00     0.036 C 
HETATM   19  C   UNL     1     -41.078 -49.560  13.196  1.00  0.00     0.022 C 
HETATM   20  N   UNL     1     -40.176 -49.046  12.275  1.00  0.00    -0.347 N 
HETATM   21  C   UNL     1     -41.923 -48.729  14.096  1.00  0.00     0.069 C 
HETATM   22  C   UNL     1     -39.198 -50.026  12.112  1.00  0.00     0.009 C 
HETATM   23  C   UNL     1     -39.757 -51.223  12.500  1.00  0.00     0.042 C 
HETATM   24  C   UNL     1     -37.823 -49.761  11.603  1.00  0.00     0.068 C 
BRANCH  20  25
HETATM   25  C   UNL     1     -40.262 -47.819  11.450  1.00  0.00     0.109 C 
HETATM   26  C   UNL     1     -39.872 -46.542  12.201  1.00  0.00     0.035 C 
BRANCH  25  27
HETATM   27  C   UNL     1     -41.563 -47.552  10.629  1.00  0.00     0.192 C 
BRANCH  27  28
HETATM   28  O   UNL     1     -42.007 -46.188  10.816  1.00  0.00    -0.394 OA
HETATM   29  C   UNL     1     -43.027 -45.732   9.933  1.00  0.00     0.201 C 
ENDBRANCH  27  28
ENDBRANCH  25  27
ENDBRANCH  20  25
ENDBRANCH  16  18
ENDBRANCH   1  16
TORSDOF 7
ENDMDL
MODEL 6
REMARK VINA RESULT:      -5.9      2.262      6.054
REMARK  7 active torsions:
REMARK  status: ('A' for Active; 'I' for Inactive)
REMARK    1  A    between atoms: N_1  and  C_12 
REMARK    2  A    between atoms: N_2  and  C_14 
REMARK    3  A    between atoms: C_4  and  C_13 
REMARK    4  A    between atoms: N_8  and  C_20 
REMARK    5  A    between atoms: C_12  and  C_13 
REMARK    6  A    between atoms: C_20  and  C_26 
REMARK    7  A    between atoms: O_24  and  C_26 
ROOT
HETATM    1  C   UNL     1     -39.558 -50.456  14.697  1.00  0.00     0.221 C 
ENDROOT
BRANCH   1   2
HETATM    2  N   UNL     1     -40.608 -51.389  14.256  1.00  0.00    -0.256 N 
HETATM    3  C   UNL     1     -41.930 -50.959  14.274  1.00  0.00     0.334 C 
HETATM    4  N   UNL     1     -42.899 -51.925  13.992  1.00  0.00    -0.279 N 
HETATM    5  O   UNL     1     -42.233 -49.798  14.540  1.00  0.00    -0.246 OA
HETATM    6  C   UNL     1     -42.554 -53.124  13.403  1.00  0.00     0.146 C 
HETATM    7  C   UNL     1     -41.287 -53.423  13.119  1.00  0.00     0.200 C 
HETATM    8  C   UNL     1     -40.200 -52.513  13.546  1.00  0.00     0.292 C 
HETATM    9  F   UNL     1     -40.942 -54.572  12.509  1.00  0.00    -0.199 F 
HETATM   10  O   UNL     1     -39.030 -52.754  13.266  1.00  0.00    -0.264 OA
BRANCH   4  11
HETATM   11  C   UNL     1     -44.208 -51.774  14.645  1.00  0.00     0.232 C 
HETATM   12  O   UNL     1     -44.692 -53.037  15.134  1.00  0.00    -0.366 OA
HETATM   13  C   UNL     1     -46.107 -52.923  15.323  1.00  0.00     0.170 C 
HETATM   14  C   UNL     1     -46.586 -51.708  14.556  1.00  0.00     0.031 C 
HETATM   15  C   UNL     1     -45.360 -51.208  13.830  1.00  0.00     0.056 C 
ENDBRANCH   4  11
ENDBRANCH   1   2
BRANCH   1  16
HETATM   16  C   UNL     1     -38.987 -49.544  13.592  1.00  0.00     0.179 C 
HETATM   17  O   UNL     1     -37.866 -49.790  13.134  1.00  0.00    -0.290 OA
BRANCH  16  18
HETATM   18  C   UNL     1     -39.737 -48.326  13.204  1.00  0.00     0.036 C 
HETATM   19  C   UNL     1     -40.561 -48.167  12.076  1.00  0.00     0.022 C 
HETATM   20  N   UNL     1     -40.743 -46.805  11.885  1.00  0.00    -0.347 N 
HETATM   21  C   UNL     1     -41.161 -49.222  11.214  1.00  0.00     0.069 C 
HETATM   22  C   UNL     1     -40.595 -46.221  13.143  1.00  0.00     0.009 C 
HETATM   23  C   UNL     1     -39.866 -47.101  13.913  1.00  0.00     0.042 C 
HETATM   24  C   UNL     1     -41.144 -44.888  13.518  1.00  0.00     0.068 C 
BRANCH  20  25
HETATM   25  C   UNL     1     -40.873 -46.034  10.628  1.00  0.00     0.109 C 
HETATM   26  C   UNL     1     -39.706 -45.077  10.368  1.00  0.00     0.035 C 
BRANCH  25  27
HETATM   27  C   UNL     1     -42.217 -45.295  10.332  1.00  0.00     0.192 C 
BRANCH  27  28
HETATM   28  O   UNL     1     -42.739 -45.694   9.043  1.00  0.00    -0.394 OA
HETATM   29  C   UNL     1     -43.424 -46.942   9.001  1.00  0.00     0.201 C 
ENDBRANCH  27  28
ENDBRANCH  25  27
ENDBRANCH  20  25
ENDBRANCH  16  18
ENDBRANCH   1  16
TORSDOF 7
ENDMDL
MODEL 7
REMARK VINA RESULT:      -5.9      2.360      3.702
REMARK  7 active torsions:
REMARK  status: ('A' for Active; 'I' for Inactive)
REMARK    1  A    between atoms: N_1  and  C_12 
REMARK    2  A    between atoms: N_2  and  C_14 
REMARK    3  A    between atoms: C_4  and  C_13 
REMARK    4  A    between atoms: N_8  and  C_20 
REMARK    5  A    between atoms: C_12  and  C_13 
REMARK    6  A    between atoms: C_20  and  C_26 
REMARK    7  A    between atoms: O_24  and  C_26 
ROOT
HETATM    1  C   UNL     1     -40.884 -52.490  12.261  1.00  0.00     0.221 C 
ENDROOT
BRANCH   1   2
HETATM    2  N   UNL     1     -40.649 -51.126  12.762  1.00  0.00    -0.256 N 
HETATM    3  C   UNL     1     -39.351 -50.629  12.751  1.00  0.00     0.334 C 
HETATM    4  N   UNL     1     -39.155 -49.393  13.373  1.00  0.00    -0.279 N 
HETATM    5  O   UNL     1     -38.420 -51.248  12.239  1.00  0.00    -0.246 OA
HETATM    6  C   UNL     1     -40.225 -48.572  13.668  1.00  0.00     0.146 C 
HETATM    7  C   UNL     1     -41.479 -48.940  13.410  1.00  0.00     0.200 C 
HETATM    8  C   UNL     1     -41.760 -50.304  12.906  1.00  0.00     0.292 C 
HETATM    9  F   UNL     1     -42.527 -48.132  13.656  1.00  0.00    -0.199 F 
HETATM   10  O   UNL     1     -42.904 -50.650  12.632  1.00  0.00    -0.264 OA
BRANCH   4  11
HETATM   11  C   UNL     1     -37.849 -49.157  14.005  1.00  0.00     0.232 C 
HETATM   12  O   UNL     1     -37.674 -49.992  15.163  1.00  0.00    -0.366 OA
HETATM   13  C   UNL     1     -36.646 -49.411  15.973  1.00  0.00     0.170 C 
HETATM   14  C   UNL     1     -36.455 -47.976  15.531  1.00  0.00     0.031 C 
HETATM   15  C   UNL     1     -37.524 -47.752  14.489  1.00  0.00     0.056 C 
ENDBRANCH   4  11
ENDBRANCH   1   2
BRANCH   1  16
HETATM   16  C   UNL     1     -40.732 -53.609  13.312  1.00  0.00     0.179 C 
HETATM   17  O   UNL     1     -39.754 -54.362  13.246  1.00  0.00    -0.290 OA
BRANCH  16  18
HETATM   18  C   UNL     1     -41.824 -53.834  14.289  1.00  0.00     0.036 C 
HETATM   19  C   UNL     1     -43.201 -53.894  14.012  1.00  0.00     0.022 C 
HETATM   20  N   UNL     1     -43.872 -53.729  15.214  1.00  0.00    -0.347 N 
HETATM   21  C   UNL     1     -43.872 -54.103  12.699  1.00  0.00     0.069 C 
HETATM   22  C   UNL     1     -42.999 -54.181  16.203  1.00  0.00     0.009 C 
HETATM   23  C   UNL     1     -41.728 -54.123  15.677  1.00  0.00     0.042 C 
HETATM   24  C   UNL     1     -43.427 -54.626  17.560  1.00  0.00     0.068 C 
BRANCH  20  25
HETATM   25  C   UNL     1     -45.156 -53.047  15.496  1.00  0.00     0.109 C 
HETATM   26  C   UNL     1     -46.383 -53.948  15.325  1.00  0.00     0.035 C 
BRANCH  25  27
HETATM   27  C   UNL     1     -45.439 -51.666  14.825  1.00  0.00     0.192 C 
BRANCH  27  28
HETATM   28  O   UNL     1     -46.645 -51.729  14.027  1.00  0.00    -0.394 OA
HETATM   29  C   UNL     1     -46.483 -51.525  12.627  1.00  0.00     0.201 C 
ENDBRANCH  27  28
ENDBRANCH  25  27
ENDBRANCH  20  25
ENDBRANCH  16  18
ENDBRANCH   1  16
TORSDOF 7
ENDMDL
MODEL 8
REMARK VINA RESULT:      -5.9      3.111      5.948
REMARK  7 active torsions:
REMARK  status: ('A' for Active; 'I' for Inactive)
REMARK    1  A    between atoms: N_1  and  C_12 
REMARK    2  A    between atoms: N_2  and  C_14 
REMARK    3  A    between atoms: C_4  and  C_13 
REMARK    4  A    between atoms: N_8  and  C_20 
REMARK    5  A    between atoms: C_12  and  C_13 
REMARK    6  A    between atoms: C_20  and  C_26 
REMARK    7  A    between atoms: O_24  and  C_26 
ROOT
HETATM    1  C   UNL     1     -41.595 -48.579  10.776  1.00  0.00     0.221 C 
ENDROOT
BRANCH   1   2
HETATM    2  N   UNL     1     -42.004 -47.173  10.628  1.00  0.00    -0.256 N 
HETATM    3  C   UNL     1     -41.169 -46.181  11.130  1.00  0.00     0.334 C 
HETATM    4  N   UNL     1     -41.669 -44.877  11.101  1.00  0.00    -0.279 N 
HETATM    5  O   UNL     1     -40.058 -46.437  11.592  1.00  0.00    -0.246 OA
HETATM    6  C   UNL     1     -42.759 -44.554  10.320  1.00  0.00     0.146 C 
HETATM    7  C   UNL     1     -43.398 -45.474   9.599  1.00  0.00     0.200 C 
HETATM    8  C   UNL     1     -43.020 -46.900   9.719  1.00  0.00     0.292 C 
HETATM    9  F   UNL     1     -44.438 -45.164   8.803  1.00  0.00    -0.199 F 
HETATM   10  O   UNL     1     -43.575 -47.758   9.040  1.00  0.00    -0.264 OA
BRANCH   4  11
HETATM   11  C   UNL     1     -41.230 -43.965  12.168  1.00  0.00     0.232 C 
HETATM   12  O   UNL     1     -42.356 -43.383  12.848  1.00  0.00    -0.366 OA
HETATM   13  C   UNL     1     -41.901 -42.203  13.520  1.00  0.00     0.170 C 
HETATM   14  C   UNL     1     -40.568 -41.807  12.923  1.00  0.00     0.031 C 
HETATM   15  C   UNL     1     -40.353 -42.782  11.790  1.00  0.00     0.056 C 
ENDBRANCH   4  11
ENDBRANCH   1   2
BRANCH   1  16
HETATM   16  C   UNL     1     -42.314 -49.355  11.899  1.00  0.00     0.179 C 
HETATM   17  O   UNL     1     -43.371 -48.904  12.354  1.00  0.00    -0.290 OA
BRANCH  16  18
HETATM   18  C   UNL     1     -41.653 -50.542  12.491  1.00  0.00     0.036 C 
HETATM   19  C   UNL     1     -40.841 -50.569  13.639  1.00  0.00     0.022 C 
HETATM   20  N   UNL     1     -40.132 -51.761  13.616  1.00  0.00    -0.347 N 
HETATM   21  C   UNL     1     -40.727 -49.546  14.714  1.00  0.00     0.069 C 
HETATM   22  C   UNL     1     -40.914 -52.656  12.886  1.00  0.00     0.009 C 
HETATM   23  C   UNL     1     -41.760 -51.904  12.101  1.00  0.00     0.042 C 
HETATM   24  C   UNL     1     -40.802 -54.138  12.983  1.00  0.00     0.068 C 
BRANCH  20  25
HETATM   25  C   UNL     1     -38.752 -52.050  14.070  1.00  0.00     0.109 C 
HETATM   26  C   UNL     1     -38.610 -52.135  15.593  1.00  0.00     0.035 C 
BRANCH  25  27
HETATM   27  C   UNL     1     -37.575 -51.203  13.492  1.00  0.00     0.192 C 
BRANCH  27  28
HETATM   28  O   UNL     1     -37.666 -51.130  12.049  1.00  0.00    -0.394 OA
HETATM   29  C   UNL     1     -37.813 -49.827  11.494  1.00  0.00     0.201 C 
ENDBRANCH  27  28
ENDBRANCH  25  27
ENDBRANCH  20  25
ENDBRANCH  16  18
ENDBRANCH   1  16
TORSDOF 7
ENDMDL
MODEL 9
REMARK VINA RESULT:      -5.8      2.299      5.027
REMARK  7 active torsions:
REMARK  status: ('A' for Active; 'I' for Inactive)
REMARK    1  A    between atoms: N_1  and  C_12 
REMARK    2  A    between atoms: N_2  and  C_14 
REMARK    3  A    between atoms: C_4  and  C_13 
REMARK    4  A    between atoms: N_8  and  C_20 
REMARK    5  A    between atoms: C_12  and  C_13 
REMARK    6  A    between atoms: C_20  and  C_26 
REMARK    7  A    between atoms: O_24  and  C_26 
ROOT
HETATM    1  C   UNL     1     -41.984 -50.636  12.144  1.00  0.00     0.221 C 
ENDROOT
BRANCH   1   2
HETATM    2  N   UNL     1     -40.698 -51.012  12.753  1.00  0.00    -0.256 N 
HETATM    3  C   UNL     1     -40.545 -52.305  13.241  1.00  0.00     0.334 C 
HETATM    4  N   UNL     1     -39.366 -52.567  13.942  1.00  0.00    -0.279 N 
HETATM    5  O   UNL     1     -41.408 -53.167  13.081  1.00  0.00    -0.246 OA
HETATM    6  C   UNL     1     -38.287 -51.712  13.858  1.00  0.00     0.146 C 
HETATM    7  C   UNL     1     -38.340 -50.590  13.141  1.00  0.00     0.200 C 
HETATM    8  C   UNL     1     -39.614 -50.174  12.513  1.00  0.00     0.292 C 
HETATM    9  F   UNL     1     -37.281 -49.768  13.019  1.00  0.00    -0.199 F 
HETATM   10  O   UNL     1     -39.676 -49.162  11.823  1.00  0.00    -0.264 OA
BRANCH   4  11
HETATM   11  C   UNL     1     -39.433 -53.566  15.019  1.00  0.00     0.232 C 
HETATM   12  O   UNL     1     -38.713 -53.123  16.183  1.00  0.00    -0.366 OA
HETATM   13  C   UNL     1     -38.421 -54.273  16.984  1.00  0.00     0.170 C 
HETATM   14  C   UNL     1     -38.595 -55.504  16.119  1.00  0.00     0.031 C 
HETATM   15  C   UNL     1     -38.898 -54.963  14.742  1.00  0.00     0.056 C 
ENDBRANCH   4  11
ENDBRANCH   1   2
BRANCH   1  16
HETATM   16  C   UNL     1     -42.954 -49.880  13.076  1.00  0.00     0.179 C 
HETATM   17  O   UNL     1     -42.858 -48.651  13.167  1.00  0.00    -0.290 OA
BRANCH  16  18
HETATM   18  C   UNL     1     -43.879 -50.656  13.934  1.00  0.00     0.036 C 
HETATM   19  C   UNL     1     -43.565 -51.303  15.143  1.00  0.00     0.022 C 
HETATM   20  N   UNL     1     -44.583 -52.208  15.405  1.00  0.00    -0.347 N 
HETATM   21  C   UNL     1     -42.383 -51.092  16.023  1.00  0.00     0.069 C 
HETATM   22  C   UNL     1     -45.717 -51.698  14.774  1.00  0.00     0.009 C 
HETATM   23  C   UNL     1     -45.280 -50.844  13.786  1.00  0.00     0.042 C 
HETATM   24  C   UNL     1     -47.115 -52.056  15.145  1.00  0.00     0.068 C 
BRANCH  20  25
HETATM   25  C   UNL     1     -44.521 -53.545  16.038  1.00  0.00     0.109 C 
HETATM   26  C   UNL     1     -44.487 -53.501  17.569  1.00  0.00     0.035 C 
BRANCH  25  27
HETATM   27  C   UNL     1     -43.457 -54.570  15.533  1.00  0.00     0.192 C 
BRANCH  27  28
HETATM   28  O   UNL     1     -44.083 -55.583  14.711  1.00  0.00    -0.394 OA
HETATM   29  C   UNL     1     -45.204 -55.163  13.939  1.00  0.00     0.201 C 
ENDBRANCH  27  28
ENDBRANCH  25  27
ENDBRANCH  20  25
ENDBRANCH  16  18
ENDBRANCH   1  16
TORSDOF 7
ENDMDL
