MODEL 1
REMARK VINA RESULT:      -7.4      0.000      0.000
REMARK  4 active torsions:
REMARK  status: ('A' for Active; 'I' for Inactive)
REMARK    1  A    between atoms: C_2  and  C_5 
REMARK    2  A    between atoms: C_7  and  N_17 
REMARK    3  A    between atoms: C_10  and  C_13 
REMARK    4  A    between atoms: C_21  and  C_23 
REMARK       I    between atoms: C_23  and  N_25 
ROOT
HETATM    1  C   UNL     1     -42.480 -46.492  12.388  1.00  0.00     0.021 A 
HETATM    2  C   UNL     1     -41.797 -47.683  12.547  1.00  0.00     0.074 A 
HETATM    3  C   UNL     1     -41.915 -48.660  11.580  1.00  0.00     0.106 A 
HETATM    4  N   UNL     1     -42.695 -48.446  10.507  1.00  0.00    -0.332 N 
ATOM      5  HN  UNL     1     -42.799 -49.164   9.790  1.00  0.00     0.168 HD
HETATM    6  C   UNL     1     -43.337 -47.267  10.395  1.00  0.00     0.090 A 
HETATM    7  N   UNL     1     -43.248 -46.276  11.303  1.00  0.00    -0.348 N 
ATOM      8  HN  UNL     1     -43.743 -45.394  11.174  1.00  0.00     0.167 HD
ENDROOT
BRANCH   3   9
HETATM    9  N   UNL     1     -41.253 -49.862  11.691  1.00  0.00    -0.362 N 
HETATM   10  C   UNL     1     -41.792 -51.045  12.363  1.00  0.00     0.150 C 
HETATM   11  C   UNL     1     -40.790 -51.549  13.415  1.00  0.00     0.189 C 
HETATM   12  O   UNL     1     -39.485 -51.770  12.859  1.00  0.00    -0.373 OA
HETATM   13  C   UNL     1     -38.965 -50.537  12.304  1.00  0.00     0.230 C 
HETATM   14  C   UNL     1     -39.876 -50.000  11.189  1.00  0.00     0.166 C 
BRANCH  13  15
HETATM   15  C   UNL     1     -37.561 -50.792  11.750  1.00  0.00     0.246 C 
HETATM   16  O   UNL     1     -36.782 -51.640  12.170  1.00  0.00    -0.271 OA
HETATM   17  N   UNL     1     -37.235 -50.025  10.662  1.00  0.00    -0.368 N 
HETATM   18  H   UNL     1     -37.732 -49.148  10.544  1.00  0.00     0.159 HD
HETATM   19  H   UNL     1     -36.280 -50.083  10.337  1.00  0.00     0.159 HD
ENDBRANCH  13  15
ENDBRANCH   3   9
BRANCH   1  20
HETATM   20  C   UNL     1     -42.384 -45.393  13.451  1.00  0.00    -0.009 C 
HETATM   21  C   UNL     1     -40.971 -45.389  14.069  1.00  0.00     0.021 C 
HETATM   22  C   UNL     1     -43.426 -45.636  14.562  1.00  0.00     0.021 C 
HETATM   23  C   UNL     1     -42.649 -43.997  12.849  1.00  0.00     0.021 C 
ENDBRANCH   1  20
BRANCH   6  24
HETATM   24  C   UNL     1     -44.248 -47.032   9.188  1.00  0.00     0.007 C 
HETATM   25  C   UNL     1     -44.447 -45.532   8.895  1.00  0.00     0.022 C 
HETATM   26  C   UNL     1     -43.619 -47.690   7.945  1.00  0.00     0.022 C 
HETATM   27  C   UNL     1     -45.631 -47.658   9.446  1.00  0.00     0.022 C 
ENDBRANCH   6  24
TORSDOF 4
ENDMDL
MODEL 2
REMARK VINA RESULT:      -7.0      2.199      4.343
REMARK  4 active torsions:
REMARK  status: ('A' for Active; 'I' for Inactive)
REMARK    1  A    between atoms: C_2  and  C_5 
REMARK    2  A    between atoms: C_7  and  N_17 
REMARK    3  A    between atoms: C_10  and  C_13 
REMARK    4  A    between atoms: C_21  and  C_23 
REMARK       I    between atoms: C_23  and  N_25 
ROOT
HETATM    1  C   UNL     1     -42.572 -47.040  10.014  1.00  0.00     0.021 A 
HETATM    2  C   UNL     1     -42.181 -48.166  10.713  1.00  0.00     0.074 A 
HETATM    3  C   UNL     1     -41.044 -48.112  11.492  1.00  0.00     0.106 A 
HETATM    4  N   UNL     1     -40.330 -46.975  11.554  1.00  0.00    -0.332 N 
ATOM      5  HN  UNL     1     -39.482 -46.924  12.118  1.00  0.00     0.168 HD
HETATM    6  C   UNL     1     -40.755 -45.903  10.857  1.00  0.00     0.090 A 
HETATM    7  N   UNL     1     -41.863 -45.898  10.091  1.00  0.00    -0.348 N 
ATOM      8  HN  UNL     1     -42.155 -45.060   9.588  1.00  0.00     0.167 HD
ENDROOT
BRANCH   3   9
HETATM    9  N   UNL     1     -40.614 -49.206  12.209  1.00  0.00    -0.362 N 
HETATM   10  C   UNL     1     -39.270 -49.353  12.769  1.00  0.00     0.150 C 
HETATM   11  C   UNL     1     -38.653 -50.683  12.304  1.00  0.00     0.189 C 
HETATM   12  O   UNL     1     -39.503 -51.804  12.590  1.00  0.00    -0.373 OA
HETATM   13  C   UNL     1     -40.778 -51.647  11.921  1.00  0.00     0.230 C 
HETATM   14  C   UNL     1     -41.498 -50.370  12.386  1.00  0.00     0.166 C 
BRANCH  13  15
HETATM   15  C   UNL     1     -41.651 -52.870  12.214  1.00  0.00     0.246 C 
HETATM   16  O   UNL     1     -42.864 -52.844  12.387  1.00  0.00    -0.271 OA
HETATM   17  N   UNL     1     -40.973 -54.061  12.206  1.00  0.00    -0.368 N 
HETATM   18  H   UNL     1     -39.974 -54.031  12.383  1.00  0.00     0.159 HD
HETATM   19  H   UNL     1     -41.489 -54.878  12.504  1.00  0.00     0.159 HD
ENDBRANCH  13  15
ENDBRANCH   3   9
BRANCH   1  20
HETATM   20  C   UNL     1     -43.821 -47.071   9.126  1.00  0.00    -0.009 C 
HETATM   21  C   UNL     1     -44.264 -45.630   8.801  1.00  0.00     0.021 C 
HETATM   22  C   UNL     1     -44.968 -47.807   9.848  1.00  0.00     0.021 C 
HETATM   23  C   UNL     1     -43.553 -47.803   7.795  1.00  0.00     0.021 C 
ENDBRANCH   1  20
BRANCH   6  24
HETATM   24  C   UNL     1     -39.929 -44.615  10.904  1.00  0.00     0.007 C 
HETATM   25  C   UNL     1     -40.819 -43.357  10.940  1.00  0.00     0.022 C 
HETATM   26  C   UNL     1     -39.050 -44.625  12.168  1.00  0.00     0.022 C 
HETATM   27  C   UNL     1     -39.025 -44.529   9.660  1.00  0.00     0.022 C 
ENDBRANCH   6  24
TORSDOF 4
ENDMDL
MODEL 3
REMARK VINA RESULT:      -6.9      1.843      2.227
REMARK  4 active torsions:
REMARK  status: ('A' for Active; 'I' for Inactive)
REMARK    1  A    between atoms: C_2  and  C_5 
REMARK    2  A    between atoms: C_7  and  N_17 
REMARK    3  A    between atoms: C_10  and  C_13 
REMARK    4  A    between atoms: C_21  and  C_23 
REMARK       I    between atoms: C_23  and  N_25 
ROOT
HETATM    1  C   UNL     1     -40.881 -46.202  10.760  1.00  0.00     0.021 A 
HETATM    2  C   UNL     1     -40.444 -47.395  11.306  1.00  0.00     0.074 A 
HETATM    3  C   UNL     1     -41.175 -48.543  11.084  1.00  0.00     0.106 A 
HETATM    4  N   UNL     1     -42.301 -48.487  10.353  1.00  0.00    -0.332 N 
ATOM      5  HN  UNL     1     -42.857 -49.327  10.191  1.00  0.00     0.168 HD
HETATM    6  C   UNL     1     -42.684 -47.302   9.840  1.00  0.00     0.090 A 
HETATM    7  N   UNL     1     -42.002 -46.154  10.015  1.00  0.00    -0.348 N 
ATOM      8  HN  UNL     1     -42.322 -45.280   9.599  1.00  0.00     0.167 HD
ENDROOT
BRANCH   3   9
HETATM    9  N   UNL     1     -40.780 -49.756  11.604  1.00  0.00    -0.362 N 
HETATM   10  C   UNL     1     -41.696 -50.779  12.108  1.00  0.00     0.150 C 
HETATM   11  C   UNL     1     -41.295 -51.179  13.538  1.00  0.00     0.189 C 
HETATM   12  O   UNL     1     -39.918 -51.572  13.625  1.00  0.00    -0.373 OA
HETATM   13  C   UNL     1     -39.061 -50.480  13.212  1.00  0.00     0.230 C 
HETATM   14  C   UNL     1     -39.348 -50.064  11.761  1.00  0.00     0.166 C 
BRANCH  13  15
HETATM   15  C   UNL     1     -37.598 -50.913  13.348  1.00  0.00     0.246 C 
HETATM   16  O   UNL     1     -36.982 -51.577  12.523  1.00  0.00    -0.271 OA
HETATM   17  N   UNL     1     -36.970 -50.437  14.468  1.00  0.00    -0.368 N 
HETATM   18  H   UNL     1     -37.555 -50.184  15.259  1.00  0.00     0.159 HD
HETATM   19  H   UNL     1     -36.041 -50.790  14.652  1.00  0.00     0.159 HD
ENDBRANCH  13  15
ENDBRANCH   3   9
BRANCH   1  20
HETATM   20  C   UNL     1     -40.102 -44.905  11.000  1.00  0.00    -0.009 C 
HETATM   21  C   UNL     1     -39.280 -45.026  12.299  1.00  0.00     0.021 C 
HETATM   22  C   UNL     1     -41.076 -43.715  11.121  1.00  0.00     0.021 C 
HETATM   23  C   UNL     1     -39.129 -44.606   9.842  1.00  0.00     0.021 C 
ENDBRANCH   1  20
BRANCH   6  24
HETATM   24  C   UNL     1     -43.981 -47.231   9.030  1.00  0.00     0.007 C 
HETATM   25  C   UNL     1     -43.859 -47.954   7.674  1.00  0.00     0.022 C 
HETATM   26  C   UNL     1     -45.114 -47.895   9.834  1.00  0.00     0.022 C 
HETATM   27  C   UNL     1     -44.348 -45.760   8.759  1.00  0.00     0.022 C 
ENDBRANCH   6  24
TORSDOF 4
ENDMDL
MODEL 4
REMARK VINA RESULT:      -6.7      3.529      6.491
REMARK  4 active torsions:
REMARK  status: ('A' for Active; 'I' for Inactive)
REMARK    1  A    between atoms: C_2  and  C_5 
REMARK    2  A    between atoms: C_7  and  N_17 
REMARK    3  A    between atoms: C_10  and  C_13 
REMARK    4  A    between atoms: C_21  and  C_23 
REMARK       I    between atoms: C_23  and  N_25 
ROOT
HETATM    1  C   UNL     1     -42.256 -52.313  13.728  1.00  0.00     0.021 A 
HETATM    2  C   UNL     1     -41.840 -51.060  13.317  1.00  0.00     0.074 A 
HETATM    3  C   UNL     1     -42.787 -50.123  12.957  1.00  0.00     0.106 A 
HETATM    4  N   UNL     1     -44.092 -50.441  13.000  1.00  0.00    -0.332 N 
ATOM      5  HN  UNL     1     -44.801 -49.761  12.726  1.00  0.00     0.168 HD
HETATM    6  C   UNL     1     -44.446 -51.673  13.411  1.00  0.00     0.090 A 
HETATM    7  N   UNL     1     -43.565 -52.621  13.785  1.00  0.00    -0.348 N 
ATOM      8  HN  UNL     1     -43.878 -53.540  14.100  1.00  0.00     0.167 HD
ENDROOT
BRANCH   3   9
HETATM    9  N   UNL     1     -42.424 -48.861  12.543  1.00  0.00    -0.362 N 
HETATM   10  C   UNL     1     -42.159 -47.738  13.443  1.00  0.00     0.150 C 
HETATM   11  C   UNL     1     -43.014 -46.527  13.033  1.00  0.00     0.189 C 
HETATM   12  O   UNL     1     -42.842 -46.186  11.649  1.00  0.00    -0.373 OA
HETATM   13  C   UNL     1     -43.220 -47.304  10.809  1.00  0.00     0.230 C 
HETATM   14  C   UNL     1     -42.360 -48.541  11.107  1.00  0.00     0.166 C 
BRANCH  13  15
HETATM   15  C   UNL     1     -43.061 -46.901   9.341  1.00  0.00     0.246 C 
HETATM   16  O   UNL     1     -43.050 -45.748   8.924  1.00  0.00    -0.271 OA
HETATM   17  N   UNL     1     -42.855 -47.952   8.486  1.00  0.00    -0.368 N 
HETATM   18  H   UNL     1     -43.182 -48.866   8.783  1.00  0.00     0.159 HD
HETATM   19  H   UNL     1     -42.856 -47.739   7.498  1.00  0.00     0.159 HD
ENDBRANCH  13  15
ENDBRANCH   3   9
BRANCH   1  20
HETATM   20  C   UNL     1     -41.231 -53.382  14.120  1.00  0.00    -0.009 C 
HETATM   21  C   UNL     1     -40.791 -54.165  12.866  1.00  0.00     0.021 C 
HETATM   22  C   UNL     1     -41.847 -54.359  15.142  1.00  0.00     0.021 C 
HETATM   23  C   UNL     1     -39.975 -52.756  14.760  1.00  0.00     0.021 C 
ENDBRANCH   1  20
BRANCH   6  24
HETATM   24  C   UNL     1     -45.931 -52.047  13.434  1.00  0.00     0.007 C 
HETATM   25  C   UNL     1     -46.651 -51.639  12.134  1.00  0.00     0.022 C 
HETATM   26  C   UNL     1     -46.065 -53.571  13.606  1.00  0.00     0.022 C 
HETATM   27  C   UNL     1     -46.629 -51.341  14.611  1.00  0.00     0.022 C 
ENDBRANCH   6  24
TORSDOF 4
ENDMDL
MODEL 5
REMARK VINA RESULT:      -6.6      3.594      6.902
REMARK  4 active torsions:
REMARK  status: ('A' for Active; 'I' for Inactive)
REMARK    1  A    between atoms: C_2  and  C_5 
REMARK    2  A    between atoms: C_7  and  N_17 
REMARK    3  A    between atoms: C_10  and  C_13 
REMARK    4  A    between atoms: C_21  and  C_23 
REMARK       I    between atoms: C_23  and  N_25 
ROOT
HETATM    1  C   UNL     1     -44.597 -51.808  13.642  1.00  0.00     0.021 A 
HETATM    2  C   UNL     1     -44.201 -50.533  13.281  1.00  0.00     0.074 A 
HETATM    3  C   UNL     1     -42.855 -50.235  13.238  1.00  0.00     0.106 A 
HETATM    4  N   UNL     1     -41.951 -51.178  13.555  1.00  0.00    -0.332 N 
ATOM      5  HN  UNL     1     -40.954 -50.968  13.537  1.00  0.00     0.168 HD
HETATM    6  C   UNL     1     -42.387 -52.406  13.896  1.00  0.00     0.090 A 
HETATM    7  N   UNL     1     -43.688 -52.754  13.942  1.00  0.00    -0.348 N 
ATOM      8  HN  UNL     1     -43.973 -53.700  14.196  1.00  0.00     0.167 HD
ENDROOT
BRANCH   3   9
HETATM    9  N   UNL     1     -42.410 -48.981  12.883  1.00  0.00    -0.362 N 
HETATM   10  C   UNL     1     -42.128 -47.903  13.832  1.00  0.00     0.150 C 
HETATM   11  C   UNL     1     -42.902 -46.637  13.427  1.00  0.00     0.189 C 
HETATM   12  O   UNL     1     -42.652 -46.261  12.065  1.00  0.00    -0.373 OA
HETATM   13  C   UNL     1     -43.050 -47.330  11.172  1.00  0.00     0.230 C 
HETATM   14  C   UNL     1     -42.267 -48.620  11.463  1.00  0.00     0.166 C 
BRANCH  13  15
HETATM   15  C   UNL     1     -42.805 -46.889   9.726  1.00  0.00     0.246 C 
HETATM   16  O   UNL     1     -42.670 -45.728   9.357  1.00  0.00    -0.271 OA
HETATM   17  N   UNL     1     -42.675 -47.922   8.835  1.00  0.00    -0.368 N 
HETATM   18  H   UNL     1     -43.099 -48.810   9.086  1.00  0.00     0.159 HD
HETATM   19  H   UNL     1     -42.625 -47.673   7.857  1.00  0.00     0.159 HD
ENDBRANCH  13  15
ENDBRANCH   3   9
BRANCH   1  20
HETATM   20  C   UNL     1     -46.084 -52.168  13.716  1.00  0.00    -0.009 C 
HETATM   21  C   UNL     1     -46.241 -53.669  14.031  1.00  0.00     0.021 C 
HETATM   22  C   UNL     1     -46.775 -51.853  12.372  1.00  0.00     0.021 C 
HETATM   23  C   UNL     1     -46.808 -51.368  14.818  1.00  0.00     0.021 C 
ENDBRANCH   1  20
BRANCH   6  24
HETATM   24  C   UNL     1     -41.361 -53.474  14.283  1.00  0.00     0.007 C 
HETATM   25  C   UNL     1     -41.991 -54.607  15.117  1.00  0.00     0.022 C 
HETATM   26  C   UNL     1     -40.763 -54.088  13.004  1.00  0.00     0.022 C 
HETATM   27  C   UNL     1     -40.232 -52.837  15.115  1.00  0.00     0.022 C 
ENDBRANCH   6  24
TORSDOF 4
ENDMDL
MODEL 6
REMARK VINA RESULT:      -6.6      3.230      6.762
REMARK  4 active torsions:
REMARK  status: ('A' for Active; 'I' for Inactive)
REMARK    1  A    between atoms: C_2  and  C_5 
REMARK    2  A    between atoms: C_7  and  N_17 
REMARK    3  A    between atoms: C_10  and  C_13 
REMARK    4  A    between atoms: C_21  and  C_23 
REMARK       I    between atoms: C_23  and  N_25 
ROOT
HETATM    1  C   UNL     1     -41.704 -50.478  12.655  1.00  0.00     0.021 A 
HETATM    2  C   UNL     1     -42.172 -49.448  11.859  1.00  0.00     0.074 A 
HETATM    3  C   UNL     1     -41.267 -48.601  11.255  1.00  0.00     0.106 A 
HETATM    4  N   UNL     1     -39.950 -48.780  11.453  1.00  0.00    -0.332 N 
ATOM      5  HN  UNL     1     -39.270 -48.154  11.020  1.00  0.00     0.168 HD
HETATM    6  C   UNL     1     -39.543 -49.800  12.233  1.00  0.00     0.090 A 
HETATM    7  N   UNL     1     -40.383 -50.662  12.837  1.00  0.00    -0.348 N 
ATOM      8  HN  UNL     1     -40.031 -51.428  13.411  1.00  0.00     0.167 HD
ENDROOT
BRANCH   3   9
HETATM    9  N   UNL     1     -41.683 -47.563  10.452  1.00  0.00    -0.362 N 
HETATM   10  C   UNL     1     -41.088 -46.226  10.452  1.00  0.00     0.150 C 
HETATM   11  C   UNL     1     -42.184 -45.167  10.662  1.00  0.00     0.189 C 
HETATM   12  O   UNL     1     -43.256 -45.301   9.717  1.00  0.00    -0.373 OA
HETATM   13  C   UNL     1     -43.869 -46.607   9.840  1.00  0.00     0.230 C 
HETATM   14  C   UNL     1     -42.853 -47.728   9.573  1.00  0.00     0.166 C 
BRANCH  13  15
HETATM   15  C   UNL     1     -45.030 -46.710   8.847  1.00  0.00     0.246 C 
HETATM   16  O   UNL     1     -45.924 -45.882   8.722  1.00  0.00    -0.271 OA
HETATM   17  N   UNL     1     -44.970 -47.801   8.020  1.00  0.00    -0.368 N 
HETATM   18  H   UNL     1     -44.438 -48.603   8.343  1.00  0.00     0.159 HD
HETATM   19  H   UNL     1     -45.773 -47.965   7.428  1.00  0.00     0.159 HD
ENDBRANCH  13  15
ENDBRANCH   3   9
BRANCH   1  20
HETATM   20  C   UNL     1     -42.682 -51.427  13.354  1.00  0.00    -0.009 C 
HETATM   21  C   UNL     1     -42.119 -51.833  14.731  1.00  0.00     0.021 C 
HETATM   22  C   UNL     1     -42.899 -52.691  12.498  1.00  0.00     0.021 C 
HETATM   23  C   UNL     1     -44.057 -50.762  13.574  1.00  0.00     0.021 C 
ENDBRANCH   1  20
BRANCH   6  24
HETATM   24  C   UNL     1     -38.044 -49.988  12.482  1.00  0.00     0.007 C 
HETATM   25  C   UNL     1     -37.232 -49.966  11.172  1.00  0.00     0.022 C 
HETATM   26  C   UNL     1     -37.537 -48.852  13.388  1.00  0.00     0.022 C 
HETATM   27  C   UNL     1     -37.796 -51.340  13.177  1.00  0.00     0.022 C 
ENDBRANCH   6  24
TORSDOF 4
ENDMDL
MODEL 7
REMARK VINA RESULT:      -6.5      1.573      4.186
REMARK  4 active torsions:
REMARK  status: ('A' for Active; 'I' for Inactive)
REMARK    1  A    between atoms: C_2  and  C_5 
REMARK    2  A    between atoms: C_7  and  N_17 
REMARK    3  A    between atoms: C_10  and  C_13 
REMARK    4  A    between atoms: C_21  and  C_23 
REMARK       I    between atoms: C_23  and  N_25 
ROOT
HETATM    1  C   UNL     1     -43.203 -46.791  10.417  1.00  0.00     0.021 A 
HETATM    2  C   UNL     1     -42.463 -47.877  10.846  1.00  0.00     0.074 A 
HETATM    3  C   UNL     1     -41.560 -47.709  11.875  1.00  0.00     0.106 A 
HETATM    4  N   UNL     1     -41.405 -46.499  12.438  1.00  0.00    -0.332 N 
ATOM      5  HN  UNL     1     -40.734 -46.359  13.193  1.00  0.00     0.168 HD
HETATM    6  C   UNL     1     -42.153 -45.473  11.988  1.00  0.00     0.090 A 
HETATM    7  N   UNL     1     -43.057 -45.584  10.994  1.00  0.00    -0.348 N 
ATOM      8  HN  UNL     1     -43.610 -44.782  10.691  1.00  0.00     0.167 HD
ENDROOT
BRANCH   3   9
HETATM    9  N   UNL     1     -40.800 -48.760  12.340  1.00  0.00    -0.362 N 
HETATM   10  C   UNL     1     -39.368 -48.682  12.628  1.00  0.00     0.150 C 
HETATM   11  C   UNL     1     -38.623 -49.797  11.875  1.00  0.00     0.189 C 
HETATM   12  O   UNL     1     -39.176 -51.094  12.141  1.00  0.00    -0.373 OA
HETATM   13  C   UNL     1     -40.566 -51.136  11.736  1.00  0.00     0.230 C 
HETATM   14  C   UNL     1     -41.400 -50.095  12.499  1.00  0.00     0.166 C 
BRANCH  13  15
HETATM   15  C   UNL     1     -41.121 -52.539  11.997  1.00  0.00     0.246 C 
HETATM   16  O   UNL     1     -40.488 -53.465  12.492  1.00  0.00    -0.271 OA
HETATM   17  N   UNL     1     -42.449 -52.687  11.693  1.00  0.00    -0.368 N 
HETATM   18  H   UNL     1     -42.846 -52.046  11.013  1.00  0.00     0.159 HD
HETATM   19  H   UNL     1     -42.824 -53.624  11.746  1.00  0.00     0.159 HD
ENDBRANCH  13  15
ENDBRANCH   3   9
BRANCH   1  20
HETATM   20  C   UNL     1     -44.203 -46.938   9.265  1.00  0.00    -0.009 C 
HETATM   21  C   UNL     1     -43.514 -47.611   8.061  1.00  0.00     0.021 C 
HETATM   22  C   UNL     1     -44.733 -45.553   8.841  1.00  0.00     0.021 C 
HETATM   23  C   UNL     1     -45.413 -47.804   9.671  1.00  0.00     0.021 C 
ENDBRANCH   1  20
BRANCH   6  24
HETATM   24  C   UNL     1     -41.959 -44.087  12.608  1.00  0.00     0.007 C 
HETATM   25  C   UNL     1     -40.469 -43.712  12.734  1.00  0.00     0.022 C 
HETATM   26  C   UNL     1     -42.652 -43.036  11.722  1.00  0.00     0.022 C 
HETATM   27  C   UNL     1     -42.583 -44.053  14.016  1.00  0.00     0.022 C 
ENDBRANCH   6  24
TORSDOF 4
ENDMDL
MODEL 8
REMARK VINA RESULT:      -6.4      3.226      6.381
REMARK  4 active torsions:
REMARK  status: ('A' for Active; 'I' for Inactive)
REMARK    1  A    between atoms: C_2  and  C_5 
REMARK    2  A    between atoms: C_7  and  N_17 
REMARK    3  A    between atoms: C_10  and  C_13 
REMARK    4  A    between atoms: C_21  and  C_23 
REMARK       I    between atoms: C_23  and  N_25 
ROOT
HETATM    1  C   UNL     1     -39.645 -49.899  12.837  1.00  0.00     0.021 A 
HETATM    2  C   UNL     1     -39.925 -48.873  11.953  1.00  0.00     0.074 A 
HETATM    3  C   UNL     1     -41.223 -48.695  11.520  1.00  0.00     0.106 A 
HETATM    4  N   UNL     1     -42.190 -49.522  11.951  1.00  0.00    -0.332 N 
ATOM      5  HN  UNL     1     -43.151 -49.409  11.630  1.00  0.00     0.168 HD
HETATM    6  C   UNL     1     -41.867 -50.504  12.815  1.00  0.00     0.090 A 
HETATM    7  N   UNL     1     -40.620 -50.715  13.279  1.00  0.00    -0.348 N 
ATOM      8  HN  UNL     1     -40.422 -51.465  13.941  1.00  0.00     0.167 HD
ENDROOT
BRANCH   3   9
HETATM    9  N   UNL     1     -41.553 -47.687  10.642  1.00  0.00    -0.362 N 
HETATM   10  C   UNL     1     -40.877 -46.392  10.576  1.00  0.00     0.150 C 
HETATM   11  C   UNL     1     -41.910 -45.258  10.687  1.00  0.00     0.189 C 
HETATM   12  O   UNL     1     -42.963 -45.387   9.720  1.00  0.00    -0.373 OA
HETATM   13  C   UNL     1     -43.659 -46.644   9.906  1.00  0.00     0.230 C 
HETATM   14  C   UNL     1     -42.707 -47.838   9.740  1.00  0.00     0.166 C 
BRANCH  13  15
HETATM   15  C   UNL     1     -44.797 -46.740   8.886  1.00  0.00     0.246 C 
HETATM   16  O   UNL     1     -45.702 -45.923   8.763  1.00  0.00    -0.271 OA
HETATM   17  N   UNL     1     -44.703 -47.810   8.035  1.00  0.00    -0.368 N 
HETATM   18  H   UNL     1     -44.165 -48.610   8.350  1.00  0.00     0.159 HD
HETATM   19  H   UNL     1     -45.490 -47.972   7.422  1.00  0.00     0.159 HD
ENDBRANCH  13  15
ENDBRANCH   3   9
BRANCH   1  20
HETATM   20  C   UNL     1     -38.212 -50.134  13.326  1.00  0.00    -0.009 C 
HETATM   21  C   UNL     1     -37.589 -48.796  13.775  1.00  0.00     0.021 C 
HETATM   22  C   UNL     1     -37.357 -50.740  12.194  1.00  0.00     0.021 C 
HETATM   23  C   UNL     1     -38.173 -51.107  14.522  1.00  0.00     0.021 C 
ENDBRANCH   1  20
BRANCH   6  24
HETATM   24  C   UNL     1     -42.962 -51.465  13.286  1.00  0.00     0.007 C 
HETATM   25  C   UNL     1     -44.352 -50.798  13.298  1.00  0.00     0.022 C 
HETATM   26  C   UNL     1     -43.013 -52.676  12.337  1.00  0.00     0.022 C 
HETATM   27  C   UNL     1     -42.652 -51.952  14.714  1.00  0.00     0.022 C 
ENDBRANCH   6  24
TORSDOF 4
ENDMDL
MODEL 9
REMARK VINA RESULT:      -6.2      3.444      6.574
REMARK  4 active torsions:
REMARK  status: ('A' for Active; 'I' for Inactive)
REMARK    1  A    between atoms: C_2  and  C_5 
REMARK    2  A    between atoms: C_7  and  N_17 
REMARK    3  A    between atoms: C_10  and  C_13 
REMARK    4  A    between atoms: C_21  and  C_23 
REMARK       I    between atoms: C_23  and  N_25 
ROOT
HETATM    1  C   UNL     1     -44.643 -52.086  14.096  1.00  0.00     0.021 A 
HETATM    2  C   UNL     1     -43.988 -50.997  13.552  1.00  0.00     0.074 A 
HETATM    3  C   UNL     1     -42.612 -50.936  13.625  1.00  0.00     0.106 A 
HETATM    4  N   UNL     1     -41.930 -51.924  14.229  1.00  0.00    -0.332 N 
ATOM      5  HN  UNL     1     -40.914 -51.886  14.299  1.00  0.00     0.168 HD
HETATM    6  C   UNL     1     -42.614 -52.966  14.740  1.00  0.00     0.090 A 
HETATM    7  N   UNL     1     -43.955 -53.081  14.686  1.00  0.00    -0.348 N 
ATOM      8  HN  UNL     1     -44.432 -53.893  15.078  1.00  0.00     0.167 HD
ENDROOT
BRANCH   3   9
HETATM    9  N   UNL     1     -41.913 -49.874  13.096  1.00  0.00    -0.362 N 
HETATM   10  C   UNL     1     -42.528 -48.735  12.413  1.00  0.00     0.150 C 
HETATM   11  C   UNL     1     -41.880 -48.543  11.032  1.00  0.00     0.189 C 
HETATM   12  O   UNL     1     -40.451 -48.439  11.113  1.00  0.00    -0.373 OA
HETATM   13  C   UNL     1     -39.896 -49.641  11.701  1.00  0.00     0.230 C 
HETATM   14  C   UNL     1     -40.441 -49.869  13.120  1.00  0.00     0.166 C 
BRANCH  13  15
HETATM   15  C   UNL     1     -38.371 -49.519  11.743  1.00  0.00     0.246 C 
HETATM   16  O   UNL     1     -37.724 -49.105  12.698  1.00  0.00    -0.271 OA
HETATM   17  N   UNL     1     -37.736 -49.984  10.621  1.00  0.00    -0.368 N 
HETATM   18  H   UNL     1     -38.272 -50.010   9.759  1.00  0.00     0.159 HD
HETATM   19  H   UNL     1     -36.741 -49.819  10.563  1.00  0.00     0.159 HD
ENDBRANCH  13  15
ENDBRANCH   3   9
BRANCH   1  20
HETATM   20  C   UNL     1     -46.172 -52.177  14.047  1.00  0.00    -0.009 C 
HETATM   21  C   UNL     1     -46.675 -51.740  12.656  1.00  0.00     0.021 C 
HETATM   22  C   UNL     1     -46.794 -51.265  15.125  1.00  0.00     0.021 C 
HETATM   23  C   UNL     1     -46.662 -53.617  14.304  1.00  0.00     0.021 C 
ENDBRANCH   1  20
BRANCH   6  24
HETATM   24  C   UNL     1     -41.843 -54.079  15.453  1.00  0.00     0.007 C 
HETATM   25  C   UNL     1     -42.657 -55.385  15.540  1.00  0.00     0.022 C 
HETATM   26  C   UNL     1     -40.543 -54.368  14.679  1.00  0.00     0.022 C 
HETATM   27  C   UNL     1     -41.491 -53.636  16.886  1.00  0.00     0.022 C 
ENDBRANCH   6  24
TORSDOF 4
ENDMDL
