MODEL 1
REMARK VINA RESULT:      -4.4      0.000      0.000
REMARK  5 active torsions:
REMARK  status: ('A' for Active; 'I' for Inactive)
REMARK    1  A    between atoms: N_5  and  CA_6 
REMARK    2  A    between atoms: CA_6  and  C_7 
REMARK    3  A    between atoms: CA_6  and  C_9 
REMARK    4  A    between atoms: C_7  and  O_8 
REMARK    5  A    between atoms: C_9  and  C_10 
ROOT
HETATM    1  C   UNL     3     -44.111 -47.519  10.279  1.00  0.00     0.077 C 
ENDROOT
BRANCH   1   2
HETATM    2  CA  UNL     3     -44.798 -47.078   8.968  1.00  0.00     0.245 C 
BRANCH   2   3
HETATM    3  N   UNL     3     -44.194 -47.803   7.846  1.00  0.00     0.085 N 
HETATM    4  H1  UNL     3     -44.382 -47.299   6.949  1.00  0.00     0.313 HD
HETATM    5  H2  UNL     3     -44.594 -48.767   7.777  1.00  0.00     0.313 HD
ENDBRANCH   2   3
BRANCH   2   6
HETATM    6  C   UNL     3     -46.321 -47.315   9.006  1.00  0.00     0.199 C 
BRANCH   6   7
HETATM    7  O   UNL     3     -46.721 -48.145   7.948  1.00  0.00    -0.399 OA
HETATM    8  H   UNL     3     -45.986 -48.797   7.802  1.00  0.00     0.209 HD
ENDBRANCH   6   7
ENDBRANCH   2   6
ENDBRANCH   1   2
BRANCH   1   9
HETATM    9  C   UNL     3     -42.709 -46.981  10.449  1.00  0.00    -0.041 A 
HETATM   10  C   UNL     3     -42.490 -45.599  10.563  1.00  0.00     0.010 A 
HETATM   11  C   UNL     3     -41.196 -45.105  10.737  1.00  0.00     0.018 A 
HETATM   12  C   UNL     3     -40.125 -45.998  10.789  1.00  0.00     0.087 A 
HETATM   13  N   UNL     3     -40.350 -47.337  10.680  1.00  0.00    -0.375 N 
HETATM   14  C   UNL     3     -41.601 -47.841  10.514  1.00  0.00     0.094 A 
ATOM     15  HN  UNL     3     -39.558 -47.979  10.724  1.00  0.00     0.164 HD
ENDBRANCH   1   9
TORSDOF 5
ENDMDL
MODEL 2
REMARK VINA RESULT:      -4.4      6.990      8.361
REMARK  5 active torsions:
REMARK  status: ('A' for Active; 'I' for Inactive)
REMARK    1  A    between atoms: N_5  and  CA_6 
REMARK    2  A    between atoms: CA_6  and  C_7 
REMARK    3  A    between atoms: CA_6  and  C_9 
REMARK    4  A    between atoms: C_7  and  O_8 
REMARK    5  A    between atoms: C_9  and  C_10 
ROOT
HETATM    1  C   UNL     3     -43.765 -53.205  12.253  1.00  0.00     0.077 C 
ENDROOT
BRANCH   1   2
HETATM    2  CA  UNL     3     -42.404 -52.976  12.946  1.00  0.00     0.245 C 
BRANCH   2   3
HETATM    3  N   UNL     3     -41.909 -54.257  13.460  1.00  0.00     0.085 N 
HETATM    4  H1  UNL     3     -42.712 -54.868  13.735  1.00  0.00     0.313 HD
HETATM    5  H2  UNL     3     -41.304 -54.104  14.299  1.00  0.00     0.313 HD
ENDBRANCH   2   3
BRANCH   2   6
HETATM    6  C   UNL     3     -41.370 -52.342  11.993  1.00  0.00     0.199 C 
BRANCH   6   7
HETATM    7  O   UNL     3     -40.605 -53.333  11.359  1.00  0.00    -0.399 OA
HETATM    8  H   UNL     3     -40.393 -52.993  10.451  1.00  0.00     0.209 HD
ENDBRANCH   6   7
ENDBRANCH   2   6
ENDBRANCH   1   2
BRANCH   1   9
HETATM    9  C   UNL     3     -44.956 -53.030  13.167  1.00  0.00    -0.041 A 
HETATM   10  C   UNL     3     -45.444 -51.746  13.456  1.00  0.00     0.010 A 
HETATM   11  C   UNL     3     -46.554 -51.586  14.287  1.00  0.00     0.018 A 
HETATM   12  C   UNL     3     -47.169 -52.716  14.830  1.00  0.00     0.087 A 
HETATM   13  N   UNL     3     -46.688 -53.956  14.541  1.00  0.00    -0.375 N 
HETATM   14  C   UNL     3     -45.611 -54.136  13.732  1.00  0.00     0.094 A 
ATOM     15  HN  UNL     3     -47.149 -54.773  14.942  1.00  0.00     0.164 HD
ENDBRANCH   1   9
TORSDOF 5
ENDMDL
MODEL 3
REMARK VINA RESULT:      -4.3      6.912      8.385
REMARK  5 active torsions:
REMARK  status: ('A' for Active; 'I' for Inactive)
REMARK    1  A    between atoms: N_5  and  CA_6 
REMARK    2  A    between atoms: CA_6  and  C_7 
REMARK    3  A    between atoms: CA_6  and  C_9 
REMARK    4  A    between atoms: C_7  and  O_8 
REMARK    5  A    between atoms: C_9  and  C_10 
ROOT
HETATM    1  C   UNL     3     -42.710 -51.943  12.773  1.00  0.00     0.077 C 
ENDROOT
BRANCH   1   2
HETATM    2  CA  UNL     3     -41.307 -52.513  12.468  1.00  0.00     0.245 C 
BRANCH   2   3
HETATM    3  N   UNL     3     -41.191 -52.748  11.025  1.00  0.00     0.085 N 
HETATM    4  H1  UNL     3     -42.140 -52.776  10.587  1.00  0.00     0.313 HD
HETATM    5  H2  UNL     3     -40.712 -53.660  10.842  1.00  0.00     0.313 HD
ENDBRANCH   2   3
BRANCH   2   6
HETATM    6  C   UNL     3     -40.184 -51.574  12.953  1.00  0.00     0.199 C 
BRANCH   6   7
HETATM    7  O   UNL     3     -39.182 -51.452  11.979  1.00  0.00    -0.399 OA
HETATM    8  H   UNL     3     -39.130 -52.326  11.511  1.00  0.00     0.209 HD
ENDBRANCH   6   7
ENDBRANCH   2   6
ENDBRANCH   1   2
BRANCH   1   9
HETATM    9  C   UNL     3     -43.717 -52.987  13.194  1.00  0.00    -0.041 A 
HETATM   10  C   UNL     3     -43.307 -54.112  13.927  1.00  0.00     0.010 A 
HETATM   11  C   UNL     3     -44.242 -55.067  14.331  1.00  0.00     0.018 A 
HETATM   12  C   UNL     3     -45.585 -54.894  13.993  1.00  0.00     0.087 A 
HETATM   13  N   UNL     3     -45.971 -53.797  13.284  1.00  0.00    -0.375 N 
HETATM   14  C   UNL     3     -45.080 -52.853  12.883  1.00  0.00     0.094 A 
ATOM     15  HN  UNL     3     -46.957 -53.681  13.047  1.00  0.00     0.164 HD
ENDBRANCH   1   9
TORSDOF 5
ENDMDL
MODEL 4
REMARK VINA RESULT:      -4.2      7.784      8.549
REMARK  5 active torsions:
REMARK  status: ('A' for Active; 'I' for Inactive)
REMARK    1  A    between atoms: N_5  and  CA_6 
REMARK    2  A    between atoms: CA_6  and  C_7 
REMARK    3  A    between atoms: CA_6  and  C_9 
REMARK    4  A    between atoms: C_7  and  O_8 
REMARK    5  A    between atoms: C_9  and  C_10 
ROOT
HETATM    1  C   UNL     3     -44.283 -54.856  14.295  1.00  0.00     0.077 C 
ENDROOT
BRANCH   1   2
HETATM    2  CA  UNL     3     -45.558 -54.043  14.612  1.00  0.00     0.245 C 
BRANCH   2   3
HETATM    3  N   UNL     3     -46.732 -54.891  14.387  1.00  0.00     0.085 N 
HETATM    4  H1  UNL     3     -46.935 -55.460  15.241  1.00  0.00     0.313 HD
HETATM    5  H2  UNL     3     -46.564 -55.542  13.585  1.00  0.00     0.313 HD
ENDBRANCH   2   3
BRANCH   2   6
HETATM    6  C   UNL     3     -45.553 -53.501  16.056  1.00  0.00     0.199 C 
BRANCH   6   7
HETATM    7  O   UNL     3     -45.607 -54.553  16.982  1.00  0.00    -0.399 OA
HETATM    8  H   UNL     3     -44.874 -55.179  16.746  1.00  0.00     0.209 HD
ENDBRANCH   6   7
ENDBRANCH   2   6
ENDBRANCH   1   2
BRANCH   1   9
HETATM    9  C   UNL     3     -43.243 -54.087  13.516  1.00  0.00    -0.041 A 
HETATM   10  C   UNL     3     -41.877 -54.271  13.784  1.00  0.00     0.010 A 
HETATM   11  C   UNL     3     -40.916 -53.572  13.051  1.00  0.00     0.018 A 
HETATM   12  C   UNL     3     -41.329 -52.686  12.054  1.00  0.00     0.087 A 
HETATM   13  N   UNL     3     -42.656 -52.517  11.801  1.00  0.00    -0.375 N 
HETATM   14  C   UNL     3     -43.609 -53.189  12.499  1.00  0.00     0.094 A 
ATOM     15  HN  UNL     3     -42.943 -51.869  11.067  1.00  0.00     0.164 HD
ENDBRANCH   1   9
TORSDOF 5
ENDMDL
MODEL 5
REMARK VINA RESULT:      -4.1      5.850      6.711
REMARK  5 active torsions:
REMARK  status: ('A' for Active; 'I' for Inactive)
REMARK    1  A    between atoms: N_5  and  CA_6 
REMARK    2  A    between atoms: CA_6  and  C_7 
REMARK    3  A    between atoms: CA_6  and  C_9 
REMARK    4  A    between atoms: C_7  and  O_8 
REMARK    5  A    between atoms: C_9  and  C_10 
ROOT
HETATM    1  C   UNL     3     -41.116 -51.325  13.170  1.00  0.00     0.077 C 
ENDROOT
BRANCH   1   2
HETATM    2  CA  UNL     3     -41.673 -52.624  12.547  1.00  0.00     0.245 C 
BRANCH   2   3
HETATM    3  N   UNL     3     -41.258 -52.696  11.143  1.00  0.00     0.085 N 
HETATM    4  H1  UNL     3     -42.095 -52.663  10.518  1.00  0.00     0.313 HD
HETATM    5  H2  UNL     3     -40.741 -53.588  10.962  1.00  0.00     0.313 HD
ENDBRANCH   2   3
BRANCH   2   6
HETATM    6  C   UNL     3     -41.207 -53.878  13.313  1.00  0.00     0.199 C 
BRANCH   6   7
HETATM    7  O   UNL     3     -40.091 -54.456  12.689  1.00  0.00    -0.399 OA
HETATM    8  H   UNL     3     -39.686 -55.080  13.347  1.00  0.00     0.209 HD
ENDBRANCH   6   7
ENDBRANCH   2   6
ENDBRANCH   1   2
BRANCH   1   9
HETATM    9  C   UNL     3     -39.819 -50.855  12.551  1.00  0.00    -0.041 A 
HETATM   10  C   UNL     3     -38.590 -51.280  13.077  1.00  0.00     0.010 A 
HETATM   11  C   UNL     3     -37.393 -50.859  12.494  1.00  0.00     0.018 A 
HETATM   12  C   UNL     3     -37.434 -50.009  11.388  1.00  0.00     0.087 A 
HETATM   13  N   UNL     3     -38.633 -49.606  10.885  1.00  0.00    -0.375 N 
HETATM   14  C   UNL     3     -39.811 -50.005  11.434  1.00  0.00     0.094 A 
ATOM     15  HN  UNL     3     -38.649 -48.987  10.073  1.00  0.00     0.164 HD
ENDBRANCH   1   9
TORSDOF 5
ENDMDL
MODEL 6
REMARK VINA RESULT:      -4.1      7.666      8.462
REMARK  5 active torsions:
REMARK  status: ('A' for Active; 'I' for Inactive)
REMARK    1  A    between atoms: N_5  and  CA_6 
REMARK    2  A    between atoms: CA_6  and  C_7 
REMARK    3  A    between atoms: CA_6  and  C_9 
REMARK    4  A    between atoms: C_7  and  O_8 
REMARK    5  A    between atoms: C_9  and  C_10 
ROOT
HETATM    1  C   UNL     3     -43.684 -54.127  14.604  1.00  0.00     0.077 C 
ENDROOT
BRANCH   1   2
HETATM    2  CA  UNL     3     -44.529 -54.326  13.326  1.00  0.00     0.245 C 
BRANCH   2   3
HETATM    3  N   UNL     3     -45.685 -55.169  13.645  1.00  0.00     0.085 N 
HETATM    4  H1  UNL     3     -46.154 -54.822  14.513  1.00  0.00     0.313 HD
HETATM    5  H2  UNL     3     -45.383 -56.158  13.802  1.00  0.00     0.313 HD
ENDBRANCH   2   3
BRANCH   2   6
HETATM    6  C   UNL     3     -44.990 -52.983  12.724  1.00  0.00     0.199 C 
BRANCH   6   7
HETATM    7  O   UNL     3     -46.296 -53.086  12.223  1.00  0.00    -0.399 OA
HETATM    8  H   UNL     3     -46.313 -53.883  11.630  1.00  0.00     0.209 HD
ENDBRANCH   6   7
ENDBRANCH   2   6
ENDBRANCH   1   2
BRANCH   1   9
HETATM    9  C   UNL     3     -42.196 -54.273  14.385  1.00  0.00    -0.041 A 
HETATM   10  C   UNL     3     -41.347 -54.566  15.463  1.00  0.00     0.010 A 
HETATM   11  C   UNL     3     -39.974 -54.718  15.256  1.00  0.00     0.018 A 
HETATM   12  C   UNL     3     -39.457 -54.570  13.968  1.00  0.00     0.087 A 
HETATM   13  N   UNL     3     -40.291 -54.289  12.929  1.00  0.00    -0.375 N 
HETATM   14  C   UNL     3     -41.631 -54.140  13.106  1.00  0.00     0.094 A 
ATOM     15  HN  UNL     3     -39.900 -54.188  11.992  1.00  0.00     0.164 HD
ENDBRANCH   1   9
TORSDOF 5
ENDMDL
MODEL 7
REMARK VINA RESULT:      -4.1      7.399      8.327
REMARK  5 active torsions:
REMARK  status: ('A' for Active; 'I' for Inactive)
REMARK    1  A    between atoms: N_5  and  CA_6 
REMARK    2  A    between atoms: CA_6  and  C_7 
REMARK    3  A    between atoms: CA_6  and  C_9 
REMARK    4  A    between atoms: C_7  and  O_8 
REMARK    5  A    between atoms: C_9  and  C_10 
ROOT
HETATM    1  C   UNL     3     -45.396 -51.443  13.821  1.00  0.00     0.077 C 
ENDROOT
BRANCH   1   2
HETATM    2  CA  UNL     3     -46.017 -52.678  13.132  1.00  0.00     0.245 C 
BRANCH   2   3
HETATM    3  N   UNL     3     -46.500 -52.290  11.803  1.00  0.00     0.085 N 
HETATM    4  H1  UNL     3     -45.989 -51.440  11.469  1.00  0.00     0.313 HD
HETATM    5  H2  UNL     3     -47.522 -52.073  11.836  1.00  0.00     0.313 HD
ENDBRANCH   2   3
BRANCH   2   6
HETATM    6  C   UNL     3     -45.013 -53.843  13.022  1.00  0.00     0.199 C 
BRANCH   6   7
HETATM    7  O   UNL     3     -45.638 -55.066  13.306  1.00  0.00    -0.399 OA
HETATM    8  H   UNL     3     -44.975 -55.779  13.108  1.00  0.00     0.209 HD
ENDBRANCH   6   7
ENDBRANCH   2   6
ENDBRANCH   1   2
BRANCH   1   9
HETATM    9  C   UNL     3     -45.944 -51.171  15.202  1.00  0.00    -0.041 A 
HETATM   10  C   UNL     3     -47.272 -51.503  15.515  1.00  0.00     0.010 A 
HETATM   11  C   UNL     3     -47.772 -51.267  16.797  1.00  0.00     0.018 A 
HETATM   12  C   UNL     3     -46.940 -50.693  17.760  1.00  0.00     0.087 A 
HETATM   13  N   UNL     3     -45.654 -50.377  17.446  1.00  0.00    -0.375 N 
HETATM   14  C   UNL     3     -45.144 -50.601  16.206  1.00  0.00     0.094 A 
ATOM     15  HN  UNL     3     -45.056 -49.961  18.160  1.00  0.00     0.164 HD
ENDBRANCH   1   9
TORSDOF 5
ENDMDL
MODEL 8
REMARK VINA RESULT:      -3.9      5.930      7.598
REMARK  5 active torsions:
REMARK  status: ('A' for Active; 'I' for Inactive)
REMARK    1  A    between atoms: N_5  and  CA_6 
REMARK    2  A    between atoms: CA_6  and  C_7 
REMARK    3  A    between atoms: CA_6  and  C_9 
REMARK    4  A    between atoms: C_7  and  O_8 
REMARK    5  A    between atoms: C_9  and  C_10 
ROOT
HETATM    1  C   UNL     3     -39.408 -50.224  12.935  1.00  0.00     0.077 C 
ENDROOT
BRANCH   1   2
HETATM    2  CA  UNL     3     -38.963 -49.731  11.540  1.00  0.00     0.245 C 
BRANCH   2   3
HETATM    3  N   UNL     3     -39.320 -48.317  11.398  1.00  0.00     0.085 N 
HETATM    4  H1  UNL     3     -40.213 -48.223  10.861  1.00  0.00     0.313 HD
HETATM    5  H2  UNL     3     -38.568 -47.800  10.886  1.00  0.00     0.313 HD
ENDBRANCH   2   3
BRANCH   2   6
HETATM    6  C   UNL     3     -37.451 -49.931  11.312  1.00  0.00     0.199 C 
BRANCH   6   7
HETATM    7  O   UNL     3     -37.178 -50.155   9.955  1.00  0.00    -0.399 OA
HETATM    8  H   UNL     3     -36.213 -50.381   9.891  1.00  0.00     0.209 HD
ENDBRANCH   6   7
ENDBRANCH   2   6
ENDBRANCH   1   2
BRANCH   1   9
HETATM    9  C   UNL     3     -39.957 -51.632  12.941  1.00  0.00    -0.041 A 
HETATM   10  C   UNL     3     -39.476 -52.575  13.862  1.00  0.00     0.010 A 
HETATM   11  C   UNL     3     -39.996 -53.871  13.878  1.00  0.00     0.018 A 
HETATM   12  C   UNL     3     -40.996 -54.217  12.967  1.00  0.00     0.087 A 
HETATM   13  N   UNL     3     -41.457 -53.292  12.081  1.00  0.00    -0.375 N 
HETATM   14  C   UNL     3     -40.968 -52.024  12.048  1.00  0.00     0.094 A 
ATOM     15  HN  UNL     3     -42.190 -53.557  11.422  1.00  0.00     0.164 HD
ENDBRANCH   1   9
TORSDOF 5
ENDMDL
MODEL 9
REMARK VINA RESULT:      -3.9      8.192      9.411
REMARK  5 active torsions:
REMARK  status: ('A' for Active; 'I' for Inactive)
REMARK    1  A    between atoms: N_5  and  CA_6 
REMARK    2  A    between atoms: CA_6  and  C_7 
REMARK    3  A    between atoms: CA_6  and  C_9 
REMARK    4  A    between atoms: C_7  and  O_8 
REMARK    5  A    between atoms: C_9  and  C_10 
ROOT
HETATM    1  C   UNL     3     -40.846 -53.636  12.965  1.00  0.00     0.077 C 
ENDROOT
BRANCH   1   2
HETATM    2  CA  UNL     3     -39.764 -53.830  14.050  1.00  0.00     0.245 C 
BRANCH   2   3
HETATM    3  N   UNL     3     -38.874 -54.923  13.645  1.00  0.00     0.085 N 
HETATM    4  H1  UNL     3     -39.325 -55.496  12.895  1.00  0.00     0.313 HD
HETATM    5  H2  UNL     3     -38.668 -55.546  14.460  1.00  0.00     0.313 HD
ENDBRANCH   2   3
BRANCH   2   6
HETATM    6  C   UNL     3     -38.955 -52.541  14.296  1.00  0.00     0.199 C 
BRANCH   6   7
HETATM    7  O   UNL     3     -38.481 -52.012  13.086  1.00  0.00    -0.399 OA
HETATM    8  H   UNL     3     -37.674 -51.475  13.305  1.00  0.00     0.209 HD
ENDBRANCH   6   7
ENDBRANCH   2   6
ENDBRANCH   1   2
BRANCH   1   9
HETATM    9  C   UNL     3     -42.238 -54.016  13.412  1.00  0.00    -0.041 A 
HETATM   10  C   UNL     3     -43.349 -53.702  12.614  1.00  0.00     0.010 A 
HETATM   11  C   UNL     3     -44.633 -54.069  13.020  1.00  0.00     0.018 A 
HETATM   12  C   UNL     3     -44.799 -54.746  14.230  1.00  0.00     0.087 A 
HETATM   13  N   UNL     3     -43.714 -55.048  14.994  1.00  0.00    -0.375 N 
HETATM   14  C   UNL     3     -42.454 -54.704  14.617  1.00  0.00     0.094 A 
ATOM     15  HN  UNL     3     -43.850 -55.547  15.874  1.00  0.00     0.164 HD
ENDBRANCH   1   9
TORSDOF 5
ENDMDL
