MODEL 1
REMARK VINA RESULT:      -6.0      0.000      0.000
REMARK  4 active torsions:
REMARK  status: ('A' for Active; 'I' for Inactive)
REMARK    1  A    between atoms: C_2  and  C_3 
REMARK    2  A    between atoms: C_2  and  N_14 
REMARK    3  A    between atoms: C_3  and  N_4 
REMARK       I    between atoms: N_4  and  C_5 
REMARK       I    between atoms: C_5  and  N_7 
REMARK    4  A    between atoms: N_7  and  C_8 
ROOT
HETATM    1  N   UNL     1     -40.874 -49.237  10.331  1.00  0.00    -0.341 N 
HETATM    2  C   UNL     1     -41.948 -48.382  10.478  1.00  0.00     0.320 C 
HETATM    3  O   UNL     1     -42.406 -48.099  11.581  1.00  0.00    -0.247 OA
HETATM    4  N   UNL     1     -42.407 -47.907   9.273  1.00  0.00    -0.306 N 
HETATM    5  H   UNL     1     -40.861 -49.774   9.476  1.00  0.00     0.164 HD
HETATM    6  H   UNL     1     -41.789 -47.942   8.478  1.00  0.00     0.171 HD
ENDROOT
BRANCH   1   7
HETATM    7  C   UNL     1     -40.350 -49.904  11.519  1.00  0.00     0.159 C 
BRANCH   7   8
HETATM    8  C   UNL     1     -39.111 -49.187  12.151  1.00  0.00     0.236 C 
HETATM    9  C   UNL     1     -37.867 -49.817  11.487  1.00  0.00     0.044 C 
BRANCH   8  10
HETATM   10  N   UNL     1     -39.067 -49.332  13.636  1.00  0.00     0.098 N 
HETATM   11  C   UNL     1     -40.212 -48.671  14.323  1.00  0.00     0.299 C 
HETATM   12  C   UNL     1     -40.136 -47.135  14.342  1.00  0.00     0.198 C 
HETATM   13  O   UNL     1     -38.935 -46.696  14.992  1.00  0.00    -0.388 OA
HETATM   14  C   UNL     1     -37.784 -47.239  14.335  1.00  0.00     0.198 C 
HETATM   15  C   UNL     1     -37.841 -48.777  14.271  1.00  0.00     0.299 C 
ENDBRANCH   8  10
ENDBRANCH   7   8
ENDBRANCH   1   7
BRANCH   4  16
HETATM   16  C   UNL     1     -43.553 -47.139   9.166  1.00  0.00     0.070 A 
HETATM   17  C   UNL     1     -44.908 -47.520   9.036  1.00  0.00     0.138 A 
HETATM   18  N   UNL     1     -45.730 -46.469   8.969  1.00  0.00    -0.310 N 
HETATM   19  N   UNL     1     -44.904 -45.419   9.073  1.00  0.00    -0.310 N 
ATOM     20  HN  UNL     1     -46.745 -46.467   8.862  1.00  0.00     0.186 HD
HETATM   21  C   UNL     1     -43.584 -45.765   9.158  1.00  0.00     0.138 A 
HETATM   22  H   UNL     1     -45.313 -44.491   9.082  1.00  0.00     0.186 HD
ENDBRANCH   4  16
TORSDOF 4
ENDMDL
MODEL 2
REMARK VINA RESULT:      -5.8      4.184      5.420
REMARK  4 active torsions:
REMARK  status: ('A' for Active; 'I' for Inactive)
REMARK    1  A    between atoms: C_2  and  C_3 
REMARK    2  A    between atoms: C_2  and  N_14 
REMARK    3  A    between atoms: C_3  and  N_4 
REMARK       I    between atoms: N_4  and  C_5 
REMARK       I    between atoms: C_5  and  N_7 
REMARK    4  A    between atoms: N_7  and  C_8 
ROOT
HETATM    1  N   UNL     1     -41.271 -51.956  11.612  1.00  0.00    -0.341 N 
HETATM    2  C   UNL     1     -42.356 -52.160  12.442  1.00  0.00     0.320 C 
HETATM    3  O   UNL     1     -42.400 -51.698  13.578  1.00  0.00    -0.247 OA
HETATM    4  N   UNL     1     -43.337 -52.912  11.843  1.00  0.00    -0.306 N 
HETATM    5  H   UNL     1     -41.084 -52.697  10.952  1.00  0.00     0.164 HD
HETATM    6  H   UNL     1     -43.348 -52.972  10.836  1.00  0.00     0.171 HD
ENDROOT
BRANCH   1   7
HETATM    7  C   UNL     1     -40.104 -51.266  12.153  1.00  0.00     0.159 C 
BRANCH   7   8
HETATM    8  C   UNL     1     -39.888 -49.833  11.562  1.00  0.00     0.236 C 
HETATM    9  C   UNL     1     -38.379 -49.534  11.703  1.00  0.00     0.044 C 
BRANCH   8  10
HETATM   10  N   UNL     1     -40.713 -48.801  12.258  1.00  0.00     0.098 N 
HETATM   11  C   UNL     1     -42.063 -48.623  11.652  1.00  0.00     0.299 C 
HETATM   12  C   UNL     1     -42.056 -47.892  10.299  1.00  0.00     0.198 C 
HETATM   13  O   UNL     1     -41.471 -46.589  10.431  1.00  0.00    -0.388 OA
HETATM   14  C   UNL     1     -40.138 -46.689  10.944  1.00  0.00     0.198 C 
HETATM   15  C   UNL     1     -40.103 -47.444  12.287  1.00  0.00     0.299 C 
ENDBRANCH   8  10
ENDBRANCH   7   8
ENDBRANCH   1   7
BRANCH   4  16
HETATM   16  C   UNL     1     -44.457 -53.351  12.527  1.00  0.00     0.070 A 
HETATM   17  C   UNL     1     -44.672 -54.524  13.284  1.00  0.00     0.138 A 
HETATM   18  N   UNL     1     -45.904 -54.581  13.801  1.00  0.00    -0.310 N 
HETATM   19  N   UNL     1     -46.468 -53.436  13.388  1.00  0.00    -0.310 N 
ATOM     20  HN  UNL     1     -46.316 -55.318  14.373  1.00  0.00     0.186 HD
HETATM   21  C   UNL     1     -45.655 -52.679  12.591  1.00  0.00     0.138 A 
HETATM   22  H   UNL     1     -47.415 -53.237  13.693  1.00  0.00     0.186 HD
ENDBRANCH   4  16
TORSDOF 4
ENDMDL
MODEL 3
REMARK VINA RESULT:      -5.7      2.281      3.485
REMARK  4 active torsions:
REMARK  status: ('A' for Active; 'I' for Inactive)
REMARK    1  A    between atoms: C_2  and  C_3 
REMARK    2  A    between atoms: C_2  and  N_14 
REMARK    3  A    between atoms: C_3  and  N_4 
REMARK       I    between atoms: N_4  and  C_5 
REMARK       I    between atoms: C_5  and  N_7 
REMARK    4  A    between atoms: N_7  and  C_8 
ROOT
HETATM    1  N   UNL     1     -40.848 -49.310  10.413  1.00  0.00    -0.341 N 
HETATM    2  C   UNL     1     -41.697 -48.222  10.464  1.00  0.00     0.320 C 
HETATM    3  O   UNL     1     -41.622 -47.382  11.355  1.00  0.00    -0.247 OA
HETATM    4  N   UNL     1     -42.592 -48.209   9.421  1.00  0.00    -0.306 N 
HETATM    5  H   UNL     1     -41.235 -50.144   9.997  1.00  0.00     0.164 HD
HETATM    6  H   UNL     1     -42.375 -48.746   8.596  1.00  0.00     0.171 HD
ENDROOT
BRANCH   1   7
HETATM    7  C   UNL     1     -39.915 -49.514  11.517  1.00  0.00     0.159 C 
BRANCH   7   8
HETATM    8  C   UNL     1     -40.555 -50.208  12.764  1.00  0.00     0.236 C 
HETATM    9  C   UNL     1     -39.959 -49.501  14.001  1.00  0.00     0.044 C 
BRANCH   8  10
HETATM   10  N   UNL     1     -40.287 -51.676  12.797  1.00  0.00     0.098 N 
HETATM   11  C   UNL     1     -41.189 -52.457  11.905  1.00  0.00     0.299 C 
HETATM   12  C   UNL     1     -42.634 -52.579  12.418  1.00  0.00     0.198 C 
HETATM   13  O   UNL     1     -42.662 -53.205  13.708  1.00  0.00    -0.388 OA
HETATM   14  C   UNL     1     -41.868 -52.463  14.641  1.00  0.00     0.198 C 
HETATM   15  C   UNL     1     -40.419 -52.295  14.144  1.00  0.00     0.299 C 
ENDBRANCH   8  10
ENDBRANCH   7   8
ENDBRANCH   1   7
BRANCH   4  16
HETATM   16  C   UNL     1     -43.620 -47.287   9.338  1.00  0.00     0.070 A 
HETATM   17  C   UNL     1     -43.600 -45.913   9.006  1.00  0.00     0.138 A 
HETATM   18  N   UNL     1     -44.818 -45.364   9.029  1.00  0.00    -0.310 N 
HETATM   19  N   UNL     1     -45.617 -46.390   9.359  1.00  0.00    -0.310 N 
ATOM     20  HN  UNL     1     -45.079 -44.396   8.841  1.00  0.00     0.186 HD
HETATM   21  C   UNL     1     -44.945 -47.557   9.590  1.00  0.00     0.138 A 
HETATM   22  H   UNL     1     -46.616 -46.218   9.405  1.00  0.00     0.186 HD
ENDBRANCH   4  16
TORSDOF 4
ENDMDL
MODEL 4
REMARK VINA RESULT:      -5.7      4.976      6.311
REMARK  4 active torsions:
REMARK  status: ('A' for Active; 'I' for Inactive)
REMARK    1  A    between atoms: C_2  and  C_3 
REMARK    2  A    between atoms: C_2  and  N_14 
REMARK    3  A    between atoms: C_3  and  N_4 
REMARK       I    between atoms: N_4  and  C_5 
REMARK       I    between atoms: C_5  and  N_7 
REMARK    4  A    between atoms: N_7  and  C_8 
ROOT
HETATM    1  N   UNL     1     -42.904 -50.820  12.651  1.00  0.00    -0.341 N 
HETATM    2  C   UNL     1     -42.744 -49.483  12.344  1.00  0.00     0.320 C 
HETATM    3  O   UNL     1     -43.151 -48.594  13.085  1.00  0.00    -0.247 OA
HETATM    4  N   UNL     1     -42.091 -49.297  11.150  1.00  0.00    -0.306 N 
HETATM    5  H   UNL     1     -42.996 -51.440  11.860  1.00  0.00     0.164 HD
HETATM    6  H   UNL     1     -41.534 -50.054  10.784  1.00  0.00     0.171 HD
ENDROOT
BRANCH   1   7
HETATM    7  C   UNL     1     -43.677 -51.171  13.839  1.00  0.00     0.159 C 
BRANCH   7   8
HETATM    8  C   UNL     1     -44.822 -52.203  13.564  1.00  0.00     0.236 C 
HETATM    9  C   UNL     1     -46.018 -51.383  13.032  1.00  0.00     0.044 C 
BRANCH   8  10
HETATM   10  N   UNL     1     -45.194 -52.976  14.785  1.00  0.00     0.098 N 
HETATM   11  C   UNL     1     -44.023 -53.601  15.463  1.00  0.00     0.299 C 
HETATM   12  C   UNL     1     -43.434 -54.811  14.719  1.00  0.00     0.198 C 
HETATM   13  O   UNL     1     -44.425 -55.832  14.551  1.00  0.00    -0.388 OA
HETATM   14  C   UNL     1     -45.557 -55.319  13.839  1.00  0.00     0.198 C 
HETATM   15  C   UNL     1     -46.156 -54.085  14.540  1.00  0.00     0.299 C 
ENDBRANCH   8  10
ENDBRANCH   7   8
ENDBRANCH   1   7
BRANCH   4  16
HETATM   16  C   UNL     1     -41.934 -48.047  10.577  1.00  0.00     0.070 A 
HETATM   17  C   UNL     1     -40.969 -47.041  10.812  1.00  0.00     0.138 A 
HETATM   18  N   UNL     1     -41.155 -45.965  10.042  1.00  0.00    -0.310 N 
HETATM   19  N   UNL     1     -42.226 -46.290   9.304  1.00  0.00    -0.310 N 
ATOM     20  HN  UNL     1     -40.611 -45.102  10.021  1.00  0.00     0.186 HD
HETATM   21  C   UNL     1     -42.754 -47.513   9.611  1.00  0.00     0.138 A 
HETATM   22  H   UNL     1     -42.541 -45.625   8.605  1.00  0.00     0.186 HD
ENDBRANCH   4  16
TORSDOF 4
ENDMDL
MODEL 5
REMARK VINA RESULT:      -5.6      3.408      4.497
REMARK  4 active torsions:
REMARK  status: ('A' for Active; 'I' for Inactive)
REMARK    1  A    between atoms: C_2  and  C_3 
REMARK    2  A    between atoms: C_2  and  N_14 
REMARK    3  A    between atoms: C_3  and  N_4 
REMARK       I    between atoms: N_4  and  C_5 
REMARK       I    between atoms: C_5  and  N_7 
REMARK    4  A    between atoms: N_7  and  C_8 
ROOT
HETATM    1  N   UNL     1     -41.887 -49.695  11.507  1.00  0.00    -0.341 N 
HETATM    2  C   UNL     1     -42.676 -48.572  11.347  1.00  0.00     0.320 C 
HETATM    3  O   UNL     1     -43.161 -47.978  12.305  1.00  0.00    -0.247 OA
HETATM    4  N   UNL     1     -42.827 -48.225  10.026  1.00  0.00    -0.306 N 
HETATM    5  H   UNL     1     -41.928 -50.365  10.753  1.00  0.00     0.164 HD
HETATM    6  H   UNL     1     -42.155 -48.570   9.359  1.00  0.00     0.171 HD
ENDROOT
BRANCH   1   7
HETATM    7  C   UNL     1     -41.728 -50.244  12.850  1.00  0.00     0.159 C 
BRANCH   7   8
HETATM    8  C   UNL     1     -42.072 -51.767  12.954  1.00  0.00     0.236 C 
HETATM    9  C   UNL     1     -41.190 -52.478  11.904  1.00  0.00     0.044 C 
BRANCH   8  10
HETATM   10  N   UNL     1     -43.521 -52.039  12.719  1.00  0.00     0.098 N 
HETATM   11  C   UNL     1     -44.412 -51.350  13.695  1.00  0.00     0.299 C 
HETATM   12  C   UNL     1     -44.394 -51.960  15.107  1.00  0.00     0.198 C 
HETATM   13  O   UNL     1     -44.787 -53.338  15.067  1.00  0.00    -0.388 OA
HETATM   14  C   UNL     1     -43.924 -54.080  14.198  1.00  0.00     0.198 C 
HETATM   15  C   UNL     1     -43.894 -53.478  12.780  1.00  0.00     0.299 C 
ENDBRANCH   8  10
ENDBRANCH   7   8
ENDBRANCH   1   7
BRANCH   4  16
HETATM   16  C   UNL     1     -43.678 -47.213   9.618  1.00  0.00     0.070 A 
HETATM   17  C   UNL     1     -45.033 -47.255   9.218  1.00  0.00     0.138 A 
HETATM   18  N   UNL     1     -45.511 -46.048   8.901  1.00  0.00    -0.310 N 
HETATM   19  N   UNL     1     -44.467 -45.233   9.115  1.00  0.00    -0.310 N 
ATOM     20  HN  UNL     1     -46.446 -45.803   8.574  1.00  0.00     0.186 HD
HETATM   21  C   UNL     1     -43.333 -45.886   9.512  1.00  0.00     0.138 A 
HETATM   22  H   UNL     1     -44.603 -44.238   8.972  1.00  0.00     0.186 HD
ENDBRANCH   4  16
TORSDOF 4
ENDMDL
MODEL 6
REMARK VINA RESULT:      -5.5      5.002      6.896
REMARK  4 active torsions:
REMARK  status: ('A' for Active; 'I' for Inactive)
REMARK    1  A    between atoms: C_2  and  C_3 
REMARK    2  A    between atoms: C_2  and  N_14 
REMARK    3  A    between atoms: C_3  and  N_4 
REMARK       I    between atoms: N_4  and  C_5 
REMARK       I    between atoms: C_5  and  N_7 
REMARK    4  A    between atoms: N_7  and  C_8 
ROOT
HETATM    1  N   UNL     1     -41.519 -53.400  12.179  1.00  0.00    -0.341 N 
HETATM    2  C   UNL     1     -40.919 -52.175  12.398  1.00  0.00     0.320 C 
HETATM    3  O   UNL     1     -40.475 -51.858  13.497  1.00  0.00    -0.247 OA
HETATM    4  N   UNL     1     -40.885 -51.400  11.264  1.00  0.00    -0.306 N 
HETATM    5  H   UNL     1     -42.239 -53.410  11.472  1.00  0.00     0.164 HD
HETATM    6  H   UNL     1     -40.982 -51.855  10.370  1.00  0.00     0.171 HD
ENDROOT
BRANCH   1   7
HETATM    7  C   UNL     1     -41.723 -54.287  13.320  1.00  0.00     0.159 C 
BRANCH   7   8
HETATM    8  C   UNL     1     -43.102 -54.089  14.033  1.00  0.00     0.236 C 
HETATM    9  C   UNL     1     -43.113 -55.074  15.223  1.00  0.00     0.044 C 
BRANCH   8  10
HETATM   10  N   UNL     1     -44.255 -54.332  13.117  1.00  0.00     0.098 N 
HETATM   11  C   UNL     1     -44.821 -53.078  12.543  1.00  0.00     0.299 C 
HETATM   12  C   UNL     1     -45.627 -52.233  13.544  1.00  0.00     0.198 C 
HETATM   13  O   UNL     1     -46.721 -52.990  14.079  1.00  0.00    -0.388 OA
HETATM   14  C   UNL     1     -46.241 -54.181  14.714  1.00  0.00     0.198 C 
HETATM   15  C   UNL     1     -45.402 -55.040  13.748  1.00  0.00     0.299 C 
ENDBRANCH   8  10
ENDBRANCH   7   8
ENDBRANCH   1   7
BRANCH   4  16
HETATM   16  C   UNL     1     -40.450 -50.087  11.277  1.00  0.00     0.070 A 
HETATM   17  C   UNL     1     -39.170 -49.544  11.532  1.00  0.00     0.138 A 
HETATM   18  N   UNL     1     -39.153 -48.210  11.439  1.00  0.00    -0.310 N 
HETATM   19  N   UNL     1     -40.415 -47.904  11.108  1.00  0.00    -0.310 N 
ATOM     20  HN  UNL     1     -38.366 -47.577  11.586  1.00  0.00     0.186 HD
HETATM   21  C   UNL     1     -41.242 -48.990  11.033  1.00  0.00     0.138 A 
HETATM   22  H   UNL     1     -40.641 -46.928  10.946  1.00  0.00     0.186 HD
ENDBRANCH   4  16
TORSDOF 4
ENDMDL
MODEL 7
REMARK VINA RESULT:      -5.3      1.810      2.319
REMARK  4 active torsions:
REMARK  status: ('A' for Active; 'I' for Inactive)
REMARK    1  A    between atoms: C_2  and  C_3 
REMARK    2  A    between atoms: C_2  and  N_14 
REMARK    3  A    between atoms: C_3  and  N_4 
REMARK       I    between atoms: N_4  and  C_5 
REMARK       I    between atoms: C_5  and  N_7 
REMARK    4  A    between atoms: N_7  and  C_8 
ROOT
HETATM    1  N   UNL     1     -42.081 -49.759  11.550  1.00  0.00    -0.341 N 
HETATM    2  C   UNL     1     -42.745 -48.561  11.376  1.00  0.00     0.320 C 
HETATM    3  O   UNL     1     -43.091 -47.866  12.326  1.00  0.00    -0.247 OA
HETATM    4  N   UNL     1     -42.950 -48.266  10.049  1.00  0.00    -0.306 N 
HETATM    5  H   UNL     1     -42.250 -50.457  10.841  1.00  0.00     0.164 HD
HETATM    6  H   UNL     1     -42.371 -48.722   9.362  1.00  0.00     0.171 HD
ENDROOT
BRANCH   1   7
HETATM    7  C   UNL     1     -41.889 -50.254  12.910  1.00  0.00     0.159 C 
BRANCH   7   8
HETATM    8  C   UNL     1     -40.628 -51.166  13.078  1.00  0.00     0.236 C 
HETATM    9  C   UNL     1     -41.127 -52.467  13.743  1.00  0.00     0.044 C 
BRANCH   8  10
HETATM   10  N   UNL     1     -39.561 -50.514  13.892  1.00  0.00     0.098 N 
HETATM   11  C   UNL     1     -39.352 -49.079  13.545  1.00  0.00     0.299 C 
HETATM   12  C   UNL     1     -38.644 -48.852  12.199  1.00  0.00     0.198 C 
HETATM   13  O   UNL     1     -37.357 -49.486  12.191  1.00  0.00    -0.388 OA
HETATM   14  C   UNL     1     -37.489 -50.888  12.448  1.00  0.00     0.198 C 
HETATM   15  C   UNL     1     -38.223 -51.155  13.777  1.00  0.00     0.299 C 
ENDBRANCH   8  10
ENDBRANCH   7   8
ENDBRANCH   1   7
BRANCH   4  16
HETATM   16  C   UNL     1     -43.708 -47.184   9.639  1.00  0.00     0.070 A 
HETATM   17  C   UNL     1     -45.045 -47.114   9.187  1.00  0.00     0.138 A 
HETATM   18  N   UNL     1     -45.420 -45.867   8.887  1.00  0.00    -0.310 N 
HETATM   19  N   UNL     1     -44.328 -45.138   9.163  1.00  0.00    -0.310 N 
ATOM     20  HN  UNL     1     -46.321 -45.545   8.531  1.00  0.00     0.186 HD
HETATM   21  C   UNL     1     -43.262 -45.884   9.583  1.00  0.00     0.138 A 
HETATM   22  H   UNL     1     -44.385 -44.133   9.043  1.00  0.00     0.186 HD
ENDBRANCH   4  16
TORSDOF 4
ENDMDL
MODEL 8
REMARK VINA RESULT:      -5.2      4.772      5.637
REMARK  4 active torsions:
REMARK  status: ('A' for Active; 'I' for Inactive)
REMARK    1  A    between atoms: C_2  and  C_3 
REMARK    2  A    between atoms: C_2  and  N_14 
REMARK    3  A    between atoms: C_3  and  N_4 
REMARK       I    between atoms: N_4  and  C_5 
REMARK       I    between atoms: C_5  and  N_7 
REMARK    4  A    between atoms: N_7  and  C_8 
ROOT
HETATM    1  N   UNL     1     -42.299 -51.751  11.937  1.00  0.00    -0.341 N 
HETATM    2  C   UNL     1     -43.040 -52.533  12.801  1.00  0.00     0.320 C 
HETATM    3  O   UNL     1     -42.511 -53.236  13.657  1.00  0.00    -0.247 OA
HETATM    4  N   UNL     1     -44.391 -52.414  12.584  1.00  0.00    -0.306 N 
HETATM    5  H   UNL     1     -42.708 -51.602  11.027  1.00  0.00     0.164 HD
HETATM    6  H   UNL     1     -44.728 -51.601  12.091  1.00  0.00     0.171 HD
ENDROOT
BRANCH   1   7
HETATM    7  C   UNL     1     -40.843 -51.859  11.980  1.00  0.00     0.159 C 
BRANCH   7   8
HETATM    8  C   UNL     1     -40.118 -50.504  12.272  1.00  0.00     0.236 C 
HETATM    9  C   UNL     1     -40.569 -49.529  11.162  1.00  0.00     0.044 C 
BRANCH   8  10
HETATM   10  N   UNL     1     -38.633 -50.648  12.297  1.00  0.00     0.098 N 
HETATM   11  C   UNL     1     -38.137 -51.399  13.486  1.00  0.00     0.299 C 
HETATM   12  C   UNL     1     -38.212 -50.613  14.805  1.00  0.00     0.198 C 
HETATM   13  O   UNL     1     -37.451 -49.401  14.716  1.00  0.00    -0.388 OA
HETATM   14  C   UNL     1     -37.923 -48.592  13.633  1.00  0.00     0.198 C 
HETATM   15  C   UNL     1     -37.890 -49.359  12.297  1.00  0.00     0.299 C 
ENDBRANCH   8  10
ENDBRANCH   7   8
ENDBRANCH   1   7
BRANCH   4  16
HETATM   16  C   UNL     1     -45.321 -53.199  13.242  1.00  0.00     0.070 A 
HETATM   17  C   UNL     1     -45.352 -54.594  13.469  1.00  0.00     0.138 A 
HETATM   18  N   UNL     1     -46.430 -54.975  14.162  1.00  0.00    -0.310 N 
HETATM   19  N   UNL     1     -47.076 -53.823  14.392  1.00  0.00    -0.310 N 
ATOM     20  HN  UNL     1     -46.697 -55.918  14.447  1.00  0.00     0.186 HD
HETATM   21  C   UNL     1     -46.473 -52.733  13.831  1.00  0.00     0.138 A 
HETATM   22  H   UNL     1     -47.927 -53.858  14.944  1.00  0.00     0.186 HD
ENDBRANCH   4  16
TORSDOF 4
ENDMDL
MODEL 9
REMARK VINA RESULT:      -4.7      3.797      4.668
REMARK  4 active torsions:
REMARK  status: ('A' for Active; 'I' for Inactive)
REMARK    1  A    between atoms: C_2  and  C_3 
REMARK    2  A    between atoms: C_2  and  N_14 
REMARK    3  A    between atoms: C_3  and  N_4 
REMARK       I    between atoms: N_4  and  C_5 
REMARK       I    between atoms: C_5  and  N_7 
REMARK    4  A    between atoms: N_7  and  C_8 
ROOT
HETATM    1  N   UNL     1     -41.354 -50.741  12.434  1.00  0.00    -0.341 N 
HETATM    2  C   UNL     1     -41.261 -49.701  11.530  1.00  0.00     0.320 C 
HETATM    3  O   UNL     1     -40.207 -49.422  10.968  1.00  0.00    -0.247 OA
HETATM    4  N   UNL     1     -42.461 -49.057  11.352  1.00  0.00    -0.306 N 
HETATM    5  H   UNL     1     -42.039 -50.621  13.166  1.00  0.00     0.164 HD
HETATM    6  H   UNL     1     -43.308 -49.542  11.605  1.00  0.00     0.171 HD
ENDROOT
BRANCH   1   7
HETATM    7  C   UNL     1     -40.131 -51.448  12.806  1.00  0.00     0.159 C 
BRANCH   7   8
HETATM    8  C   UNL     1     -40.236 -52.218  14.164  1.00  0.00     0.236 C 
HETATM    9  C   UNL     1     -39.071 -51.704  15.038  1.00  0.00     0.044 C 
BRANCH   8  10
HETATM   10  N   UNL     1     -40.167 -53.698  13.984  1.00  0.00     0.098 N 
HETATM   11  C   UNL     1     -41.179 -54.219  13.022  1.00  0.00     0.299 C 
HETATM   12  C   UNL     1     -42.620 -54.221  13.559  1.00  0.00     0.198 C 
HETATM   13  O   UNL     1     -42.714 -55.014  14.750  1.00  0.00    -0.388 OA
HETATM   14  C   UNL     1     -41.816 -54.523  15.751  1.00  0.00     0.198 C 
HETATM   15  C   UNL     1     -40.364 -54.479  15.236  1.00  0.00     0.299 C 
ENDBRANCH   8  10
ENDBRANCH   7   8
ENDBRANCH   1   7
BRANCH   4  16
HETATM   16  C   UNL     1     -42.580 -47.906  10.593  1.00  0.00     0.070 A 
HETATM   17  C   UNL     1     -42.857 -47.735   9.217  1.00  0.00     0.138 A 
HETATM   18  N   UNL     1     -42.896 -46.448   8.860  1.00  0.00    -0.310 N 
HETATM   19  N   UNL     1     -42.662 -45.798  10.009  1.00  0.00    -0.310 N 
ATOM     20  HN  UNL     1     -43.064 -46.054   7.934  1.00  0.00     0.186 HD
HETATM   21  C   UNL     1     -42.430 -46.626  11.071  1.00  0.00     0.138 A 
HETATM   22  H   UNL     1     -42.678 -44.783   9.993  1.00  0.00     0.186 HD
ENDBRANCH   4  16
TORSDOF 4
ENDMDL
