MODEL 1
REMARK VINA RESULT:      -5.5      0.000      0.000
REMARK  5 active torsions:
REMARK  status: ('A' for Active; 'I' for Inactive)
REMARK    1  A    between atoms: C_1  and  C_2 
REMARK    2  A    between atoms: C_1  and  N_9 
REMARK    3  A    between atoms: C_2  and  N_3 
REMARK    4  A    between atoms: N_9  and  C_10 
REMARK    5  A    between atoms: C_10  and  C_11 
ROOT
HETATM    1  N   UNL     1     -42.789 -52.647  11.722  1.00  0.00     0.085 N 
HETATM    2  H   UNL     1     -42.845 -53.597  11.353  1.00  0.00     0.315 HD
ENDROOT
BRANCH   1   3
HETATM    3  C   UNL     1     -41.397 -52.385  12.125  1.00  0.00     0.291 C 
BRANCH   3   4
HETATM    4  C   UNL     1     -41.054 -50.904  11.964  1.00  0.00     0.178 C 
BRANCH   4   5
HETATM    5  N   UNL     1     -39.622 -50.676  12.006  1.00  0.00    -0.302 N 
HETATM    6  C   UNL     1     -38.762 -51.065  12.993  1.00  0.00     0.111 A 
HETATM    7  C   UNL     1     -37.522 -50.604  12.617  1.00  0.00     0.037 A 
HETATM    8  C   UNL     1     -37.740 -49.954  11.389  1.00  0.00     0.108 A 
HETATM    9  N   UNL     1     -39.018 -50.003  11.009  1.00  0.00    -0.310 N 
ATOM     10  HN  UNL     1     -39.439 -49.620  10.162  1.00  0.00     0.186 HD
ENDBRANCH   4   5
ENDBRANCH   3   4
ENDBRANCH   1   3
BRANCH   1  11
HETATM   11  C   UNL     1     -43.693 -52.530  12.871  1.00  0.00     0.274 C 
BRANCH  11  12
HETATM   12  C   UNL     1     -45.072 -53.178  12.605  1.00  0.00     0.014 C 
HETATM   13  C   UNL     1     -46.174 -52.102  12.547  1.00  0.00     0.006 C 
HETATM   14  C   UNL     1     -46.497 -51.505  13.919  1.00  0.00     0.000 C 
HETATM   15  C   UNL     1     -46.811 -52.578  14.958  1.00  0.00     0.000 C 
HETATM   16  C   UNL     1     -45.741 -53.666  15.014  1.00  0.00     0.000 C 
HETATM   17  C   UNL     1     -45.476 -54.254  13.632  1.00  0.00     0.006 C 
ENDBRANCH  11  12
ENDBRANCH   1  11
TORSDOF 5
ENDMDL
MODEL 2
REMARK VINA RESULT:      -5.2      3.018      3.963
REMARK  5 active torsions:
REMARK  status: ('A' for Active; 'I' for Inactive)
REMARK    1  A    between atoms: C_1  and  C_2 
REMARK    2  A    between atoms: C_1  and  N_9 
REMARK    3  A    between atoms: C_2  and  N_3 
REMARK    4  A    between atoms: N_9  and  C_10 
REMARK    5  A    between atoms: C_10  and  C_11 
ROOT
HETATM    1  N   UNL     1     -43.292 -50.620  12.682  1.00  0.00     0.085 N 
HETATM    2  H   UNL     1     -42.536 -51.288  12.832  1.00  0.00     0.315 HD
ENDROOT
BRANCH   1   3
HETATM    3  C   UNL     1     -42.743 -49.258  12.809  1.00  0.00     0.291 C 
BRANCH   3   4
HETATM    4  C   UNL     1     -41.934 -48.881  11.567  1.00  0.00     0.178 C 
BRANCH   4   5
HETATM    5  N   UNL     1     -42.759 -48.227  10.569  1.00  0.00    -0.302 N 
HETATM    6  C   UNL     1     -43.938 -47.574  10.783  1.00  0.00     0.111 A 
HETATM    7  C   UNL     1     -44.366 -47.150   9.547  1.00  0.00     0.037 A 
HETATM    8  C   UNL     1     -43.375 -47.595   8.654  1.00  0.00     0.108 A 
HETATM    9  N   UNL     1     -42.388 -48.245   9.274  1.00  0.00    -0.310 N 
ATOM     10  HN  UNL     1     -41.550 -48.658   8.864  1.00  0.00     0.186 HD
ENDBRANCH   4   5
ENDBRANCH   3   4
ENDBRANCH   1   3
BRANCH   1  11
HETATM   11  C   UNL     1     -44.338 -50.853  13.684  1.00  0.00     0.274 C 
BRANCH  11  12
HETATM   12  C   UNL     1     -45.641 -51.404  13.058  1.00  0.00     0.014 C 
HETATM   13  C   UNL     1     -46.785 -51.391  14.090  1.00  0.00     0.006 C 
HETATM   14  C   UNL     1     -46.621 -52.455  15.178  1.00  0.00     0.000 C 
HETATM   15  C   UNL     1     -46.404 -53.849  14.595  1.00  0.00     0.000 C 
HETATM   16  C   UNL     1     -45.288 -53.878  13.553  1.00  0.00     0.000 C 
HETATM   17  C   UNL     1     -45.511 -52.824  12.473  1.00  0.00     0.006 C 
ENDBRANCH  11  12
ENDBRANCH   1  11
TORSDOF 5
ENDMDL
MODEL 3
REMARK VINA RESULT:      -5.1      1.731      2.302
REMARK  5 active torsions:
REMARK  status: ('A' for Active; 'I' for Inactive)
REMARK    1  A    between atoms: C_1  and  C_2 
REMARK    2  A    between atoms: C_1  and  N_9 
REMARK    3  A    between atoms: C_2  and  N_3 
REMARK    4  A    between atoms: N_9  and  C_10 
REMARK    5  A    between atoms: C_10  and  C_11 
ROOT
HETATM    1  N   UNL     1     -43.417 -53.501  12.336  1.00  0.00     0.085 N 
HETATM    2  H   UNL     1     -43.637 -54.249  11.678  1.00  0.00     0.315 HD
ENDROOT
BRANCH   1   3
HETATM    3  C   UNL     1     -42.282 -53.932  13.171  1.00  0.00     0.291 C 
BRANCH   3   4
HETATM    4  C   UNL     1     -40.953 -53.532  12.529  1.00  0.00     0.178 C 
BRANCH   4   5
HETATM    5  N   UNL     1     -40.790 -52.090  12.489  1.00  0.00    -0.302 N 
HETATM    6  C   UNL     1     -40.558 -51.265  13.552  1.00  0.00     0.111 A 
HETATM    7  C   UNL     1     -40.508 -49.991  13.037  1.00  0.00     0.037 A 
HETATM    8  C   UNL     1     -40.721 -50.154  11.657  1.00  0.00     0.108 A 
HETATM    9  N   UNL     1     -40.884 -51.435  11.317  1.00  0.00    -0.310 N 
ATOM     10  HN  UNL     1     -41.043 -51.825  10.388  1.00  0.00     0.186 HD
ENDBRANCH   4   5
ENDBRANCH   3   4
ENDBRANCH   1   3
BRANCH   1  11
HETATM   11  C   UNL     1     -44.598 -53.235  13.165  1.00  0.00     0.274 C 
BRANCH  11  12
HETATM   12  C   UNL     1     -45.036 -51.753  13.109  1.00  0.00     0.014 C 
HETATM   13  C   UNL     1     -44.190 -50.901  14.075  1.00  0.00     0.006 C 
HETATM   14  C   UNL     1     -44.529 -51.153  15.546  1.00  0.00     0.000 C 
HETATM   15  C   UNL     1     -46.022 -51.009  15.829  1.00  0.00     0.000 C 
HETATM   16  C   UNL     1     -46.879 -51.829  14.866  1.00  0.00     0.000 C 
HETATM   17  C   UNL     1     -46.529 -51.522  13.414  1.00  0.00     0.006 C 
ENDBRANCH  11  12
ENDBRANCH   1  11
TORSDOF 5
ENDMDL
MODEL 4
REMARK VINA RESULT:      -4.8      2.326      2.859
REMARK  5 active torsions:
REMARK  status: ('A' for Active; 'I' for Inactive)
REMARK    1  A    between atoms: C_1  and  C_2 
REMARK    2  A    between atoms: C_1  and  N_9 
REMARK    3  A    between atoms: C_2  and  N_3 
REMARK    4  A    between atoms: N_9  and  C_10 
REMARK    5  A    between atoms: C_10  and  C_11 
ROOT
HETATM    1  N   UNL     1     -42.737 -52.671  11.736  1.00  0.00     0.085 N 
HETATM    2  H   UNL     1     -42.886 -53.568  11.274  1.00  0.00     0.315 HD
ENDROOT
BRANCH   1   3
HETATM    3  C   UNL     1     -41.337 -52.607  12.190  1.00  0.00     0.291 C 
BRANCH   3   4
HETATM    4  C   UNL     1     -40.907 -53.936  12.812  1.00  0.00     0.178 C 
BRANCH   4   5
HETATM    5  N   UNL     1     -40.167 -53.737  14.045  1.00  0.00    -0.302 N 
HETATM    6  C   UNL     1     -40.075 -52.581  14.765  1.00  0.00     0.111 A 
HETATM    7  C   UNL     1     -39.248 -52.861  15.827  1.00  0.00     0.037 A 
HETATM    8  C   UNL     1     -38.896 -54.212  15.658  1.00  0.00     0.108 A 
HETATM    9  N   UNL     1     -39.461 -54.753  14.577  1.00  0.00    -0.310 N 
ATOM     10  HN  UNL     1     -39.379 -55.710  14.234  1.00  0.00     0.186 HD
ENDBRANCH   4   5
ENDBRANCH   3   4
ENDBRANCH   1   3
BRANCH   1  11
HETATM   11  C   UNL     1     -43.657 -52.565  12.874  1.00  0.00     0.274 C 
BRANCH  11  12
HETATM   12  C   UNL     1     -45.023 -53.234  12.591  1.00  0.00     0.014 C 
HETATM   13  C   UNL     1     -46.133 -52.172  12.476  1.00  0.00     0.006 C 
HETATM   14  C   UNL     1     -46.496 -51.538  13.821  1.00  0.00     0.000 C 
HETATM   15  C   UNL     1     -46.826 -52.584  14.883  1.00  0.00     0.000 C 
HETATM   16  C   UNL     1     -45.748 -53.659  14.997  1.00  0.00     0.000 C 
HETATM   17  C   UNL     1     -45.442 -54.284  13.639  1.00  0.00     0.006 C 
ENDBRANCH  11  12
ENDBRANCH   1  11
TORSDOF 5
ENDMDL
MODEL 5
REMARK VINA RESULT:      -4.8      2.648      3.690
REMARK  5 active torsions:
REMARK  status: ('A' for Active; 'I' for Inactive)
REMARK    1  A    between atoms: C_1  and  C_2 
REMARK    2  A    between atoms: C_1  and  N_9 
REMARK    3  A    between atoms: C_2  and  N_3 
REMARK    4  A    between atoms: N_9  and  C_10 
REMARK    5  A    between atoms: C_10  and  C_11 
ROOT
HETATM    1  N   UNL     1     -42.100 -50.711  13.570  1.00  0.00     0.085 N 
HETATM    2  H   UNL     1     -42.395 -49.768  13.824  1.00  0.00     0.315 HD
ENDROOT
BRANCH   1   3
HETATM    3  C   UNL     1     -41.620 -50.689  12.177  1.00  0.00     0.291 C 
BRANCH   3   4
HETATM    4  C   UNL     1     -41.088 -49.304  11.808  1.00  0.00     0.178 C 
BRANCH   4   5
HETATM    5  N   UNL     1     -42.046 -48.553  11.018  1.00  0.00    -0.302 N 
HETATM    6  C   UNL     1     -43.234 -48.037  11.449  1.00  0.00     0.111 A 
HETATM    7  C   UNL     1     -43.809 -47.442  10.351  1.00  0.00     0.037 A 
HETATM    8  C   UNL     1     -42.890 -47.653   9.308  1.00  0.00     0.108 A 
HETATM    9  N   UNL     1     -41.809 -48.323   9.713  1.00  0.00    -0.310 N 
ATOM     10  HN  UNL     1     -40.995 -48.597   9.163  1.00  0.00     0.186 HD
ENDBRANCH   4   5
ENDBRANCH   3   4
ENDBRANCH   1   3
BRANCH   1  11
HETATM   11  C   UNL     1     -43.242 -51.620  13.711  1.00  0.00     0.274 C 
BRANCH  11  12
HETATM   12  C   UNL     1     -43.106 -52.880  12.823  1.00  0.00     0.014 C 
HETATM   13  C   UNL     1     -44.482 -53.312  12.280  1.00  0.00     0.006 C 
HETATM   14  C   UNL     1     -45.383 -53.923  13.356  1.00  0.00     0.000 C 
HETATM   15  C   UNL     1     -44.695 -55.057  14.112  1.00  0.00     0.000 C 
HETATM   16  C   UNL     1     -43.319 -54.654  14.639  1.00  0.00     0.000 C 
HETATM   17  C   UNL     1     -42.446 -54.081  13.527  1.00  0.00     0.006 C 
ENDBRANCH  11  12
ENDBRANCH   1  11
TORSDOF 5
ENDMDL
MODEL 6
REMARK VINA RESULT:      -4.5      3.373      6.574
REMARK  5 active torsions:
REMARK  status: ('A' for Active; 'I' for Inactive)
REMARK    1  A    between atoms: C_1  and  C_2 
REMARK    2  A    between atoms: C_1  and  N_9 
REMARK    3  A    between atoms: C_2  and  N_3 
REMARK    4  A    between atoms: N_9  and  C_10 
REMARK    5  A    between atoms: C_10  and  C_11 
ROOT
HETATM    1  N   UNL     1     -43.747 -54.683  15.322  1.00  0.00     0.085 N 
HETATM    2  H   UNL     1     -43.890 -55.333  16.096  1.00  0.00     0.315 HD
ENDROOT
BRANCH   1   3
HETATM    3  C   UNL     1     -44.512 -55.166  14.160  1.00  0.00     0.291 C 
BRANCH   3   4
HETATM    4  C   UNL     1     -45.998 -54.839  14.314  1.00  0.00     0.178 C 
BRANCH   4   5
HETATM    5  N   UNL     1     -46.262 -53.429  14.092  1.00  0.00    -0.302 N 
HETATM    6  C   UNL     1     -46.640 -52.511  15.029  1.00  0.00     0.111 A 
HETATM    7  C   UNL     1     -46.804 -51.325  14.352  1.00  0.00     0.037 A 
HETATM    8  C   UNL     1     -46.501 -51.633  13.014  1.00  0.00     0.108 A 
HETATM    9  N   UNL     1     -46.161 -52.914  12.852  1.00  0.00    -0.310 N 
ATOM     10  HN  UNL     1     -45.890 -53.390  11.992  1.00  0.00     0.186 HD
ENDBRANCH   4   5
ENDBRANCH   3   4
ENDBRANCH   1   3
BRANCH   1  11
HETATM   11  C   UNL     1     -42.314 -54.623  15.012  1.00  0.00     0.274 C 
BRANCH  11  12
HETATM   12  C   UNL     1     -42.027 -53.844  13.706  1.00  0.00     0.014 C 
HETATM   13  C   UNL     1     -40.634 -54.206  13.156  1.00  0.00     0.006 C 
HETATM   14  C   UNL     1     -39.491 -53.622  13.991  1.00  0.00     0.000 C 
HETATM   15  C   UNL     1     -39.640 -52.118  14.204  1.00  0.00     0.000 C 
HETATM   16  C   UNL     1     -41.023 -51.738  14.729  1.00  0.00     0.000 C 
HETATM   17  C   UNL     1     -42.127 -52.313  13.848  1.00  0.00     0.006 C 
ENDBRANCH  11  12
ENDBRANCH   1  11
TORSDOF 5
ENDMDL
MODEL 7
REMARK VINA RESULT:      -4.4      1.340      2.035
REMARK  5 active torsions:
REMARK  status: ('A' for Active; 'I' for Inactive)
REMARK    1  A    between atoms: C_1  and  C_2 
REMARK    2  A    between atoms: C_1  and  N_9 
REMARK    3  A    between atoms: C_2  and  N_3 
REMARK    4  A    between atoms: N_9  and  C_10 
REMARK    5  A    between atoms: C_10  and  C_11 
ROOT
HETATM    1  N   UNL     1     -43.819 -50.458  12.714  1.00  0.00     0.085 N 
HETATM    2  H   UNL     1     -44.295 -50.857  11.904  1.00  0.00     0.315 HD
ENDROOT
BRANCH   1   3
HETATM    3  C   UNL     1     -42.440 -50.977  12.747  1.00  0.00     0.291 C 
BRANCH   3   4
HETATM    4  C   UNL     1     -41.462 -49.953  12.170  1.00  0.00     0.178 C 
BRANCH   4   5
HETATM    5  N   UNL     1     -40.108 -50.181  12.640  1.00  0.00    -0.302 N 
HETATM    6  C   UNL     1     -38.964 -50.113  11.899  1.00  0.00     0.111 A 
HETATM    7  C   UNL     1     -37.938 -50.434  12.756  1.00  0.00     0.037 A 
HETATM    8  C   UNL     1     -38.567 -50.678  13.990  1.00  0.00     0.108 A 
HETATM    9  N   UNL     1     -39.890 -50.516  13.926  1.00  0.00    -0.310 N 
ATOM     10  HN  UNL     1     -40.575 -50.621  14.674  1.00  0.00     0.186 HD
ENDBRANCH   4   5
ENDBRANCH   3   4
ENDBRANCH   1   3
BRANCH   1  11
HETATM   11  C   UNL     1     -44.547 -50.842  13.928  1.00  0.00     0.274 C 
BRANCH  11  12
HETATM   12  C   UNL     1     -45.991 -51.309  13.627  1.00  0.00     0.014 C 
HETATM   13  C   UNL     1     -46.769 -51.542  14.936  1.00  0.00     0.006 C 
HETATM   14  C   UNL     1     -46.309 -52.792  15.690  1.00  0.00     0.000 C 
HETATM   15  C   UNL     1     -46.312 -54.035  14.805  1.00  0.00     0.000 C 
HETATM   16  C   UNL     1     -45.565 -53.817  13.492  1.00  0.00     0.000 C 
HETATM   17  C   UNL     1     -46.077 -52.580  12.761  1.00  0.00     0.006 C 
ENDBRANCH  11  12
ENDBRANCH   1  11
TORSDOF 5
ENDMDL
MODEL 8
REMARK VINA RESULT:      -4.2      1.644      2.012
REMARK  5 active torsions:
REMARK  status: ('A' for Active; 'I' for Inactive)
REMARK    1  A    between atoms: C_1  and  C_2 
REMARK    2  A    between atoms: C_1  and  N_9 
REMARK    3  A    between atoms: C_2  and  N_3 
REMARK    4  A    between atoms: N_9  and  C_10 
REMARK    5  A    between atoms: C_10  and  C_11 
ROOT
HETATM    1  N   UNL     1     -42.131 -51.171  14.935  1.00  0.00     0.085 N 
HETATM    2  H   UNL     1     -42.566 -50.337  14.540  1.00  0.00     0.315 HD
ENDROOT
BRANCH   1   3
HETATM    3  C   UNL     1     -40.722 -51.210  14.507  1.00  0.00     0.291 C 
BRANCH   3   4
HETATM    4  C   UNL     1     -40.346 -49.928  13.762  1.00  0.00     0.178 C 
BRANCH   4   5
HETATM    5  N   UNL     1     -39.130 -50.096  12.987  1.00  0.00    -0.302 N 
HETATM    6  C   UNL     1     -38.764 -49.387  11.879  1.00  0.00     0.111 A 
HETATM    7  C   UNL     1     -37.561 -49.915  11.473  1.00  0.00     0.037 A 
HETATM    8  C   UNL     1     -37.287 -50.936  12.401  1.00  0.00     0.108 A 
HETATM    9  N   UNL     1     -38.238 -51.043  13.332  1.00  0.00    -0.310 N 
ATOM     10  HN  UNL     1     -38.279 -51.691  14.119  1.00  0.00     0.186 HD
ENDBRANCH   4   5
ENDBRANCH   3   4
ENDBRANCH   1   3
BRANCH   1  11
HETATM   11  C   UNL     1     -42.852 -52.355  14.452  1.00  0.00     0.274 C 
BRANCH  11  12
HETATM   12  C   UNL     1     -43.643 -52.073  13.153  1.00  0.00     0.014 C 
HETATM   13  C   UNL     1     -44.662 -50.939  13.375  1.00  0.00     0.006 C 
HETATM   14  C   UNL     1     -45.849 -51.363  14.243  1.00  0.00     0.000 C 
HETATM   15  C   UNL     1     -46.522 -52.631  13.723  1.00  0.00     0.000 C 
HETATM   16  C   UNL     1     -45.525 -53.760  13.476  1.00  0.00     0.000 C 
HETATM   17  C   UNL     1     -44.378 -53.301  12.581  1.00  0.00     0.006 C 
ENDBRANCH  11  12
ENDBRANCH   1  11
TORSDOF 5
ENDMDL
MODEL 9
REMARK VINA RESULT:      -4.0      3.033      4.108
REMARK  5 active torsions:
REMARK  status: ('A' for Active; 'I' for Inactive)
REMARK    1  A    between atoms: C_1  and  C_2 
REMARK    2  A    between atoms: C_1  and  N_9 
REMARK    3  A    between atoms: C_2  and  N_3 
REMARK    4  A    between atoms: N_9  and  C_10 
REMARK    5  A    between atoms: C_10  and  C_11 
ROOT
HETATM    1  N   UNL     1     -44.034 -53.154  17.238  1.00  0.00     0.085 N 
HETATM    2  H   UNL     1     -43.920 -52.522  18.031  1.00  0.00     0.315 HD
ENDROOT
BRANCH   1   3
HETATM    3  C   UNL     1     -42.729 -53.772  16.943  1.00  0.00     0.291 C 
BRANCH   3   4
HETATM    4  C   UNL     1     -41.812 -52.784  16.220  1.00  0.00     0.178 C 
BRANCH   4   5
HETATM    5  N   UNL     1     -41.105 -53.415  15.121  1.00  0.00    -0.302 N 
HETATM    6  C   UNL     1     -39.818 -53.870  15.130  1.00  0.00     0.111 A 
HETATM    7  C   UNL     1     -39.579 -54.354  13.866  1.00  0.00     0.037 A 
HETATM    8  C   UNL     1     -40.783 -54.148  13.170  1.00  0.00     0.108 A 
HETATM    9  N   UNL     1     -41.720 -53.583  13.935  1.00  0.00    -0.310 N 
ATOM     10  HN  UNL     1     -42.677 -53.336  13.680  1.00  0.00     0.186 HD
ENDBRANCH   4   5
ENDBRANCH   3   4
ENDBRANCH   1   3
BRANCH   1  11
HETATM   11  C   UNL     1     -44.516 -52.386  16.084  1.00  0.00     0.274 C 
BRANCH  11  12
HETATM   12  C   UNL     1     -45.974 -52.740  15.709  1.00  0.00     0.014 C 
HETATM   13  C   UNL     1     -46.015 -54.005  14.831  1.00  0.00     0.006 C 
HETATM   14  C   UNL     1     -45.497 -53.763  13.411  1.00  0.00     0.000 C 
HETATM   15  C   UNL     1     -46.193 -52.585  12.734  1.00  0.00     0.000 C 
HETATM   16  C   UNL     1     -46.182 -51.327  13.599  1.00  0.00     0.000 C 
HETATM   17  C   UNL     1     -46.736 -51.608  14.993  1.00  0.00     0.006 C 
ENDBRANCH  11  12
ENDBRANCH   1  11
TORSDOF 5
ENDMDL
