MODEL 1
REMARK VINA RESULT:      -6.5      0.000      0.000
REMARK  9 active torsions:
REMARK  status: ('A' for Active; 'I' for Inactive)
REMARK    1  A    between atoms: C_2  and  C_4 
REMARK    2  A    between atoms: C_8  and  O_9 
REMARK    3  A    between atoms: O_9  and  C_10 
REMARK    4  A    between atoms: C_10  and  C_11 
REMARK    5  A    between atoms: C_11  and  O_12 
REMARK    6  A    between atoms: C_11  and  C_13 
REMARK    7  A    between atoms: C_13  and  N_14 
REMARK    8  A    between atoms: C_15  and  C_16 
REMARK    9  A    between atoms: C_16  and  O_17 
ROOT
HETATM    1  C   UNL     1     -38.947 -51.199  13.086  1.00  0.00     0.160 C 
ENDROOT
BRANCH   1   2
HETATM    2  C   UNL     1     -39.058 -52.353  14.104  1.00  0.00     0.209 C 
BRANCH   2   3
HETATM    3  O   UNL     1     -39.662 -53.459  13.428  1.00  0.00    -0.349 OA
BRANCH   3   4
HETATM    4  C   UNL     1     -40.824 -53.980  13.916  1.00  0.00     0.069 A 
HETATM    5  C   UNL     1     -40.693 -54.594  15.168  1.00  0.00     0.037 A 
HETATM    6  C   UNL     1     -41.794 -55.158  15.810  1.00  0.00     0.004 A 
HETATM    7  C   UNL     1     -43.048 -55.108  15.205  1.00  0.00     0.015 A 
HETATM    8  C   UNL     1     -43.195 -54.496  13.954  1.00  0.00     0.012 A 
HETATM    9  C   UNL     1     -42.075 -53.946  13.304  1.00  0.00     0.051 A 
BRANCH   8  10
HETATM   10  C   UNL     1     -44.528 -54.387  13.289  1.00  0.00     0.155 C 
HETATM   11  C   UNL     1     -45.747 -54.914  13.999  1.00  0.00     0.096 C 
HETATM   12  O   UNL     1     -44.614 -53.865  12.178  1.00  0.00    -0.293 OA
ENDBRANCH   8  10
ENDBRANCH   3   4
ENDBRANCH   2   3
ENDBRANCH   1   2
BRANCH   1  13
HETATM   13  O   UNL     1     -39.485 -51.620  11.824  1.00  0.00    -0.392 OA
HETATM   14  H   UNL     1     -39.049 -51.116  11.114  1.00  0.00     0.210 HD
ENDBRANCH   1  13
BRANCH   1  15
HETATM   15  C   UNL     1     -39.676 -49.942  13.567  1.00  0.00     0.164 C 
BRANCH  15  16
HETATM   16  N   UNL     1     -41.105 -49.963  13.281  1.00  0.00    -0.330 N 
HETATM   17  C   UNL     1     -41.749 -49.564  12.122  1.00  0.00     0.108 A 
HETATM   18  N   UNL     1     -43.044 -49.815  12.203  1.00  0.00    -0.342 N 
HETATM   19  C   UNL     1     -43.256 -50.342  13.448  1.00  0.00     0.060 A 
ATOM     20  HN  UNL     1     -43.745 -49.649  11.482  1.00  0.00     0.167 HD
HETATM   21  C   UNL     1     -44.459 -50.752  14.043  1.00  0.00     0.032 A 
HETATM   22  C   UNL     1     -42.063 -50.448  14.153  1.00  0.00     0.062 A 
HETATM   23  C   UNL     1     -44.426 -51.272  15.342  1.00  0.00     0.002 A 
HETATM   24  C   UNL     1     -43.218 -51.372  16.035  1.00  0.00     0.002 A 
HETATM   25  C   UNL     1     -42.010 -50.958  15.458  1.00  0.00     0.032 A 
BRANCH  17  26
HETATM   26  C   UNL     1     -41.130 -48.865  10.956  1.00  0.00     0.240 C 
BRANCH  26  27
HETATM   27  O   UNL     1     -40.546 -49.811  10.068  1.00  0.00    -0.393 OA
HETATM   28  H   UNL     1     -39.585 -49.666  10.125  1.00  0.00     0.209 HD
ENDBRANCH  26  27
ENDBRANCH  17  26
ENDBRANCH  15  16
ENDBRANCH   1  15
TORSDOF 9
ENDMDL
MODEL 2
REMARK VINA RESULT:      -6.4      2.037      4.243
REMARK  9 active torsions:
REMARK  status: ('A' for Active; 'I' for Inactive)
REMARK    1  A    between atoms: C_2  and  C_4 
REMARK    2  A    between atoms: C_8  and  O_9 
REMARK    3  A    between atoms: O_9  and  C_10 
REMARK    4  A    between atoms: C_10  and  C_11 
REMARK    5  A    between atoms: C_11  and  O_12 
REMARK    6  A    between atoms: C_11  and  C_13 
REMARK    7  A    between atoms: C_13  and  N_14 
REMARK    8  A    between atoms: C_15  and  C_16 
REMARK    9  A    between atoms: C_16  and  O_17 
ROOT
HETATM    1  C   UNL     1     -41.332 -51.201  12.042  1.00  0.00     0.160 C 
ENDROOT
BRANCH   1   2
HETATM    2  C   UNL     1     -40.803 -50.530  13.326  1.00  0.00     0.209 C 
BRANCH   2   3
HETATM    3  O   UNL     1     -41.886 -49.789  13.895  1.00  0.00    -0.349 OA
BRANCH   3   4
HETATM    4  C   UNL     1     -42.805 -50.441  14.662  1.00  0.00     0.069 A 
HETATM    5  C   UNL     1     -42.276 -51.008  15.829  1.00  0.00     0.037 A 
HETATM    6  C   UNL     1     -43.091 -51.693  16.728  1.00  0.00     0.004 A 
HETATM    7  C   UNL     1     -44.455 -51.815  16.471  1.00  0.00     0.015 A 
HETATM    8  C   UNL     1     -44.999 -51.252  15.310  1.00  0.00     0.012 A 
HETATM    9  C   UNL     1     -44.166 -50.578  14.398  1.00  0.00     0.051 A 
BRANCH   8  10
HETATM   10  C   UNL     1     -46.461 -51.326  15.017  1.00  0.00     0.155 C 
HETATM   11  C   UNL     1     -47.433 -51.456  16.159  1.00  0.00     0.096 C 
HETATM   12  O   UNL     1     -46.853 -51.275  13.851  1.00  0.00    -0.293 OA
ENDBRANCH   8  10
ENDBRANCH   3   4
ENDBRANCH   2   3
ENDBRANCH   1   2
BRANCH   1  13
HETATM   13  O   UNL     1     -40.852 -50.485  10.895  1.00  0.00    -0.392 OA
HETATM   14  H   UNL     1     -41.491 -50.594  10.167  1.00  0.00     0.210 HD
ENDBRANCH   1  13
BRANCH   1  15
HETATM   15  C   UNL     1     -40.911 -52.670  11.950  1.00  0.00     0.164 C 
BRANCH  15  16
HETATM   16  N   UNL     1     -41.419 -53.482  13.048  1.00  0.00    -0.330 N 
HETATM   17  C   UNL     1     -40.715 -53.999  14.122  1.00  0.00     0.108 A 
HETATM   18  N   UNL     1     -41.534 -54.610  14.960  1.00  0.00    -0.342 N 
HETATM   19  C   UNL     1     -42.781 -54.532  14.405  1.00  0.00     0.060 A 
ATOM     20  HN  UNL     1     -41.285 -55.052  15.845  1.00  0.00     0.167 HD
HETATM   21  C   UNL     1     -43.997 -55.045  14.880  1.00  0.00     0.032 A 
HETATM   22  C   UNL     1     -42.748 -53.832  13.204  1.00  0.00     0.062 A 
HETATM   23  C   UNL     1     -45.159 -54.831  14.131  1.00  0.00     0.002 A 
HETATM   24  C   UNL     1     -45.107 -54.125  12.927  1.00  0.00     0.002 A 
HETATM   25  C   UNL     1     -43.900 -53.614  12.435  1.00  0.00     0.032 A 
BRANCH  17  26
HETATM   26  C   UNL     1     -39.233 -53.975  14.310  1.00  0.00     0.240 C 
BRANCH  26  27
HETATM   27  O   UNL     1     -38.608 -54.881  13.407  1.00  0.00    -0.393 OA
HETATM   28  H   UNL     1     -39.170 -55.676  13.403  1.00  0.00     0.209 HD
ENDBRANCH  26  27
ENDBRANCH  17  26
ENDBRANCH  15  16
ENDBRANCH   1  15
TORSDOF 9
ENDMDL
MODEL 3
REMARK VINA RESULT:      -5.9      2.694      4.080
REMARK  9 active torsions:
REMARK  status: ('A' for Active; 'I' for Inactive)
REMARK    1  A    between atoms: C_2  and  C_4 
REMARK    2  A    between atoms: C_8  and  O_9 
REMARK    3  A    between atoms: O_9  and  C_10 
REMARK    4  A    between atoms: C_10  and  C_11 
REMARK    5  A    between atoms: C_11  and  O_12 
REMARK    6  A    between atoms: C_11  and  C_13 
REMARK    7  A    between atoms: C_13  and  N_14 
REMARK    8  A    between atoms: C_15  and  C_16 
REMARK    9  A    between atoms: C_16  and  O_17 
ROOT
HETATM    1  C   UNL     1     -40.218 -49.599  11.563  1.00  0.00     0.160 C 
ENDROOT
BRANCH   1   2
HETATM    2  C   UNL     1     -39.995 -50.910  12.345  1.00  0.00     0.209 C 
BRANCH   2   3
HETATM    3  O   UNL     1     -40.770 -51.925  11.701  1.00  0.00    -0.349 OA
BRANCH   3   4
HETATM    4  C   UNL     1     -41.531 -52.761  12.463  1.00  0.00     0.069 A 
HETATM    5  C   UNL     1     -40.803 -53.484  13.417  1.00  0.00     0.037 A 
HETATM    6  C   UNL     1     -41.439 -54.367  14.287  1.00  0.00     0.004 A 
HETATM    7  C   UNL     1     -42.821 -54.535  14.216  1.00  0.00     0.015 A 
HETATM    8  C   UNL     1     -43.562 -53.818  13.269  1.00  0.00     0.012 A 
HETATM    9  C   UNL     1     -42.910 -52.942  12.382  1.00  0.00     0.051 A 
BRANCH   8  10
HETATM   10  C   UNL     1     -45.048 -53.939  13.185  1.00  0.00     0.155 C 
HETATM   11  C   UNL     1     -45.779 -54.736  14.232  1.00  0.00     0.096 C 
HETATM   12  O   UNL     1     -45.654 -53.383  12.269  1.00  0.00    -0.293 OA
ENDBRANCH   8  10
ENDBRANCH   3   4
ENDBRANCH   2   3
ENDBRANCH   1   2
BRANCH   1  13
HETATM   13  O   UNL     1     -40.549 -49.904  10.200  1.00  0.00    -0.392 OA
HETATM   14  H   UNL     1     -40.725 -50.859  10.126  1.00  0.00     0.210 HD
ENDBRANCH   1  13
BRANCH   1  15
HETATM   15  C   UNL     1     -41.323 -48.743  12.186  1.00  0.00     0.164 C 
BRANCH  15  16
HETATM   16  N   UNL     1     -41.298 -47.357  11.736  1.00  0.00    -0.330 N 
HETATM   17  C   UNL     1     -42.099 -46.757  10.780  1.00  0.00     0.108 A 
HETATM   18  N   UNL     1     -41.841 -45.463  10.707  1.00  0.00    -0.342 N 
HETATM   19  C   UNL     1     -40.827 -45.223  11.593  1.00  0.00     0.060 A 
ATOM     20  HN  UNL     1     -42.306 -44.780  10.109  1.00  0.00     0.167 HD
HETATM   21  C   UNL     1     -40.168 -44.018  11.880  1.00  0.00     0.032 A 
HETATM   22  C   UNL     1     -40.459 -46.388  12.256  1.00  0.00     0.062 A 
HETATM   23  C   UNL     1     -39.152 -44.017  12.843  1.00  0.00     0.002 A 
HETATM   24  C   UNL     1     -38.796 -45.197  13.499  1.00  0.00     0.002 A 
HETATM   25  C   UNL     1     -39.439 -46.409  13.217  1.00  0.00     0.032 A 
BRANCH  17  26
HETATM   26  C   UNL     1     -43.067 -47.443   9.872  1.00  0.00     0.240 C 
BRANCH  26  27
HETATM   27  O   UNL     1     -42.370 -48.157   8.858  1.00  0.00    -0.393 OA
HETATM   28  H   UNL     1     -42.965 -48.168   8.088  1.00  0.00     0.209 HD
ENDBRANCH  26  27
ENDBRANCH  17  26
ENDBRANCH  15  16
ENDBRANCH   1  15
TORSDOF 9
ENDMDL
MODEL 4
REMARK VINA RESULT:      -5.8      2.745      6.306
REMARK  9 active torsions:
REMARK  status: ('A' for Active; 'I' for Inactive)
REMARK    1  A    between atoms: C_2  and  C_4 
REMARK    2  A    between atoms: C_8  and  O_9 
REMARK    3  A    between atoms: O_9  and  C_10 
REMARK    4  A    between atoms: C_10  and  C_11 
REMARK    5  A    between atoms: C_11  and  O_12 
REMARK    6  A    between atoms: C_11  and  C_13 
REMARK    7  A    between atoms: C_13  and  N_14 
REMARK    8  A    between atoms: C_15  and  C_16 
REMARK    9  A    between atoms: C_16  and  O_17 
ROOT
HETATM    1  C   UNL     1     -41.632 -50.020  12.776  1.00  0.00     0.160 C 
ENDROOT
BRANCH   1   2
HETATM    2  C   UNL     1     -40.270 -49.299  12.712  1.00  0.00     0.209 C 
BRANCH   2   3
HETATM    3  O   UNL     1     -40.166 -48.702  11.416  1.00  0.00    -0.349 OA
BRANCH   3   4
HETATM    4  C   UNL     1     -40.782 -47.508  11.185  1.00  0.00     0.069 A 
HETATM    5  C   UNL     1     -40.183 -46.421  11.835  1.00  0.00     0.037 A 
HETATM    6  C   UNL     1     -40.684 -45.130  11.685  1.00  0.00     0.004 A 
HETATM    7  C   UNL     1     -41.795 -44.908  10.873  1.00  0.00     0.015 A 
HETATM    8  C   UNL     1     -42.404 -45.985  10.215  1.00  0.00     0.012 A 
HETATM    9  C   UNL     1     -41.903 -47.288  10.388  1.00  0.00     0.051 A 
BRANCH   8  10
HETATM   10  C   UNL     1     -43.572 -45.786   9.307  1.00  0.00     0.155 C 
HETATM   11  C   UNL     1     -44.262 -46.990   8.724  1.00  0.00     0.096 C 
HETATM   12  O   UNL     1     -43.958 -44.645   9.051  1.00  0.00    -0.293 OA
ENDBRANCH   8  10
ENDBRANCH   3   4
ENDBRANCH   2   3
ENDBRANCH   1   2
BRANCH   1  13
HETATM   13  O   UNL     1     -41.873 -50.700  11.536  1.00  0.00    -0.392 OA
HETATM   14  H   UNL     1     -42.833 -50.720  11.370  1.00  0.00     0.210 HD
ENDBRANCH   1  13
BRANCH   1  15
HETATM   15  C   UNL     1     -41.696 -51.018  13.935  1.00  0.00     0.164 C 
BRANCH  15  16
HETATM   16  N   UNL     1     -42.600 -52.132  13.683  1.00  0.00    -0.330 N 
HETATM   17  C   UNL     1     -42.279 -53.414  13.269  1.00  0.00     0.108 A 
HETATM   18  N   UNL     1     -43.360 -54.173  13.235  1.00  0.00    -0.342 N 
HETATM   19  C   UNL     1     -44.408 -53.366  13.586  1.00  0.00     0.060 A 
ATOM     20  HN  UNL     1     -43.405 -55.163  12.994  1.00  0.00     0.167 HD
HETATM   21  C   UNL     1     -45.773 -53.676  13.679  1.00  0.00     0.032 A 
HETATM   22  C   UNL     1     -43.969 -52.079  13.874  1.00  0.00     0.062 A 
HETATM   23  C   UNL     1     -46.667 -52.674  14.070  1.00  0.00     0.002 A 
HETATM   24  C   UNL     1     -46.209 -51.386  14.356  1.00  0.00     0.002 A 
HETATM   25  C   UNL     1     -44.850 -51.058  14.259  1.00  0.00     0.032 A 
BRANCH  17  26
HETATM   26  C   UNL     1     -40.936 -53.896  12.826  1.00  0.00     0.240 C 
BRANCH  26  27
HETATM   27  O   UNL     1     -40.616 -53.356  11.549  1.00  0.00    -0.393 OA
HETATM   28  H   UNL     1     -41.458 -53.313  11.063  1.00  0.00     0.209 HD
ENDBRANCH  26  27
ENDBRANCH  17  26
ENDBRANCH  15  16
ENDBRANCH   1  15
TORSDOF 9
ENDMDL
MODEL 5
REMARK VINA RESULT:      -5.7      3.301      6.265
REMARK  9 active torsions:
REMARK  status: ('A' for Active; 'I' for Inactive)
REMARK    1  A    between atoms: C_2  and  C_4 
REMARK    2  A    between atoms: C_8  and  O_9 
REMARK    3  A    between atoms: O_9  and  C_10 
REMARK    4  A    between atoms: C_10  and  C_11 
REMARK    5  A    between atoms: C_11  and  O_12 
REMARK    6  A    between atoms: C_11  and  C_13 
REMARK    7  A    between atoms: C_13  and  N_14 
REMARK    8  A    between atoms: C_15  and  C_16 
REMARK    9  A    between atoms: C_16  and  O_17 
ROOT
HETATM    1  C   UNL     1     -42.219 -50.685  12.215  1.00  0.00     0.160 C 
ENDROOT
BRANCH   1   2
HETATM    2  C   UNL     1     -41.582 -49.289  12.059  1.00  0.00     0.209 C 
BRANCH   2   3
HETATM    3  O   UNL     1     -42.617 -48.324  12.272  1.00  0.00    -0.349 OA
BRANCH   3   4
HETATM    4  C   UNL     1     -43.165 -47.691  11.196  1.00  0.00     0.069 A 
HETATM    5  C   UNL     1     -42.305 -46.777  10.573  1.00  0.00     0.037 A 
HETATM    6  C   UNL     1     -42.710 -46.063   9.447  1.00  0.00     0.004 A 
HETATM    7  C   UNL     1     -43.987 -46.260   8.925  1.00  0.00     0.015 A 
HETATM    8  C   UNL     1     -44.858 -47.172   9.536  1.00  0.00     0.012 A 
HETATM    9  C   UNL     1     -44.447 -47.874  10.684  1.00  0.00     0.051 A 
BRANCH   8  10
HETATM   10  C   UNL     1     -46.220 -47.440   8.986  1.00  0.00     0.155 C 
HETATM   11  C   UNL     1     -46.690 -48.865   8.854  1.00  0.00     0.096 C 
HETATM   12  O   UNL     1     -46.940 -46.499   8.656  1.00  0.00    -0.293 OA
ENDBRANCH   8  10
ENDBRANCH   3   4
ENDBRANCH   2   3
ENDBRANCH   1   2
BRANCH   1  13
HETATM   13  O   UNL     1     -41.552 -51.616  11.352  1.00  0.00    -0.392 OA
HETATM   14  H   UNL     1     -41.978 -51.593  10.476  1.00  0.00     0.210 HD
ENDBRANCH   1  13
BRANCH   1  15
HETATM   15  C   UNL     1     -42.155 -51.183  13.661  1.00  0.00     0.164 C 
BRANCH  15  16
HETATM   16  N   UNL     1     -43.004 -52.342  13.907  1.00  0.00    -0.330 N 
HETATM   17  C   UNL     1     -42.627 -53.672  13.988  1.00  0.00     0.108 A 
HETATM   18  N   UNL     1     -43.663 -54.426  14.312  1.00  0.00    -0.342 N 
HETATM   19  C   UNL     1     -44.739 -53.586  14.398  1.00  0.00     0.060 A 
ATOM     20  HN  UNL     1     -43.660 -55.435  14.466  1.00  0.00     0.167 HD
HETATM   21  C   UNL     1     -46.078 -53.888  14.686  1.00  0.00     0.032 A 
HETATM   22  C   UNL     1     -44.364 -52.271  14.149  1.00  0.00     0.062 A 
HETATM   23  C   UNL     1     -47.011 -52.846  14.725  1.00  0.00     0.002 A 
HETATM   24  C   UNL     1     -46.616 -51.530  14.473  1.00  0.00     0.002 A 
HETATM   25  C   UNL     1     -45.285 -51.214  14.175  1.00  0.00     0.032 A 
BRANCH  17  26
HETATM   26  C   UNL     1     -41.279 -54.236  13.677  1.00  0.00     0.240 C 
BRANCH  26  27
HETATM   27  O   UNL     1     -41.110 -54.360  12.270  1.00  0.00    -0.393 OA
HETATM   28  H   UNL     1     -41.595 -55.166  12.017  1.00  0.00     0.209 HD
ENDBRANCH  26  27
ENDBRANCH  17  26
ENDBRANCH  15  16
ENDBRANCH   1  15
TORSDOF 9
ENDMDL
MODEL 6
REMARK VINA RESULT:      -5.7      2.784      6.277
REMARK  9 active torsions:
REMARK  status: ('A' for Active; 'I' for Inactive)
REMARK    1  A    between atoms: C_2  and  C_4 
REMARK    2  A    between atoms: C_8  and  O_9 
REMARK    3  A    between atoms: O_9  and  C_10 
REMARK    4  A    between atoms: C_10  and  C_11 
REMARK    5  A    between atoms: C_11  and  O_12 
REMARK    6  A    between atoms: C_11  and  C_13 
REMARK    7  A    between atoms: C_13  and  N_14 
REMARK    8  A    between atoms: C_15  and  C_16 
REMARK    9  A    between atoms: C_16  and  O_17 
ROOT
HETATM    1  C   UNL     1     -41.172 -50.874  12.272  1.00  0.00     0.160 C 
ENDROOT
BRANCH   1   2
HETATM    2  C   UNL     1     -40.012 -50.055  11.671  1.00  0.00     0.209 C 
BRANCH   2   3
HETATM    3  O   UNL     1     -38.808 -50.488  12.313  1.00  0.00    -0.349 OA
BRANCH   3   4
HETATM    4  C   UNL     1     -38.255 -49.704  13.281  1.00  0.00     0.069 A 
HETATM    5  C   UNL     1     -38.646 -48.360  13.220  1.00  0.00     0.037 A 
HETATM    6  C   UNL     1     -38.182 -47.434  14.152  1.00  0.00     0.004 A 
HETATM    7  C   UNL     1     -37.319 -47.845  15.166  1.00  0.00     0.015 A 
HETATM    8  C   UNL     1     -36.920 -49.186  15.241  1.00  0.00     0.012 A 
HETATM    9  C   UNL     1     -37.379 -50.111  14.285  1.00  0.00     0.051 A 
BRANCH   8  10
HETATM   10  C   UNL     1     -36.028 -49.676  16.333  1.00  0.00     0.155 C 
HETATM   11  C   UNL     1     -36.584 -50.618  17.368  1.00  0.00     0.096 C 
HETATM   12  O   UNL     1     -34.853 -49.310  16.372  1.00  0.00    -0.293 OA
ENDBRANCH   8  10
ENDBRANCH   3   4
ENDBRANCH   2   3
ENDBRANCH   1   2
BRANCH   1  13
HETATM   13  O   UNL     1     -42.423 -50.329  11.831  1.00  0.00    -0.392 OA
HETATM   14  H   UNL     1     -42.608 -50.654  10.932  1.00  0.00     0.210 HD
ENDBRANCH   1  13
BRANCH   1  15
HETATM   15  C   UNL     1     -41.086 -52.353  11.887  1.00  0.00     0.164 C 
BRANCH  15  16
HETATM   16  N   UNL     1     -41.470 -53.251  12.969  1.00  0.00    -0.330 N 
HETATM   17  C   UNL     1     -40.672 -53.756  13.981  1.00  0.00     0.108 A 
HETATM   18  N   UNL     1     -41.395 -54.468  14.828  1.00  0.00    -0.342 N 
HETATM   19  C   UNL     1     -42.672 -54.466  14.339  1.00  0.00     0.060 A 
ATOM     20  HN  UNL     1     -41.066 -54.927  15.677  1.00  0.00     0.167 HD
HETATM   21  C   UNL     1     -43.818 -55.096  14.848  1.00  0.00     0.032 A 
HETATM   22  C   UNL     1     -42.758 -53.714  13.173  1.00  0.00     0.062 A 
HETATM   23  C   UNL     1     -45.031 -54.943  14.169  1.00  0.00     0.002 A 
HETATM   24  C   UNL     1     -45.098 -54.184  12.999  1.00  0.00     0.002 A 
HETATM   25  C   UNL     1     -43.962 -53.556  12.472  1.00  0.00     0.032 A 
BRANCH  17  26
HETATM   26  C   UNL     1     -39.189 -53.621  14.096  1.00  0.00     0.240 C 
BRANCH  26  27
HETATM   27  O   UNL     1     -38.542 -54.644  13.347  1.00  0.00    -0.393 OA
HETATM   28  H   UNL     1     -37.717 -54.839  13.826  1.00  0.00     0.209 HD
ENDBRANCH  26  27
ENDBRANCH  17  26
ENDBRANCH  15  16
ENDBRANCH   1  15
TORSDOF 9
ENDMDL
MODEL 7
REMARK VINA RESULT:      -5.5      2.692      4.296
REMARK  9 active torsions:
REMARK  status: ('A' for Active; 'I' for Inactive)
REMARK    1  A    between atoms: C_2  and  C_4 
REMARK    2  A    between atoms: C_8  and  O_9 
REMARK    3  A    between atoms: O_9  and  C_10 
REMARK    4  A    between atoms: C_10  and  C_11 
REMARK    5  A    between atoms: C_11  and  O_12 
REMARK    6  A    between atoms: C_11  and  C_13 
REMARK    7  A    between atoms: C_13  and  N_14 
REMARK    8  A    between atoms: C_15  and  C_16 
REMARK    9  A    between atoms: C_16  and  O_17 
ROOT
HETATM    1  C   UNL     1     -40.626 -50.097  11.680  1.00  0.00     0.160 C 
ENDROOT
BRANCH   1   2
HETATM    2  C   UNL     1     -40.879 -51.553  12.122  1.00  0.00     0.209 C 
BRANCH   2   3
HETATM    3  O   UNL     1     -42.293 -51.767  12.089  1.00  0.00    -0.349 OA
BRANCH   3   4
HETATM    4  C   UNL     1     -42.828 -52.777  12.832  1.00  0.00     0.069 A 
HETATM    5  C   UNL     1     -44.128 -53.138  12.454  1.00  0.00     0.037 A 
HETATM    6  C   UNL     1     -44.805 -54.167  13.104  1.00  0.00     0.004 A 
HETATM    7  C   UNL     1     -44.185 -54.855  14.145  1.00  0.00     0.015 A 
HETATM    8  C   UNL     1     -42.885 -54.506  14.534  1.00  0.00     0.012 A 
HETATM    9  C   UNL     1     -42.215 -53.454  13.885  1.00  0.00     0.051 A 
BRANCH   8  10
HETATM   10  C   UNL     1     -42.170 -55.243  15.619  1.00  0.00     0.155 C 
HETATM   11  C   UNL     1     -40.766 -54.837  15.979  1.00  0.00     0.096 C 
HETATM   12  O   UNL     1     -42.737 -56.164  16.206  1.00  0.00    -0.293 OA
ENDBRANCH   8  10
ENDBRANCH   3   4
ENDBRANCH   2   3
ENDBRANCH   1   2
BRANCH   1  13
HETATM   13  O   UNL     1     -40.538 -50.039  10.250  1.00  0.00    -0.392 OA
HETATM   14  H   UNL     1     -40.881 -49.178   9.949  1.00  0.00     0.210 HD
ENDBRANCH   1  13
BRANCH   1  15
HETATM   15  C   UNL     1     -41.725 -49.152  12.171  1.00  0.00     0.164 C 
BRANCH  15  16
HETATM   16  N   UNL     1     -41.470 -47.755  11.842  1.00  0.00    -0.330 N 
HETATM   17  C   UNL     1     -42.104 -46.975  10.891  1.00  0.00     0.108 A 
HETATM   18  N   UNL     1     -41.660 -45.731  10.944  1.00  0.00    -0.342 N 
HETATM   19  C   UNL     1     -40.692 -45.709  11.910  1.00  0.00     0.060 A 
ATOM     20  HN  UNL     1     -41.977 -44.944  10.377  1.00  0.00     0.167 HD
HETATM   21  C   UNL     1     -39.891 -44.639  12.339  1.00  0.00     0.032 A 
HETATM   22  C   UNL     1     -40.544 -46.961  12.494  1.00  0.00     0.062 A 
HETATM   23  C   UNL     1     -38.962 -44.859  13.360  1.00  0.00     0.002 A 
HETATM   24  C   UNL     1     -38.827 -46.124  13.937  1.00  0.00     0.002 A 
HETATM   25  C   UNL     1     -39.612 -47.204  13.513  1.00  0.00     0.032 A 
BRANCH  17  26
HETATM   26  C   UNL     1     -43.088 -47.441   9.869  1.00  0.00     0.240 C 
BRANCH  26  27
HETATM   27  O   UNL     1     -42.428 -48.190   8.855  1.00  0.00    -0.393 OA
HETATM   28  H   UNL     1     -43.135 -48.566   8.303  1.00  0.00     0.209 HD
ENDBRANCH  26  27
ENDBRANCH  17  26
ENDBRANCH  15  16
ENDBRANCH   1  15
TORSDOF 9
ENDMDL
MODEL 8
REMARK VINA RESULT:      -5.5      3.032      6.907
REMARK  9 active torsions:
REMARK  status: ('A' for Active; 'I' for Inactive)
REMARK    1  A    between atoms: C_2  and  C_4 
REMARK    2  A    between atoms: C_8  and  O_9 
REMARK    3  A    between atoms: O_9  and  C_10 
REMARK    4  A    between atoms: C_10  and  C_11 
REMARK    5  A    between atoms: C_11  and  O_12 
REMARK    6  A    between atoms: C_11  and  C_13 
REMARK    7  A    between atoms: C_13  and  N_14 
REMARK    8  A    between atoms: C_15  and  C_16 
REMARK    9  A    between atoms: C_16  and  O_17 
ROOT
HETATM    1  C   UNL     1     -41.669 -50.633  12.019  1.00  0.00     0.160 C 
ENDROOT
BRANCH   1   2
HETATM    2  C   UNL     1     -41.091 -49.204  11.957  1.00  0.00     0.209 C 
BRANCH   2   3
HETATM    3  O   UNL     1     -41.214 -48.754  10.604  1.00  0.00    -0.349 OA
BRANCH   3   4
HETATM    4  C   UNL     1     -41.861 -47.581  10.352  1.00  0.00     0.069 A 
HETATM    5  C   UNL     1     -42.927 -47.699   9.451  1.00  0.00     0.037 A 
HETATM    6  C   UNL     1     -43.700 -46.593   9.105  1.00  0.00     0.004 A 
HETATM    7  C   UNL     1     -43.418 -45.348   9.665  1.00  0.00     0.015 A 
HETATM    8  C   UNL     1     -42.356 -45.215  10.569  1.00  0.00     0.012 A 
HETATM    9  C   UNL     1     -41.568 -46.333  10.898  1.00  0.00     0.051 A 
BRANCH   8  10
HETATM   10  C   UNL     1     -42.044 -43.908  11.220  1.00  0.00     0.155 C 
HETATM   11  C   UNL     1     -40.617 -43.429  11.257  1.00  0.00     0.096 C 
HETATM   12  O   UNL     1     -42.953 -43.239  11.711  1.00  0.00    -0.293 OA
ENDBRANCH   8  10
ENDBRANCH   3   4
ENDBRANCH   2   3
ENDBRANCH   1   2
BRANCH   1  13
HETATM   13  O   UNL     1     -40.863 -51.511  11.221  1.00  0.00    -0.392 OA
HETATM   14  H   UNL     1     -40.917 -51.228  10.290  1.00  0.00     0.210 HD
ENDBRANCH   1  13
BRANCH   1  15
HETATM   15  C   UNL     1     -41.740 -51.157  13.455  1.00  0.00     0.164 C 
BRANCH  15  16
HETATM   16  N   UNL     1     -42.623 -52.308  13.602  1.00  0.00    -0.330 N 
HETATM   17  C   UNL     1     -42.276 -53.647  13.653  1.00  0.00     0.108 A 
HETATM   18  N   UNL     1     -43.343 -54.392  13.882  1.00  0.00    -0.342 N 
HETATM   19  C   UNL     1     -44.407 -53.534  13.936  1.00  0.00     0.060 A 
ATOM     20  HN  UNL     1     -43.368 -55.406  13.996  1.00  0.00     0.167 HD
HETATM   21  C   UNL     1     -45.767 -53.819  14.130  1.00  0.00     0.032 A 
HETATM   22  C   UNL     1     -43.994 -52.218  13.763  1.00  0.00     0.062 A 
HETATM   23  C   UNL     1     -46.682 -52.761  14.153  1.00  0.00     0.002 A 
HETATM   24  C   UNL     1     -46.249 -51.445  13.979  1.00  0.00     0.002 A 
HETATM   25  C   UNL     1     -44.896 -51.145  13.775  1.00  0.00     0.032 A 
BRANCH  17  26
HETATM   26  C   UNL     1     -40.922 -54.226  13.403  1.00  0.00     0.240 C 
BRANCH  26  27
HETATM   27  O   UNL     1     -40.638 -54.227  12.008  1.00  0.00    -0.393 OA
HETATM   28  H   UNL     1     -39.899 -54.851  11.891  1.00  0.00     0.209 HD
ENDBRANCH  26  27
ENDBRANCH  17  26
ENDBRANCH  15  16
ENDBRANCH   1  15
TORSDOF 9
ENDMDL
MODEL 9
REMARK VINA RESULT:      -5.4      2.836      6.346
REMARK  9 active torsions:
REMARK  status: ('A' for Active; 'I' for Inactive)
REMARK    1  A    between atoms: C_2  and  C_4 
REMARK    2  A    between atoms: C_8  and  O_9 
REMARK    3  A    between atoms: O_9  and  C_10 
REMARK    4  A    between atoms: C_10  and  C_11 
REMARK    5  A    between atoms: C_11  and  O_12 
REMARK    6  A    between atoms: C_11  and  C_13 
REMARK    7  A    between atoms: C_13  and  N_14 
REMARK    8  A    between atoms: C_15  and  C_16 
REMARK    9  A    between atoms: C_16  and  O_17 
ROOT
HETATM    1  C   UNL     1     -41.197 -50.810  12.227  1.00  0.00     0.160 C 
ENDROOT
BRANCH   1   2
HETATM    2  C   UNL     1     -40.133 -49.967  11.494  1.00  0.00     0.209 C 
BRANCH   2   3
HETATM    3  O   UNL     1     -38.905 -50.113  12.214  1.00  0.00    -0.349 OA
BRANCH   3   4
HETATM    4  C   UNL     1     -38.556 -49.161  13.127  1.00  0.00     0.069 A 
HETATM    5  C   UNL     1     -37.642 -49.604  14.092  1.00  0.00     0.037 A 
HETATM    6  C   UNL     1     -37.172 -48.745  15.082  1.00  0.00     0.004 A 
HETATM    7  C   UNL     1     -37.610 -47.422  15.117  1.00  0.00     0.015 A 
HETATM    8  C   UNL     1     -38.523 -46.965  14.158  1.00  0.00     0.012 A 
HETATM    9  C   UNL     1     -39.007 -47.844  13.172  1.00  0.00     0.051 A 
BRANCH   8  10
HETATM   10  C   UNL     1     -38.988 -45.546  14.137  1.00  0.00     0.155 C 
HETATM   11  C   UNL     1     -39.301 -44.897  12.815  1.00  0.00     0.096 C 
HETATM   12  O   UNL     1     -39.115 -44.930  15.194  1.00  0.00    -0.293 OA
ENDBRANCH   8  10
ENDBRANCH   3   4
ENDBRANCH   2   3
ENDBRANCH   1   2
BRANCH   1  13
HETATM   13  O   UNL     1     -42.504 -50.307  11.917  1.00  0.00    -0.392 OA
HETATM   14  H   UNL     1     -42.411 -49.518  11.353  1.00  0.00     0.210 HD
ENDBRANCH   1  13
BRANCH   1  15
HETATM   15  C   UNL     1     -41.110 -52.291  11.852  1.00  0.00     0.164 C 
BRANCH  15  16
HETATM   16  N   UNL     1     -41.476 -53.182  12.945  1.00  0.00    -0.330 N 
HETATM   17  C   UNL     1     -40.671 -53.651  13.969  1.00  0.00     0.108 A 
HETATM   18  N   UNL     1     -41.381 -54.368  14.823  1.00  0.00    -0.342 N 
HETATM   19  C   UNL     1     -42.655 -54.407  14.327  1.00  0.00     0.060 A 
ATOM     20  HN  UNL     1     -41.044 -54.806  15.681  1.00  0.00     0.167 HD
HETATM   21  C   UNL     1     -43.787 -55.058  14.841  1.00  0.00     0.032 A 
HETATM   22  C   UNL     1     -42.753 -53.675  13.150  1.00  0.00     0.062 A 
HETATM   23  C   UNL     1     -44.999 -54.947  14.153  1.00  0.00     0.002 A 
HETATM   24  C   UNL     1     -45.079 -54.207  12.971  1.00  0.00     0.002 A 
HETATM   25  C   UNL     1     -43.957 -53.558  12.441  1.00  0.00     0.032 A 
BRANCH  17  26
HETATM   26  C   UNL     1     -39.192 -53.477  14.090  1.00  0.00     0.240 C 
BRANCH  26  27
HETATM   27  O   UNL     1     -38.516 -54.513  13.387  1.00  0.00    -0.393 OA
HETATM   28  H   UNL     1     -38.495 -55.273  13.995  1.00  0.00     0.209 HD
ENDBRANCH  26  27
ENDBRANCH  17  26
ENDBRANCH  15  16
ENDBRANCH   1  15
TORSDOF 9
ENDMDL
