MODEL 1
REMARK VINA RESULT:      -6.1      0.000      0.000
REMARK  4 active torsions:
REMARK  status: ('A' for Active; 'I' for Inactive)
REMARK    1  A    between atoms: N_4  and  C_9 
REMARK    2  A    between atoms: C_9  and  C_12 
REMARK    3  A    between atoms: C_12  and  N_13 
REMARK       I    between atoms: N_13  and  C_14 
REMARK       I    between atoms: C_14  and  N_16 
REMARK    4  A    between atoms: N_16  and  C_17 
ROOT
HETATM    1  N   UNL     1     -41.785 -51.251  11.845  1.00  0.00    -0.340 N 
HETATM    2  C   UNL     1     -42.603 -51.727  12.846  1.00  0.00     0.320 C 
HETATM    3  O   UNL     1     -42.169 -51.974  13.965  1.00  0.00    -0.247 OA
HETATM    4  N   UNL     1     -43.917 -51.800  12.449  1.00  0.00    -0.308 N 
HETATM    5  H   UNL     1     -42.009 -51.488  10.889  1.00  0.00     0.164 HD
HETATM    6  H   UNL     1     -44.137 -51.318  11.590  1.00  0.00     0.170 HD
ENDROOT
BRANCH   1   7
HETATM    7  C   UNL     1     -40.380 -51.015  12.137  1.00  0.00     0.165 C 
BRANCH   7   8
HETATM    8  C   UNL     1     -40.041 -49.516  12.424  1.00  0.00     0.168 C 
HETATM    9  C   UNL     1     -38.719 -49.206  11.682  1.00  0.00     0.050 C 
HETATM   10  C   UNL     1     -39.753 -49.418  13.948  1.00  0.00     0.050 C 
BRANCH   8  11
HETATM   11  N   UNL     1     -41.180 -48.609  12.053  1.00  0.00     0.104 N 
HETATM   12  C   UNL     1     -40.854 -47.650  10.967  1.00  0.00     0.305 C 
HETATM   13  C   UNL     1     -42.039 -46.729  10.592  1.00  0.00     0.146 C 
HETATM   14  C   UNL     1     -43.167 -47.464   9.872  1.00  0.00     0.041 C 
HETATM   15  O   UNL     1     -42.525 -46.018  11.742  1.00  0.00    -0.378 OA
HETATM   16  C   UNL     1     -42.877 -46.899  12.815  1.00  0.00     0.146 C 
HETATM   17  C   UNL     1     -41.700 -47.821  13.199  1.00  0.00     0.305 C 
HETATM   18  C   UNL     1     -43.281 -46.037  14.007  1.00  0.00     0.041 C 
ENDBRANCH   8  11
ENDBRANCH   7   8
ENDBRANCH   1   7
BRANCH   4  19
HETATM   19  C   UNL     1     -44.997 -52.200  13.268  1.00  0.00     0.051 A 
HETATM   20  C   UNL     1     -45.731 -51.325  14.067  1.00  0.00     0.032 A 
HETATM   21  C   UNL     1     -46.812 -51.793  14.812  1.00  0.00     0.019 A 
HETATM   22  C   UNL     1     -47.121 -53.138  14.747  1.00  0.00     0.088 A 
HETATM   23  N   UNL     1     -46.424 -54.031  14.010  1.00  0.00    -0.373 N 
HETATM   24  C   UNL     1     -45.382 -53.540  13.293  1.00  0.00     0.117 A 
ATOM     25  HN  UNL     1     -46.669 -55.020  13.992  1.00  0.00     0.164 HD
ENDBRANCH   4  19
TORSDOF 4
ENDMDL
MODEL 2
REMARK VINA RESULT:      -6.0      2.249      6.364
REMARK  4 active torsions:
REMARK  status: ('A' for Active; 'I' for Inactive)
REMARK    1  A    between atoms: N_4  and  C_9 
REMARK    2  A    between atoms: C_9  and  C_12 
REMARK    3  A    between atoms: C_12  and  N_13 
REMARK       I    between atoms: N_13  and  C_14 
REMARK       I    between atoms: C_14  and  N_16 
REMARK    4  A    between atoms: N_16  and  C_17 
ROOT
HETATM    1  N   UNL     1     -41.683 -50.164  12.199  1.00  0.00    -0.340 N 
HETATM    2  C   UNL     1     -42.515 -49.095  11.949  1.00  0.00     0.320 C 
HETATM    3  O   UNL     1     -43.238 -48.627  12.821  1.00  0.00    -0.247 OA
HETATM    4  N   UNL     1     -42.360 -48.609  10.673  1.00  0.00    -0.308 N 
HETATM    5  H   UNL     1     -41.474 -50.799  11.442  1.00  0.00     0.164 HD
HETATM    6  H   UNL     1     -41.547 -48.942  10.178  1.00  0.00     0.170 HD
ENDROOT
BRANCH   1   7
HETATM    7  C   UNL     1     -41.648 -50.730  13.539  1.00  0.00     0.165 C 
BRANCH   7   8
HETATM    8  C   UNL     1     -41.698 -52.292  13.564  1.00  0.00     0.168 C 
HETATM    9  C   UNL     1     -40.612 -52.759  14.562  1.00  0.00     0.050 C 
HETATM   10  C   UNL     1     -41.265 -52.766  12.149  1.00  0.00     0.050 C 
BRANCH   8  11
HETATM   11  N   UNL     1     -43.079 -52.797  13.878  1.00  0.00     0.104 N 
HETATM   12  C   UNL     1     -43.820 -53.295  12.693  1.00  0.00     0.305 C 
HETATM   13  C   UNL     1     -45.236 -53.818  13.034  1.00  0.00     0.146 C 
HETATM   14  C   UNL     1     -45.219 -55.128  13.819  1.00  0.00     0.041 C 
HETATM   15  O   UNL     1     -46.009 -52.812  13.707  1.00  0.00    -0.378 OA
HETATM   16  C   UNL     1     -45.349 -52.311  14.876  1.00  0.00     0.146 C 
HETATM   17  C   UNL     1     -43.937 -51.784  14.544  1.00  0.00     0.305 C 
HETATM   18  C   UNL     1     -46.210 -51.188  15.447  1.00  0.00     0.041 C 
ENDBRANCH   8  11
ENDBRANCH   7   8
ENDBRANCH   1   7
BRANCH   4  19
HETATM   19  C   UNL     1     -43.036 -47.488  10.138  1.00  0.00     0.051 A 
HETATM   20  C   UNL     1     -44.133 -47.577   9.283  1.00  0.00     0.032 A 
HETATM   21  C   UNL     1     -44.772 -46.422   8.836  1.00  0.00     0.019 A 
HETATM   22  C   UNL     1     -44.279 -45.199   9.249  1.00  0.00     0.088 A 
HETATM   23  N   UNL     1     -43.204 -45.058  10.055  1.00  0.00    -0.373 N 
HETATM   24  C   UNL     1     -42.610 -46.204  10.475  1.00  0.00     0.117 A 
ATOM     25  HN  UNL     1     -42.857 -44.141  10.332  1.00  0.00     0.164 HD
ENDBRANCH   4  19
TORSDOF 4
ENDMDL
MODEL 3
REMARK VINA RESULT:      -6.0      1.509      2.417
REMARK  4 active torsions:
REMARK  status: ('A' for Active; 'I' for Inactive)
REMARK    1  A    between atoms: N_4  and  C_9 
REMARK    2  A    between atoms: C_9  and  C_12 
REMARK    3  A    between atoms: C_12  and  N_13 
REMARK       I    between atoms: N_13  and  C_14 
REMARK       I    between atoms: C_14  and  N_16 
REMARK    4  A    between atoms: N_16  and  C_17 
ROOT
HETATM    1  N   UNL     1     -42.951 -49.975  12.392  1.00  0.00    -0.340 N 
HETATM    2  C   UNL     1     -43.407 -50.986  13.209  1.00  0.00     0.320 C 
HETATM    3  O   UNL     1     -43.027 -51.094  14.369  1.00  0.00    -0.247 OA
HETATM    4  N   UNL     1     -44.358 -51.761  12.589  1.00  0.00    -0.308 N 
HETATM    5  H   UNL     1     -42.887 -50.151  11.400  1.00  0.00     0.164 HD
HETATM    6  H   UNL     1     -44.738 -51.380  11.735  1.00  0.00     0.170 HD
ENDROOT
BRANCH   1   7
HETATM    7  C   UNL     1     -42.015 -49.001  12.934  1.00  0.00     0.165 C 
BRANCH   7   8
HETATM    8  C   UNL     1     -40.775 -48.744  12.018  1.00  0.00     0.168 C 
HETATM    9  C   UNL     1     -40.588 -50.012  11.152  1.00  0.00     0.050 C 
HETATM   10  C   UNL     1     -39.547 -48.641  12.965  1.00  0.00     0.050 C 
BRANCH   8  11
HETATM   11  N   UNL     1     -40.925 -47.476  11.225  1.00  0.00     0.104 N 
HETATM   12  C   UNL     1     -40.838 -46.241  12.045  1.00  0.00     0.305 C 
HETATM   13  C   UNL     1     -40.987 -44.945  11.213  1.00  0.00     0.146 C 
HETATM   14  C   UNL     1     -39.786 -44.668  10.312  1.00  0.00     0.041 C 
HETATM   15  O   UNL     1     -42.214 -44.950  10.466  1.00  0.00    -0.378 OA
HETATM   16  C   UNL     1     -42.341 -46.112   9.637  1.00  0.00     0.146 C 
HETATM   17  C   UNL     1     -42.196 -47.410  10.459  1.00  0.00     0.305 C 
HETATM   18  C   UNL     1     -43.713 -46.059   8.974  1.00  0.00     0.041 C 
ENDBRANCH   8  11
ENDBRANCH   7   8
ENDBRANCH   1   7
BRANCH   4  19
HETATM   19  C   UNL     1     -45.049 -52.840  13.186  1.00  0.00     0.051 A 
HETATM   20  C   UNL     1     -44.556 -54.143  13.241  1.00  0.00     0.032 A 
HETATM   21  C   UNL     1     -45.280 -55.142  13.889  1.00  0.00     0.019 A 
HETATM   22  C   UNL     1     -46.496 -54.808  14.456  1.00  0.00     0.088 A 
HETATM   23  N   UNL     1     -47.029 -53.568  14.406  1.00  0.00    -0.373 N 
HETATM   24  C   UNL     1     -46.295 -52.619  13.772  1.00  0.00     0.117 A 
ATOM     25  HN  UNL     1     -47.935 -53.356  14.824  1.00  0.00     0.164 HD
ENDBRANCH   4  19
TORSDOF 4
ENDMDL
MODEL 4
REMARK VINA RESULT:      -5.9      3.805      5.524
REMARK  4 active torsions:
REMARK  status: ('A' for Active; 'I' for Inactive)
REMARK    1  A    between atoms: N_4  and  C_9 
REMARK    2  A    between atoms: C_9  and  C_12 
REMARK    3  A    between atoms: C_12  and  N_13 
REMARK       I    between atoms: N_13  and  C_14 
REMARK       I    between atoms: C_14  and  N_16 
REMARK    4  A    between atoms: N_16  and  C_17 
ROOT
HETATM    1  N   UNL     1     -42.362 -46.372  12.340  1.00  0.00    -0.340 N 
HETATM    2  C   UNL     1     -42.990 -47.286  11.522  1.00  0.00     0.320 C 
HETATM    3  O   UNL     1     -43.008 -48.481  11.789  1.00  0.00    -0.247 OA
HETATM    4  N   UNL     1     -43.627 -46.679  10.465  1.00  0.00    -0.308 N 
HETATM    5  H   UNL     1     -41.963 -45.545  11.919  1.00  0.00     0.164 HD
HETATM    6  H   UNL     1     -43.730 -45.678  10.537  1.00  0.00     0.170 HD
ENDROOT
BRANCH   1   7
HETATM    7  C   UNL     1     -41.729 -46.842  13.562  1.00  0.00     0.165 C 
BRANCH   7   8
HETATM    8  C   UNL     1     -40.167 -46.825  13.507  1.00  0.00     0.168 C 
HETATM    9  C   UNL     1     -39.679 -46.221  14.846  1.00  0.00     0.050 C 
HETATM   10  C   UNL     1     -39.780 -45.830  12.379  1.00  0.00     0.050 C 
BRANCH   8  11
HETATM   11  N   UNL     1     -39.609 -48.188  13.210  1.00  0.00     0.104 N 
HETATM   12  C   UNL     1     -39.530 -48.501  11.761  1.00  0.00     0.305 C 
HETATM   13  C   UNL     1     -38.947 -49.905  11.471  1.00  0.00     0.146 C 
HETATM   14  C   UNL     1     -37.454 -50.009  11.775  1.00  0.00     0.041 C 
HETATM   15  O   UNL     1     -39.694 -50.925  12.151  1.00  0.00    -0.378 OA
HETATM   16  C   UNL     1     -39.783 -50.685  13.561  1.00  0.00     0.146 C 
HETATM   17  C   UNL     1     -40.367 -49.288  13.860  1.00  0.00     0.305 C 
HETATM   18  C   UNL     1     -40.675 -51.768  14.159  1.00  0.00     0.041 C 
ENDBRANCH   8  11
ENDBRANCH   7   8
ENDBRANCH   1   7
BRANCH   4  19
HETATM   19  C   UNL     1     -44.399 -47.346   9.485  1.00  0.00     0.051 A 
HETATM   20  C   UNL     1     -45.754 -47.641   9.633  1.00  0.00     0.032 A 
HETATM   21  C   UNL     1     -46.454 -48.260   8.600  1.00  0.00     0.019 A 
HETATM   22  C   UNL     1     -45.769 -48.583   7.444  1.00  0.00     0.088 A 
HETATM   23  N   UNL     1     -44.452 -48.343   7.263  1.00  0.00    -0.373 N 
HETATM   24  C   UNL     1     -43.803 -47.734   8.287  1.00  0.00     0.117 A 
ATOM     25  HN  UNL     1     -43.972 -48.605   6.402  1.00  0.00     0.164 HD
ENDBRANCH   4  19
TORSDOF 4
ENDMDL
MODEL 5
REMARK VINA RESULT:      -5.9      4.140      5.496
REMARK  4 active torsions:
REMARK  status: ('A' for Active; 'I' for Inactive)
REMARK    1  A    between atoms: N_4  and  C_9 
REMARK    2  A    between atoms: C_9  and  C_12 
REMARK    3  A    between atoms: C_12  and  N_13 
REMARK       I    between atoms: N_13  and  C_14 
REMARK       I    between atoms: C_14  and  N_16 
REMARK    4  A    between atoms: N_16  and  C_17 
ROOT
HETATM    1  N   UNL     1     -40.368 -50.006  10.788  1.00  0.00    -0.340 N 
HETATM    2  C   UNL     1     -41.416 -49.118  10.888  1.00  0.00     0.320 C 
HETATM    3  O   UNL     1     -42.030 -48.966  11.937  1.00  0.00    -0.247 OA
HETATM    4  N   UNL     1     -41.606 -48.411   9.724  1.00  0.00    -0.308 N 
HETATM    5  H   UNL     1     -40.196 -50.449   9.897  1.00  0.00     0.164 HD
HETATM    6  H   UNL     1     -40.856 -48.474   9.052  1.00  0.00     0.170 HD
ENDROOT
BRANCH   1   7
HETATM    7  C   UNL     1     -39.968 -50.759  11.967  1.00  0.00     0.165 C 
BRANCH   7   8
HETATM    8  C   UNL     1     -38.676 -50.212  12.655  1.00  0.00     0.168 C 
HETATM    9  C   UNL     1     -37.649 -49.944  11.529  1.00  0.00     0.050 C 
HETATM   10  C   UNL     1     -38.120 -51.372  13.527  1.00  0.00     0.050 C 
BRANCH   8  11
HETATM   11  N   UNL     1     -38.970 -49.014  13.514  1.00  0.00     0.104 N 
HETATM   12  C   UNL     1     -37.758 -48.277  13.953  1.00  0.00     0.305 C 
HETATM   13  C   UNL     1     -38.078 -47.044  14.830  1.00  0.00     0.146 C 
HETATM   14  C   UNL     1     -38.728 -45.904  14.049  1.00  0.00     0.041 C 
HETATM   15  O   UNL     1     -38.865 -47.414  15.973  1.00  0.00    -0.378 OA
HETATM   16  C   UNL     1     -40.063 -48.109  15.606  1.00  0.00     0.146 C 
HETATM   17  C   UNL     1     -39.753 -49.344  14.732  1.00  0.00     0.305 C 
HETATM   18  C   UNL     1     -40.762 -48.536  16.892  1.00  0.00     0.041 C 
ENDBRANCH   8  11
ENDBRANCH   7   8
ENDBRANCH   1   7
BRANCH   4  19
HETATM   19  C   UNL     1     -42.569 -47.393   9.535  1.00  0.00     0.051 A 
HETATM   20  C   UNL     1     -42.446 -46.103  10.050  1.00  0.00     0.032 A 
HETATM   21  C   UNL     1     -43.420 -45.143   9.779  1.00  0.00     0.019 A 
HETATM   22  C   UNL     1     -44.505 -45.510   9.006  1.00  0.00     0.088 A 
HETATM   23  N   UNL     1     -44.683 -46.753   8.507  1.00  0.00    -0.373 N 
HETATM   24  C   UNL     1     -43.714 -47.660   8.786  1.00  0.00     0.117 A 
ATOM     25  HN  UNL     1     -45.502 -46.996   7.950  1.00  0.00     0.164 HD
ENDBRANCH   4  19
TORSDOF 4
ENDMDL
MODEL 6
REMARK VINA RESULT:      -5.9      2.704      7.100
REMARK  4 active torsions:
REMARK  status: ('A' for Active; 'I' for Inactive)
REMARK    1  A    between atoms: N_4  and  C_9 
REMARK    2  A    between atoms: C_9  and  C_12 
REMARK    3  A    between atoms: C_12  and  N_13 
REMARK       I    between atoms: N_13  and  C_14 
REMARK       I    between atoms: C_14  and  N_16 
REMARK    4  A    between atoms: N_16  and  C_17 
ROOT
HETATM    1  N   UNL     1     -41.254 -50.232  12.423  1.00  0.00    -0.340 N 
HETATM    2  C   UNL     1     -42.177 -49.312  11.978  1.00  0.00     0.320 C 
HETATM    3  O   UNL     1     -43.211 -49.089  12.597  1.00  0.00    -0.247 OA
HETATM    4  N   UNL     1     -41.750 -48.659  10.846  1.00  0.00    -0.308 N 
HETATM    5  H   UNL     1     -40.697 -50.724  11.738  1.00  0.00     0.164 HD
HETATM    6  H   UNL     1     -40.774 -48.777  10.619  1.00  0.00     0.170 HD
ENDROOT
BRANCH   1   7
HETATM    7  C   UNL     1     -41.507 -50.935  13.671  1.00  0.00     0.165 C 
BRANCH   7   8
HETATM    8  C   UNL     1     -41.052 -52.430  13.654  1.00  0.00     0.168 C 
HETATM    9  C   UNL     1     -39.573 -52.453  14.110  1.00  0.00     0.050 C 
HETATM   10  C   UNL     1     -41.087 -52.881  12.168  1.00  0.00     0.050 C 
BRANCH   8  11
HETATM   11  N   UNL     1     -41.962 -53.296  14.480  1.00  0.00     0.104 N 
HETATM   12  C   UNL     1     -41.309 -54.520  15.010  1.00  0.00     0.305 C 
HETATM   13  C   UNL     1     -42.256 -55.396  15.862  1.00  0.00     0.146 C 
HETATM   14  C   UNL     1     -42.610 -54.765  17.207  1.00  0.00     0.041 C 
HETATM   15  O   UNL     1     -43.435 -55.752  15.123  1.00  0.00    -0.378 OA
HETATM   16  C   UNL     1     -44.120 -54.605  14.607  1.00  0.00     0.146 C 
HETATM   17  C   UNL     1     -43.183 -53.726  13.751  1.00  0.00     0.305 C 
HETATM   18  C   UNL     1     -45.288 -55.105  13.763  1.00  0.00     0.041 C 
ENDBRANCH   8  11
ENDBRANCH   7   8
ENDBRANCH   1   7
BRANCH   4  19
HETATM   19  C   UNL     1     -42.453 -47.625  10.185  1.00  0.00     0.051 A 
HETATM   20  C   UNL     1     -43.148 -47.801   8.989  1.00  0.00     0.032 A 
HETATM   21  C   UNL     1     -43.854 -46.740   8.425  1.00  0.00     0.019 A 
HETATM   22  C   UNL     1     -43.831 -45.519   9.072  1.00  0.00     0.088 A 
HETATM   23  N   UNL     1     -43.151 -45.291  10.217  1.00  0.00    -0.373 N 
HETATM   24  C   UNL     1     -42.480 -46.347  10.741  1.00  0.00     0.117 A 
ATOM     25  HN  UNL     1     -43.144 -44.375  10.664  1.00  0.00     0.164 HD
ENDBRANCH   4  19
TORSDOF 4
ENDMDL
MODEL 7
REMARK VINA RESULT:      -5.8      1.819      3.564
REMARK  4 active torsions:
REMARK  status: ('A' for Active; 'I' for Inactive)
REMARK    1  A    between atoms: N_4  and  C_9 
REMARK    2  A    between atoms: C_9  and  C_12 
REMARK    3  A    between atoms: C_12  and  N_13 
REMARK       I    between atoms: N_13  and  C_14 
REMARK       I    between atoms: C_14  and  N_16 
REMARK    4  A    between atoms: N_16  and  C_17 
ROOT
HETATM    1  N   UNL     1     -43.436 -49.614  12.399  1.00  0.00    -0.340 N 
HETATM    2  C   UNL     1     -43.818 -50.650  13.223  1.00  0.00     0.320 C 
HETATM    3  O   UNL     1     -43.525 -50.664  14.413  1.00  0.00    -0.247 OA
HETATM    4  N   UNL     1     -44.600 -51.570  12.566  1.00  0.00    -0.308 N 
HETATM    5  H   UNL     1     -43.267 -49.813  11.423  1.00  0.00     0.164 HD
HETATM    6  H   UNL     1     -44.956 -51.275  11.669  1.00  0.00     0.170 HD
ENDROOT
BRANCH   1   7
HETATM    7  C   UNL     1     -42.690 -48.501  12.967  1.00  0.00     0.165 C 
BRANCH   7   8
HETATM    8  C   UNL     1     -41.555 -47.965  12.036  1.00  0.00     0.168 C 
HETATM    9  C   UNL     1     -41.558 -46.423  12.169  1.00  0.00     0.050 C 
HETATM   10  C   UNL     1     -41.984 -48.308  10.582  1.00  0.00     0.050 C 
BRANCH   8  11
HETATM   11  N   UNL     1     -40.232 -48.605  12.350  1.00  0.00     0.104 N 
HETATM   12  C   UNL     1     -40.018 -49.906  11.667  1.00  0.00     0.305 C 
HETATM   13  C   UNL     1     -38.649 -50.548  11.995  1.00  0.00     0.146 C 
HETATM   14  C   UNL     1     -37.471 -49.803  11.371  1.00  0.00     0.041 C 
HETATM   15  O   UNL     1     -38.479 -50.707  13.412  1.00  0.00    -0.378 OA
HETATM   16  C   UNL     1     -38.653 -49.474  14.121  1.00  0.00     0.146 C 
HETATM   17  C   UNL     1     -40.018 -48.826  13.803  1.00  0.00     0.305 C 
HETATM   18  C   UNL     1     -38.550 -49.779  15.612  1.00  0.00     0.041 C 
ENDBRANCH   8  11
ENDBRANCH   7   8
ENDBRANCH   1   7
BRANCH   4  19
HETATM   19  C   UNL     1     -45.186 -52.713  13.157  1.00  0.00     0.051 A 
HETATM   20  C   UNL     1     -44.590 -53.973  13.166  1.00  0.00     0.032 A 
HETATM   21  C   UNL     1     -45.214 -55.041  13.810  1.00  0.00     0.019 A 
HETATM   22  C   UNL     1     -46.434 -54.817  14.418  1.00  0.00     0.088 A 
HETATM   23  N   UNL     1     -47.065 -53.622  14.414  1.00  0.00    -0.373 N 
HETATM   24  C   UNL     1     -46.427 -52.605  13.783  1.00  0.00     0.117 A 
ATOM     25  HN  UNL     1     -47.972 -53.492  14.861  1.00  0.00     0.164 HD
ENDBRANCH   4  19
TORSDOF 4
ENDMDL
MODEL 8
REMARK VINA RESULT:      -5.8      2.217      6.553
REMARK  4 active torsions:
REMARK  status: ('A' for Active; 'I' for Inactive)
REMARK    1  A    between atoms: N_4  and  C_9 
REMARK    2  A    between atoms: C_9  and  C_12 
REMARK    3  A    between atoms: C_12  and  N_13 
REMARK       I    between atoms: N_13  and  C_14 
REMARK       I    between atoms: C_14  and  N_16 
REMARK    4  A    between atoms: N_16  and  C_17 
ROOT
HETATM    1  N   UNL     1     -41.977 -51.292  11.898  1.00  0.00    -0.340 N 
HETATM    2  C   UNL     1     -41.620 -49.962  11.904  1.00  0.00     0.320 C 
HETATM    3  O   UNL     1     -40.504 -49.599  12.257  1.00  0.00    -0.247 OA
HETATM    4  N   UNL     1     -42.618 -49.158  11.406  1.00  0.00    -0.308 N 
HETATM    5  H   UNL     1     -42.944 -51.531  12.063  1.00  0.00     0.164 HD
HETATM    6  H   UNL     1     -43.363 -49.639  10.925  1.00  0.00     0.170 HD
ENDROOT
BRANCH   1   7
HETATM    7  C   UNL     1     -40.993 -52.287  12.297  1.00  0.00     0.165 C 
BRANCH   7   8
HETATM    8  C   UNL     1     -41.251 -52.894  13.714  1.00  0.00     0.168 C 
HETATM    9  C   UNL     1     -40.313 -52.153  14.696  1.00  0.00     0.050 C 
HETATM   10  C   UNL     1     -40.780 -54.374  13.647  1.00  0.00     0.050 C 
BRANCH   8  11
HETATM   11  N   UNL     1     -42.705 -52.830  14.088  1.00  0.00     0.104 N 
HETATM   12  C   UNL     1     -42.943 -52.562  15.528  1.00  0.00     0.305 C 
HETATM   13  C   UNL     1     -44.444 -52.492  15.895  1.00  0.00     0.146 C 
HETATM   14  C   UNL     1     -45.140 -51.248  15.347  1.00  0.00     0.041 C 
HETATM   15  O   UNL     1     -45.129 -53.692  15.502  1.00  0.00    -0.378 OA
HETATM   16  C   UNL     1     -44.952 -53.988  14.112  1.00  0.00     0.146 C 
HETATM   17  C   UNL     1     -43.456 -54.063  13.736  1.00  0.00     0.305 C 
HETATM   18  C   UNL     1     -45.632 -55.324  13.833  1.00  0.00     0.041 C 
ENDBRANCH   8  11
ENDBRANCH   7   8
ENDBRANCH   1   7
BRANCH   4  19
HETATM   19  C   UNL     1     -42.530 -47.757  11.238  1.00  0.00     0.051 A 
HETATM   20  C   UNL     1     -42.668 -46.840  12.279  1.00  0.00     0.032 A 
HETATM   21  C   UNL     1     -42.522 -45.475  12.036  1.00  0.00     0.019 A 
HETATM   22  C   UNL     1     -42.256 -45.063  10.744  1.00  0.00     0.088 A 
HETATM   23  N   UNL     1     -42.141 -45.910   9.697  1.00  0.00    -0.373 N 
HETATM   24  C   UNL     1     -42.283 -47.231   9.971  1.00  0.00     0.117 A 
ATOM     25  HN  UNL     1     -41.956 -45.574   8.752  1.00  0.00     0.164 HD
ENDBRANCH   4  19
TORSDOF 4
ENDMDL
MODEL 9
REMARK VINA RESULT:      -5.7      1.981      4.002
REMARK  4 active torsions:
REMARK  status: ('A' for Active; 'I' for Inactive)
REMARK    1  A    between atoms: N_4  and  C_9 
REMARK    2  A    between atoms: C_9  and  C_12 
REMARK    3  A    between atoms: C_12  and  N_13 
REMARK       I    between atoms: N_13  and  C_14 
REMARK       I    between atoms: C_14  and  N_16 
REMARK    4  A    between atoms: N_16  and  C_17 
ROOT
HETATM    1  N   UNL     1     -42.884 -49.582  12.265  1.00  0.00    -0.340 N 
HETATM    2  C   UNL     1     -43.452 -50.517  13.102  1.00  0.00     0.320 C 
HETATM    3  O   UNL     1     -43.742 -50.247  14.261  1.00  0.00    -0.247 OA
HETATM    4  N   UNL     1     -43.705 -51.703  12.455  1.00  0.00    -0.308 N 
HETATM    5  H   UNL     1     -42.257 -49.903  11.540  1.00  0.00     0.164 HD
HETATM    6  H   UNL     1     -43.644 -51.669  11.448  1.00  0.00     0.170 HD
ENDROOT
BRANCH   1   7
HETATM    7  C   UNL     1     -42.649 -48.238  12.768  1.00  0.00     0.165 C 
BRANCH   7   8
HETATM    8  C   UNL     1     -41.157 -47.957  13.138  1.00  0.00     0.168 C 
HETATM    9  C   UNL     1     -41.156 -47.349  14.561  1.00  0.00     0.050 C 
HETATM   10  C   UNL     1     -40.664 -46.854  12.161  1.00  0.00     0.050 C 
BRANCH   8  11
HETATM   11  N   UNL     1     -40.309 -49.190  12.998  1.00  0.00     0.104 N 
HETATM   12  C   UNL     1     -39.706 -49.653  14.273  1.00  0.00     0.305 C 
HETATM   13  C   UNL     1     -38.843 -50.926  14.113  1.00  0.00     0.146 C 
HETATM   14  C   UNL     1     -39.667 -52.178  13.820  1.00  0.00     0.041 C 
HETATM   15  O   UNL     1     -37.815 -50.733  13.128  1.00  0.00    -0.378 OA
HETATM   16  C   UNL     1     -38.344 -50.307  11.867  1.00  0.00     0.146 C 
HETATM   17  C   UNL     1     -39.205 -49.034  12.016  1.00  0.00     0.305 C 
HETATM   18  C   UNL     1     -37.164 -50.038  10.938  1.00  0.00     0.041 C 
ENDBRANCH   8  11
ENDBRANCH   7   8
ENDBRANCH   1   7
BRANCH   4  19
HETATM   19  C   UNL     1     -44.329 -52.832  13.033  1.00  0.00     0.051 A 
HETATM   20  C   UNL     1     -43.634 -53.884  13.629  1.00  0.00     0.032 A 
HETATM   21  C   UNL     1     -44.327 -54.940  14.218  1.00  0.00     0.019 A 
HETATM   22  C   UNL     1     -45.708 -54.921  14.179  1.00  0.00     0.088 A 
HETATM   23  N   UNL     1     -46.426 -53.939  13.591  1.00  0.00    -0.373 N 
HETATM   24  C   UNL     1     -45.720 -52.925  13.033  1.00  0.00     0.117 A 
ATOM     25  HN  UNL     1     -47.446 -53.960  13.569  1.00  0.00     0.164 HD
ENDBRANCH   4  19
TORSDOF 4
ENDMDL
