MODEL 1
REMARK VINA RESULT:      -5.4      0.000      0.000
REMARK  6 active torsions:
REMARK  status: ('A' for Active; 'I' for Inactive)
REMARK    1  A    between atoms: O_1  and  C_2 
REMARK    2  A    between atoms: C_2  and  C_3 
REMARK    3  A    between atoms: C_2  and  C_11 
REMARK    4  A    between atoms: C_3  and  O_4 
REMARK    5  A    between atoms: O_4  and  C_5 
REMARK    6  A    between atoms: C_11  and  N_12 
ROOT
HETATM    1  C   UNL     1     -42.918 -55.239  15.488  1.00  0.00     0.160 C 
ENDROOT
BRANCH   1   2
HETATM    2  O   UNL     1     -42.516 -56.324  16.337  1.00  0.00    -0.392 OA
HETATM    3  H   UNL     1     -42.958 -57.132  16.020  1.00  0.00     0.210 HD
ENDBRANCH   1   2
BRANCH   1   4
HETATM    4  C   UNL     1     -44.079 -54.515  16.184  1.00  0.00     0.209 C 
BRANCH   4   5
HETATM    5  O   UNL     1     -45.319 -54.701  15.503  1.00  0.00    -0.349 OA
BRANCH   5   6
HETATM    6  C   UNL     1     -45.714 -53.622  14.747  1.00  0.00     0.068 A 
HETATM    7  C   UNL     1     -45.524 -53.736  13.369  1.00  0.00     0.037 A 
HETATM    8  C   UNL     1     -45.885 -52.688  12.516  1.00  0.00     0.003 A 
HETATM    9  C   UNL     1     -46.455 -51.528  13.035  1.00  0.00     0.000 A 
HETATM   10  C   UNL     1     -46.672 -51.418  14.406  1.00  0.00     0.003 A 
HETATM   11  C   UNL     1     -46.308 -52.463  15.258  1.00  0.00     0.037 A 
ENDBRANCH   5   6
ENDBRANCH   4   5
ENDBRANCH   1   4
BRANCH   1  12
HETATM   12  C   UNL     1     -41.723 -54.315  15.243  1.00  0.00     0.164 C 
BRANCH  12  13
HETATM   13  N   UNL     1     -41.924 -53.427  14.111  1.00  0.00    -0.339 N 
HETATM   14  C   UNL     1     -41.628 -53.737  12.812  1.00  0.00     0.184 A 
HETATM   15  N   UNL     1     -41.806 -52.714  12.008  1.00  0.00    -0.350 N 
HETATM   16  C   UNL     1     -42.285 -51.710  12.813  1.00  0.00     0.060 A 
ATOM     17  HN  UNL     1     -41.628 -52.673  11.005  1.00  0.00     0.166 HD
HETATM   18  C   UNL     1     -42.655 -50.400  12.475  1.00  0.00     0.032 A 
HETATM   19  C   UNL     1     -42.392 -52.133  14.138  1.00  0.00     0.062 A 
HETATM   20  C   UNL     1     -43.155 -49.559  13.475  1.00  0.00     0.002 A 
HETATM   21  C   UNL     1     -43.274 -50.010  14.790  1.00  0.00     0.002 A 
HETATM   22  C   UNL     1     -42.886 -51.307  15.154  1.00  0.00     0.032 A 
ENDBRANCH  12  13
ENDBRANCH   1  12
TORSDOF 6
ENDMDL
MODEL 2
REMARK VINA RESULT:      -5.3      2.452      4.335
REMARK  6 active torsions:
REMARK  status: ('A' for Active; 'I' for Inactive)
REMARK    1  A    between atoms: O_1  and  C_2 
REMARK    2  A    between atoms: C_2  and  C_3 
REMARK    3  A    between atoms: C_2  and  C_11 
REMARK    4  A    between atoms: C_3  and  O_4 
REMARK    5  A    between atoms: O_4  and  C_5 
REMARK    6  A    between atoms: C_11  and  N_12 
ROOT
HETATM    1  C   UNL     1     -41.816 -51.418  12.263  1.00  0.00     0.160 C 
ENDROOT
BRANCH   1   2
HETATM    2  O   UNL     1     -40.943 -51.196  11.145  1.00  0.00    -0.392 OA
HETATM    3  H   UNL     1     -40.824 -50.234  11.044  1.00  0.00     0.210 HD
ENDBRANCH   1   2
BRANCH   1   4
HETATM    4  C   UNL     1     -41.095 -52.368  13.229  1.00  0.00     0.209 C 
BRANCH   4   5
HETATM    5  O   UNL     1     -41.484 -53.728  13.043  1.00  0.00    -0.349 OA
BRANCH   5   6
HETATM    6  C   UNL     1     -42.704 -54.045  13.593  1.00  0.00     0.068 A 
HETATM    7  C   UNL     1     -42.776 -54.010  14.986  1.00  0.00     0.037 A 
HETATM    8  C   UNL     1     -43.972 -54.326  15.640  1.00  0.00     0.003 A 
HETATM    9  C   UNL     1     -45.106 -54.660  14.904  1.00  0.00     0.000 A 
HETATM   10  C   UNL     1     -45.048 -54.670  13.513  1.00  0.00     0.003 A 
HETATM   11  C   UNL     1     -43.854 -54.359  12.859  1.00  0.00     0.037 A 
ENDBRANCH   5   6
ENDBRANCH   4   5
ENDBRANCH   1   4
BRANCH   1  12
HETATM   12  C   UNL     1     -42.156 -50.076  12.916  1.00  0.00     0.164 C 
BRANCH  12  13
HETATM   13  N   UNL     1     -43.012 -50.221  14.080  1.00  0.00    -0.339 N 
HETATM   14  C   UNL     1     -42.624 -49.983  15.370  1.00  0.00     0.184 A 
HETATM   15  N   UNL     1     -43.563 -50.297  16.233  1.00  0.00    -0.350 N 
HETATM   16  C   UNL     1     -44.625 -50.710  15.466  1.00  0.00     0.060 A 
ATOM     17  HN  UNL     1     -43.515 -50.245  17.250  1.00  0.00     0.166 HD
HETATM   18  C   UNL     1     -45.894 -51.150  15.870  1.00  0.00     0.032 A 
HETATM   19  C   UNL     1     -44.319 -50.653  14.107  1.00  0.00     0.062 A 
HETATM   20  C   UNL     1     -46.835 -51.490  14.892  1.00  0.00     0.002 A 
HETATM   21  C   UNL     1     -46.514 -51.404  13.536  1.00  0.00     0.002 A 
HETATM   22  C   UNL     1     -45.244 -50.992  13.112  1.00  0.00     0.032 A 
ENDBRANCH  12  13
ENDBRANCH   1  12
TORSDOF 6
ENDMDL
MODEL 3
REMARK VINA RESULT:      -5.3      2.803      3.725
REMARK  6 active torsions:
REMARK  status: ('A' for Active; 'I' for Inactive)
REMARK    1  A    between atoms: O_1  and  C_2 
REMARK    2  A    between atoms: C_2  and  C_3 
REMARK    3  A    between atoms: C_2  and  C_11 
REMARK    4  A    between atoms: C_3  and  O_4 
REMARK    5  A    between atoms: O_4  and  C_5 
REMARK    6  A    between atoms: C_11  and  N_12 
ROOT
HETATM    1  C   UNL     1     -41.415 -52.535  12.096  1.00  0.00     0.160 C 
ENDROOT
BRANCH   1   2
HETATM    2  O   UNL     1     -40.465 -53.447  11.523  1.00  0.00    -0.392 OA
HETATM    3  H   UNL     1     -40.954 -54.228  11.205  1.00  0.00     0.210 HD
ENDBRANCH   1   2
BRANCH   1   4
HETATM    4  C   UNL     1     -42.416 -53.366  12.911  1.00  0.00     0.209 C 
BRANCH   4   5
HETATM    5  O   UNL     1     -43.720 -53.362  12.332  1.00  0.00    -0.349 OA
BRANCH   5   6
HETATM    6  C   UNL     1     -44.659 -52.675  13.064  1.00  0.00     0.068 A 
HETATM    7  C   UNL     1     -44.279 -52.300  14.353  1.00  0.00     0.037 A 
HETATM    8  C   UNL     1     -45.169 -51.605  15.180  1.00  0.00     0.003 A 
HETATM    9  C   UNL     1     -46.437 -51.265  14.714  1.00  0.00     0.000 A 
HETATM   10  C   UNL     1     -46.813 -51.612  13.419  1.00  0.00     0.003 A 
HETATM   11  C   UNL     1     -45.927 -52.309  12.595  1.00  0.00     0.037 A 
ENDBRANCH   5   6
ENDBRANCH   4   5
ENDBRANCH   1   4
BRANCH   1  12
HETATM   12  C   UNL     1     -40.677 -51.508  12.958  1.00  0.00     0.164 C 
BRANCH  12  13
HETATM   13  N   UNL     1     -40.419 -50.266  12.251  1.00  0.00    -0.339 N 
HETATM   14  C   UNL     1     -39.197 -49.876  11.776  1.00  0.00     0.184 A 
HETATM   15  N   UNL     1     -39.227 -48.662  11.276  1.00  0.00    -0.350 N 
HETATM   16  C   UNL     1     -40.537 -48.266  11.388  1.00  0.00     0.060 A 
ATOM     17  HN  UNL     1     -38.448 -48.130  10.889  1.00  0.00     0.166 HD
HETATM   18  C   UNL     1     -41.135 -47.057  11.000  1.00  0.00     0.032 A 
HETATM   19  C   UNL     1     -41.317 -49.260  11.976  1.00  0.00     0.062 A 
HETATM   20  C   UNL     1     -42.512 -46.895  11.186  1.00  0.00     0.002 A 
HETATM   21  C   UNL     1     -43.278 -47.913  11.757  1.00  0.00     0.002 A 
HETATM   22  C   UNL     1     -42.696 -49.117  12.175  1.00  0.00     0.032 A 
ENDBRANCH  12  13
ENDBRANCH   1  12
TORSDOF 6
ENDMDL
MODEL 4
REMARK VINA RESULT:      -5.2      2.504      4.407
REMARK  6 active torsions:
REMARK  status: ('A' for Active; 'I' for Inactive)
REMARK    1  A    between atoms: O_1  and  C_2 
REMARK    2  A    between atoms: C_2  and  C_3 
REMARK    3  A    between atoms: C_2  and  C_11 
REMARK    4  A    between atoms: C_3  and  O_4 
REMARK    5  A    between atoms: O_4  and  C_5 
REMARK    6  A    between atoms: C_11  and  N_12 
ROOT
HETATM    1  C   UNL     1     -41.070 -50.947  12.148  1.00  0.00     0.160 C 
ENDROOT
BRANCH   1   2
HETATM    2  O   UNL     1     -40.703 -50.439  10.856  1.00  0.00    -0.392 OA
HETATM    3  H   UNL     1     -39.745 -50.261  10.865  1.00  0.00     0.210 HD
ENDBRANCH   1   2
BRANCH   1   4
HETATM    4  C   UNL     1     -42.398 -50.284  12.542  1.00  0.00     0.209 C 
BRANCH   4   5
HETATM    5  O   UNL     1     -42.739 -50.527  13.906  1.00  0.00    -0.349 OA
BRANCH   5   6
HETATM    6  C   UNL     1     -44.060 -50.852  14.106  1.00  0.00     0.068 A 
HETATM    7  C   UNL     1     -44.525 -50.752  15.418  1.00  0.00     0.037 A 
HETATM    8  C   UNL     1     -45.852 -51.071  15.725  1.00  0.00     0.003 A 
HETATM    9  C   UNL     1     -46.726 -51.474  14.718  1.00  0.00     0.000 A 
HETATM   10  C   UNL     1     -46.276 -51.550  13.402  1.00  0.00     0.003 A 
HETATM   11  C   UNL     1     -44.950 -51.236  13.096  1.00  0.00     0.037 A 
ENDBRANCH   5   6
ENDBRANCH   4   5
ENDBRANCH   1   4
BRANCH   1  12
HETATM   12  C   UNL     1     -41.181 -52.472  12.082  1.00  0.00     0.164 C 
BRANCH  12  13
HETATM   13  N   UNL     1     -40.781 -53.116  13.321  1.00  0.00    -0.339 N 
HETATM   14  C   UNL     1     -39.531 -53.044  13.870  1.00  0.00     0.184 A 
HETATM   15  N   UNL     1     -39.414 -53.808  14.933  1.00  0.00    -0.350 N 
HETATM   16  C   UNL     1     -40.658 -54.363  15.107  1.00  0.00     0.060 A 
ATOM     17  HN  UNL     1     -38.582 -53.957  15.503  1.00  0.00     0.166 HD
HETATM   18  C   UNL     1     -41.103 -55.251  16.098  1.00  0.00     0.032 A 
HETATM   19  C   UNL     1     -41.546 -53.930  14.123  1.00  0.00     0.062 A 
HETATM   20  C   UNL     1     -42.442 -55.656  16.090  1.00  0.00     0.002 A 
HETATM   21  C   UNL     1     -43.320 -55.193  15.108  1.00  0.00     0.002 A 
HETATM   22  C   UNL     1     -42.889 -54.326  14.095  1.00  0.00     0.032 A 
ENDBRANCH  12  13
ENDBRANCH   1  12
TORSDOF 6
ENDMDL
MODEL 5
REMARK VINA RESULT:      -5.2      1.962      3.433
REMARK  6 active torsions:
REMARK  status: ('A' for Active; 'I' for Inactive)
REMARK    1  A    between atoms: O_1  and  C_2 
REMARK    2  A    between atoms: C_2  and  C_3 
REMARK    3  A    between atoms: C_2  and  C_11 
REMARK    4  A    between atoms: C_3  and  O_4 
REMARK    5  A    between atoms: O_4  and  C_5 
REMARK    6  A    between atoms: C_11  and  N_12 
ROOT
HETATM    1  C   UNL     1     -46.141 -54.398  14.559  1.00  0.00     0.160 C 
ENDROOT
BRANCH   1   2
HETATM    2  O   UNL     1     -47.234 -55.321  14.685  1.00  0.00    -0.392 OA
HETATM    3  H   UNL     1     -47.996 -54.834  15.048  1.00  0.00     0.210 HD
ENDBRANCH   1   2
BRANCH   1   4
HETATM    4  C   UNL     1     -45.857 -53.826  15.954  1.00  0.00     0.209 C 
BRANCH   4   5
HETATM    5  O   UNL     1     -45.945 -52.402  15.984  1.00  0.00    -0.349 OA
BRANCH   5   6
HETATM    6  C   UNL     1     -44.749 -51.760  15.763  1.00  0.00     0.068 A 
HETATM    7  C   UNL     1     -44.732 -50.837  14.717  1.00  0.00     0.037 A 
HETATM    8  C   UNL     1     -43.560 -50.139  14.408  1.00  0.00     0.003 A 
HETATM    9  C   UNL     1     -42.404 -50.347  15.155  1.00  0.00     0.000 A 
HETATM   10  C   UNL     1     -42.421 -51.247  16.218  1.00  0.00     0.003 A 
HETATM   11  C   UNL     1     -43.590 -51.947  16.524  1.00  0.00     0.037 A 
ENDBRANCH   5   6
ENDBRANCH   4   5
ENDBRANCH   1   4
BRANCH   1  12
HETATM   12  C   UNL     1     -44.928 -55.125  13.973  1.00  0.00     0.164 C 
BRANCH  12  13
HETATM   13  N   UNL     1     -43.978 -54.219  13.352  1.00  0.00    -0.339 N 
HETATM   14  C   UNL     1     -44.257 -53.399  12.293  1.00  0.00     0.184 A 
HETATM   15  N   UNL     1     -43.188 -52.768  11.863  1.00  0.00    -0.350 N 
HETATM   16  C   UNL     1     -42.182 -53.158  12.711  1.00  0.00     0.060 A 
ATOM     17  HN  UNL     1     -43.121 -52.128  11.072  1.00  0.00     0.166 HD
HETATM   18  C   UNL     1     -40.831 -52.781  12.719  1.00  0.00     0.032 A 
HETATM   19  C   UNL     1     -42.650 -54.053  13.673  1.00  0.00     0.062 A 
HETATM   20  C   UNL     1     -39.992 -53.291  13.716  1.00  0.00     0.002 A 
HETATM   21  C   UNL     1     -40.487 -54.168  14.682  1.00  0.00     0.002 A 
HETATM   22  C   UNL     1     -41.827 -54.578  14.677  1.00  0.00     0.032 A 
ENDBRANCH  12  13
ENDBRANCH   1  12
TORSDOF 6
ENDMDL
MODEL 6
REMARK VINA RESULT:      -5.0      3.249      5.769
REMARK  6 active torsions:
REMARK  status: ('A' for Active; 'I' for Inactive)
REMARK    1  A    between atoms: O_1  and  C_2 
REMARK    2  A    between atoms: C_2  and  C_3 
REMARK    3  A    between atoms: C_2  and  C_11 
REMARK    4  A    between atoms: C_3  and  O_4 
REMARK    5  A    between atoms: O_4  and  C_5 
REMARK    6  A    between atoms: C_11  and  N_12 
ROOT
HETATM    1  C   UNL     1     -40.953 -53.292  12.738  1.00  0.00     0.160 C 
ENDROOT
BRANCH   1   2
HETATM    2  O   UNL     1     -40.508 -53.425  11.379  1.00  0.00    -0.392 OA
HETATM    3  H   UNL     1     -40.586 -54.364  11.130  1.00  0.00     0.210 HD
ENDBRANCH   1   2
BRANCH   1   4
HETATM    4  C   UNL     1     -39.856 -52.544  13.510  1.00  0.00     0.209 C 
BRANCH   4   5
HETATM    5  O   UNL     1     -38.935 -51.887  12.641  1.00  0.00    -0.349 OA
BRANCH   5   6
HETATM    6  C   UNL     1     -38.901 -50.520  12.788  1.00  0.00     0.068 A 
HETATM    7  C   UNL     1     -39.801 -49.796  12.006  1.00  0.00     0.037 A 
HETATM    8  C   UNL     1     -39.837 -48.399  12.077  1.00  0.00     0.003 A 
HETATM    9  C   UNL     1     -38.984 -47.721  12.944  1.00  0.00     0.000 A 
HETATM   10  C   UNL     1     -38.101 -48.438  13.747  1.00  0.00     0.003 A 
HETATM   11  C   UNL     1     -38.063 -49.832  13.673  1.00  0.00     0.037 A 
ENDBRANCH   5   6
ENDBRANCH   4   5
ENDBRANCH   1   4
BRANCH   1  12
HETATM   12  C   UNL     1     -42.290 -52.547  12.765  1.00  0.00     0.164 C 
BRANCH  12  13
HETATM   13  N   UNL     1     -43.275 -53.195  13.613  1.00  0.00    -0.339 N 
HETATM   14  C   UNL     1     -43.134 -54.439  14.163  1.00  0.00     0.184 A 
HETATM   15  N   UNL     1     -44.220 -54.825  14.795  1.00  0.00    -0.350 N 
HETATM   16  C   UNL     1     -45.084 -53.764  14.691  1.00  0.00     0.060 A 
ATOM     17  HN  UNL     1     -44.384 -55.716  15.261  1.00  0.00     0.166 HD
HETATM   18  C   UNL     1     -46.387 -53.627  15.195  1.00  0.00     0.032 A 
HETATM   19  C   UNL     1     -44.512 -52.714  13.973  1.00  0.00     0.062 A 
HETATM   20  C   UNL     1     -47.068 -52.422  14.989  1.00  0.00     0.002 A 
HETATM   21  C   UNL     1     -46.468 -51.377  14.286  1.00  0.00     0.002 A 
HETATM   22  C   UNL     1     -45.178 -51.502  13.753  1.00  0.00     0.032 A 
ENDBRANCH  12  13
ENDBRANCH   1  12
TORSDOF 6
ENDMDL
MODEL 7
REMARK VINA RESULT:      -5.0      2.141      3.345
REMARK  6 active torsions:
REMARK  status: ('A' for Active; 'I' for Inactive)
REMARK    1  A    between atoms: O_1  and  C_2 
REMARK    2  A    between atoms: C_2  and  C_3 
REMARK    3  A    between atoms: C_2  and  C_11 
REMARK    4  A    between atoms: C_3  and  O_4 
REMARK    5  A    between atoms: O_4  and  C_5 
REMARK    6  A    between atoms: C_11  and  N_12 
ROOT
HETATM    1  C   UNL     1     -42.705 -52.573  12.593  1.00  0.00     0.160 C 
ENDROOT
BRANCH   1   2
HETATM    2  O   UNL     1     -41.988 -52.476  11.353  1.00  0.00    -0.392 OA
HETATM    3  H   UNL     1     -42.602 -52.131  10.679  1.00  0.00     0.210 HD
ENDBRANCH   1   2
BRANCH   1   4
HETATM    4  C   UNL     1     -43.608 -53.811  12.509  1.00  0.00     0.209 C 
BRANCH   4   5
HETATM    5  O   UNL     1     -44.959 -53.476  12.198  1.00  0.00    -0.349 OA
BRANCH   5   6
HETATM    6  C   UNL     1     -45.676 -52.983  13.262  1.00  0.00     0.068 A 
HETATM    7  C   UNL     1     -45.898 -53.870  14.316  1.00  0.00     0.037 A 
HETATM    8  C   UNL     1     -46.625 -53.464  15.441  1.00  0.00     0.003 A 
HETATM    9  C   UNL     1     -47.119 -52.164  15.524  1.00  0.00     0.000 A 
HETATM   10  C   UNL     1     -46.878 -51.266  14.488  1.00  0.00     0.003 A 
HETATM   11  C   UNL     1     -46.156 -51.672  13.364  1.00  0.00     0.037 A 
ENDBRANCH   5   6
ENDBRANCH   4   5
ENDBRANCH   1   4
BRANCH   1  12
HETATM   12  C   UNL     1     -41.707 -52.661  13.751  1.00  0.00     0.164 C 
BRANCH  12  13
HETATM   13  N   UNL     1     -42.356 -52.679  15.050  1.00  0.00    -0.339 N 
HETATM   14  C   UNL     1     -42.429 -53.770  15.871  1.00  0.00     0.184 A 
HETATM   15  N   UNL     1     -43.166 -53.538  16.934  1.00  0.00    -0.350 N 
HETATM   16  C   UNL     1     -43.547 -52.224  16.821  1.00  0.00     0.060 A 
ATOM     17  HN  UNL     1     -43.403 -54.191  17.681  1.00  0.00     0.166 HD
HETATM   18  C   UNL     1     -44.336 -51.450  17.685  1.00  0.00     0.032 A 
HETATM   19  C   UNL     1     -43.036 -51.649  15.658  1.00  0.00     0.062 A 
HETATM   20  C   UNL     1     -44.562 -50.106  17.372  1.00  0.00     0.002 A 
HETATM   21  C   UNL     1     -44.022 -49.544  16.214  1.00  0.00     0.002 A 
HETATM   22  C   UNL     1     -43.253 -50.306  15.324  1.00  0.00     0.032 A 
ENDBRANCH  12  13
ENDBRANCH   1  12
TORSDOF 6
ENDMDL
MODEL 8
REMARK VINA RESULT:      -4.9      2.304      4.369
REMARK  6 active torsions:
REMARK  status: ('A' for Active; 'I' for Inactive)
REMARK    1  A    between atoms: O_1  and  C_2 
REMARK    2  A    between atoms: C_2  and  C_3 
REMARK    3  A    between atoms: C_2  and  C_11 
REMARK    4  A    between atoms: C_3  and  O_4 
REMARK    5  A    between atoms: O_4  and  C_5 
REMARK    6  A    between atoms: C_11  and  N_12 
ROOT
HETATM    1  C   UNL     1     -40.756 -53.571  13.287  1.00  0.00     0.160 C 
ENDROOT
BRANCH   1   2
HETATM    2  O   UNL     1     -39.828 -54.598  12.906  1.00  0.00    -0.392 OA
HETATM    3  H   UNL     1     -40.181 -55.451  13.218  1.00  0.00     0.210 HD
ENDBRANCH   1   2
BRANCH   1   4
HETATM    4  C   UNL     1     -40.859 -52.585  12.115  1.00  0.00     0.209 C 
BRANCH   4   5
HETATM    5  O   UNL     1     -40.312 -51.306  12.434  1.00  0.00    -0.349 OA
BRANCH   5   6
HETATM    6  C   UNL     1     -41.177 -50.476  13.108  1.00  0.00     0.068 A 
HETATM    7  C   UNL     1     -42.319 -50.082  12.409  1.00  0.00     0.037 A 
HETATM    8  C   UNL     1     -43.255 -49.231  13.006  1.00  0.00     0.003 A 
HETATM    9  C   UNL     1     -43.062 -48.784  14.311  1.00  0.00     0.000 A 
HETATM   10  C   UNL     1     -41.939 -49.194  15.023  1.00  0.00     0.003 A 
HETATM   11  C   UNL     1     -41.002 -50.041  14.426  1.00  0.00     0.037 A 
ENDBRANCH   5   6
ENDBRANCH   4   5
ENDBRANCH   1   4
BRANCH   1  12
HETATM   12  C   UNL     1     -42.105 -54.208  13.629  1.00  0.00     0.164 C 
BRANCH  12  13
HETATM   13  N   UNL     1     -42.970 -53.317  14.383  1.00  0.00    -0.339 N 
HETATM   14  C   UNL     1     -42.747 -52.918  15.672  1.00  0.00     0.184 A 
HETATM   15  N   UNL     1     -43.741 -52.202  16.145  1.00  0.00    -0.350 N 
HETATM   16  C   UNL     1     -44.625 -52.089  15.101  1.00  0.00     0.060 A 
ATOM     17  HN  UNL     1     -43.836 -51.813  17.083  1.00  0.00     0.166 HD
HETATM   18  C   UNL     1     -45.856 -51.419  15.047  1.00  0.00     0.032 A 
HETATM   19  C   UNL     1     -44.159 -52.760  13.970  1.00  0.00     0.062 A 
HETATM   20  C   UNL     1     -46.572 -51.416  13.845  1.00  0.00     0.002 A 
HETATM   21  C   UNL     1     -46.076 -52.075  12.719  1.00  0.00     0.002 A 
HETATM   22  C   UNL     1     -44.861 -52.772  12.759  1.00  0.00     0.032 A 
ENDBRANCH  12  13
ENDBRANCH   1  12
TORSDOF 6
ENDMDL
MODEL 9
REMARK VINA RESULT:      -4.9      3.251      4.013
REMARK  6 active torsions:
REMARK  status: ('A' for Active; 'I' for Inactive)
REMARK    1  A    between atoms: O_1  and  C_2 
REMARK    2  A    between atoms: C_2  and  C_3 
REMARK    3  A    between atoms: C_2  and  C_11 
REMARK    4  A    between atoms: C_3  and  O_4 
REMARK    5  A    between atoms: O_4  and  C_5 
REMARK    6  A    between atoms: C_11  and  N_12 
ROOT
HETATM    1  C   UNL     1     -41.300 -52.316  11.957  1.00  0.00     0.160 C 
ENDROOT
BRANCH   1   2
HETATM    2  O   UNL     1     -40.595 -53.437  11.402  1.00  0.00    -0.392 OA
HETATM    3  H   UNL     1     -41.098 -54.243  11.617  1.00  0.00     0.210 HD
ENDBRANCH   1   2
BRANCH   1   4
HETATM    4  C   UNL     1     -42.408 -52.871  12.862  1.00  0.00     0.209 C 
BRANCH   4   5
HETATM    5  O   UNL     1     -43.668 -52.940  12.196  1.00  0.00    -0.349 OA
BRANCH   5   6
HETATM    6  C   UNL     1     -44.753 -52.765  13.024  1.00  0.00     0.068 A 
HETATM    7  C   UNL     1     -45.210 -53.905  13.686  1.00  0.00     0.037 A 
HETATM    8  C   UNL     1     -46.313 -53.832  14.543  1.00  0.00     0.003 A 
HETATM    9  C   UNL     1     -46.954 -52.613  14.755  1.00  0.00     0.000 A 
HETATM   10  C   UNL     1     -46.487 -51.466  14.119  1.00  0.00     0.003 A 
HETATM   11  C   UNL     1     -45.388 -51.540  13.260  1.00  0.00     0.037 A 
ENDBRANCH   5   6
ENDBRANCH   4   5
ENDBRANCH   1   4
BRANCH   1  12
HETATM   12  C   UNL     1     -40.318 -51.426  12.722  1.00  0.00     0.164 C 
BRANCH  12  13
HETATM   13  N   UNL     1     -40.349 -50.044  12.275  1.00  0.00    -0.339 N 
HETATM   14  C   UNL     1     -40.797 -49.630  11.051  1.00  0.00     0.184 A 
HETATM   15  N   UNL     1     -40.610 -48.342  10.868  1.00  0.00    -0.350 N 
HETATM   16  C   UNL     1     -40.062 -47.894  12.044  1.00  0.00     0.060 A 
ATOM     17  HN  UNL     1     -40.826 -47.795  10.036  1.00  0.00     0.166 HD
HETATM   18  C   UNL     1     -39.673 -46.595  12.405  1.00  0.00     0.032 A 
HETATM   19  C   UNL     1     -39.905 -48.936  12.958  1.00  0.00     0.062 A 
HETATM   20  C   UNL     1     -39.164 -46.374  13.689  1.00  0.00     0.002 A 
HETATM   21  C   UNL     1     -39.037 -47.427  14.595  1.00  0.00     0.002 A 
HETATM   22  C   UNL     1     -39.396 -48.736  14.247  1.00  0.00     0.032 A 
ENDBRANCH  12  13
ENDBRANCH   1  12
TORSDOF 6
ENDMDL
