MODEL 1
REMARK VINA RESULT:      -6.4      0.000      0.000
REMARK  4 active torsions:
REMARK  status: ('A' for Active; 'I' for Inactive)
REMARK    1  A    between atoms: N_5  and  C_6 
REMARK    2  A    between atoms: C_6  and  C_7 
REMARK    3  A    between atoms: C_7  and  N_8 
REMARK       I    between atoms: N_8  and  C_9 
REMARK       I    between atoms: C_9  and  N_11 
REMARK    4  A    between atoms: N_11  and  C_12 
ROOT
HETATM    1  N   UNL     1     -41.629 -52.914  12.017  1.00  0.00    -0.341 N 
HETATM    2  C   UNL     1     -41.321 -51.624  12.308  1.00  0.00     0.321 C 
HETATM    3  O   UNL     1     -41.449 -51.086  13.393  1.00  0.00    -0.247 OA
HETATM    4  N   UNL     1     -40.905 -50.920  11.146  1.00  0.00    -0.293 N 
HETATM    5  H   UNL     1     -41.328 -53.357  11.164  1.00  0.00     0.164 HD
HETATM    6  H   UNL     1     -40.901 -51.392  10.257  1.00  0.00     0.172 HD
ENDROOT
BRANCH   1   7
HETATM    7  C   UNL     1     -42.230 -53.736  13.057  1.00  0.00     0.154 C 
BRANCH   7   8
HETATM    8  C   UNL     1     -43.777 -53.742  12.979  1.00  0.00     0.292 C 
BRANCH   8   9
HETATM    9  N   UNL     1     -44.453 -53.764  14.285  1.00  0.00     0.090 N 
HETATM   10  C   UNL     1     -45.910 -53.918  14.204  1.00  0.00     0.273 C 
HETATM   11  C   UNL     1     -46.613 -52.695  13.608  1.00  0.00     0.034 C 
HETATM   12  C   UNL     1     -46.274 -51.407  14.373  1.00  0.00    -0.015 C 
HETATM   13  C   UNL     1     -47.005 -51.355  15.716  1.00  0.00     0.010 C 
HETATM   14  C   UNL     1     -44.754 -51.277  14.558  1.00  0.00     0.034 C 
HETATM   15  C   UNL     1     -44.111 -52.568  15.080  1.00  0.00     0.273 C 
ENDBRANCH   8   9
ENDBRANCH   7   8
ENDBRANCH   1   7
BRANCH   4  16
HETATM   16  C   UNL     1     -40.664 -49.552  11.184  1.00  0.00     0.127 A 
HETATM   17  C   UNL     1     -41.544 -48.532  10.888  1.00  0.00     0.076 A 
HETATM   18  C   UNL     1     -40.796 -47.346  10.956  1.00  0.00     0.025 A 
HETATM   19  C   UNL     1     -41.264 -45.978  10.616  1.00  0.00     0.070 C 
HETATM   20  N   UNL     1     -39.537 -47.576  11.343  1.00  0.00    -0.302 N 
HETATM   21  N   UNL     1     -39.483 -48.917  11.489  1.00  0.00    -0.281 N 
ATOM     22  HN  UNL     1     -38.792 -46.897  11.494  1.00  0.00     0.186 HD
HETATM   23  C   UNL     1     -38.221 -49.537  11.808  1.00  0.00     0.179 C 
ENDBRANCH   4  16
TORSDOF 4
ENDMDL
MODEL 2
REMARK VINA RESULT:      -6.4      1.647      2.404
REMARK  4 active torsions:
REMARK  status: ('A' for Active; 'I' for Inactive)
REMARK    1  A    between atoms: N_5  and  C_6 
REMARK    2  A    between atoms: C_6  and  C_7 
REMARK    3  A    between atoms: C_7  and  N_8 
REMARK       I    between atoms: N_8  and  C_9 
REMARK       I    between atoms: C_9  and  N_11 
REMARK    4  A    between atoms: N_11  and  C_12 
ROOT
HETATM    1  N   UNL     1     -41.081 -51.102  11.368  1.00  0.00    -0.341 N 
HETATM    2  C   UNL     1     -41.205 -49.789  11.688  1.00  0.00     0.321 C 
HETATM    3  O   UNL     1     -41.466 -49.343  12.790  1.00  0.00    -0.247 OA
HETATM    4  N   UNL     1     -41.083 -48.965  10.536  1.00  0.00    -0.293 N 
HETATM    5  H   UNL     1     -40.680 -51.405  10.495  1.00  0.00     0.164 HD
HETATM    6  H   UNL     1     -40.954 -49.393   9.634  1.00  0.00     0.172 HD
ENDROOT
BRANCH   1   7
HETATM    7  C   UNL     1     -41.342 -52.095  12.399  1.00  0.00     0.154 C 
BRANCH   7   8
HETATM    8  C   UNL     1     -42.726 -52.771  12.225  1.00  0.00     0.292 C 
BRANCH   8   9
HETATM    9  N   UNL     1     -43.452 -53.005  13.482  1.00  0.00     0.090 N 
HETATM   10  C   UNL     1     -44.769 -53.628  13.306  1.00  0.00     0.273 C 
HETATM   11  C   UNL     1     -45.786 -52.708  12.626  1.00  0.00     0.034 C 
HETATM   12  C   UNL     1     -45.944 -51.375  13.372  1.00  0.00    -0.015 C 
HETATM   13  C   UNL     1     -46.750 -51.555  14.660  1.00  0.00     0.010 C 
HETATM   14  C   UNL     1     -44.569 -50.752  13.656  1.00  0.00     0.034 C 
HETATM   15  C   UNL     1     -43.580 -51.757  14.261  1.00  0.00     0.273 C 
ENDBRANCH   8   9
ENDBRANCH   7   8
ENDBRANCH   1   7
BRANCH   4  16
HETATM   16  C   UNL     1     -41.304 -47.595  10.607  1.00  0.00     0.127 A 
HETATM   17  C   UNL     1     -40.386 -46.607  10.893  1.00  0.00     0.076 A 
HETATM   18  C   UNL     1     -41.117 -45.410  10.964  1.00  0.00     0.025 A 
HETATM   19  C   UNL     1     -40.601 -44.072  11.352  1.00  0.00     0.070 C 
HETATM   20  N   UNL     1     -42.407 -45.600  10.669  1.00  0.00    -0.302 N 
HETATM   21  N   UNL     1     -42.496 -46.928  10.442  1.00  0.00    -0.281 N 
ATOM     22  HN  UNL     1     -43.151 -44.905  10.625  1.00  0.00     0.186 HD
HETATM   23  C   UNL     1     -43.790 -47.512  10.189  1.00  0.00     0.179 C 
ENDBRANCH   4  16
TORSDOF 4
ENDMDL
MODEL 3
REMARK VINA RESULT:      -6.3      1.662      2.128
REMARK  4 active torsions:
REMARK  status: ('A' for Active; 'I' for Inactive)
REMARK    1  A    between atoms: N_5  and  C_6 
REMARK    2  A    between atoms: C_6  and  C_7 
REMARK    3  A    between atoms: C_7  and  N_8 
REMARK       I    between atoms: N_8  and  C_9 
REMARK       I    between atoms: C_9  and  N_11 
REMARK    4  A    between atoms: N_11  and  C_12 
ROOT
HETATM    1  N   UNL     1     -41.042 -51.163  11.530  1.00  0.00    -0.341 N 
HETATM    2  C   UNL     1     -41.521 -49.896  11.632  1.00  0.00     0.321 C 
HETATM    3  O   UNL     1     -42.141 -49.441  12.575  1.00  0.00    -0.247 OA
HETATM    4  N   UNL     1     -41.290 -49.162  10.438  1.00  0.00    -0.293 N 
HETATM    5  H   UNL     1     -40.378 -51.428  10.821  1.00  0.00     0.164 HD
HETATM    6  H   UNL     1     -40.849 -49.615   9.656  1.00  0.00     0.172 HD
ENDROOT
BRANCH   1   7
HETATM    7  C   UNL     1     -41.338 -52.104  12.599  1.00  0.00     0.154 C 
BRANCH   7   8
HETATM    8  C   UNL     1     -42.686 -52.836  12.380  1.00  0.00     0.292 C 
BRANCH   8   9
HETATM    9  N   UNL     1     -43.428 -53.128  13.616  1.00  0.00     0.090 N 
HETATM   10  C   UNL     1     -44.732 -53.765  13.396  1.00  0.00     0.273 C 
HETATM   11  C   UNL     1     -45.753 -52.835  12.734  1.00  0.00     0.034 C 
HETATM   12  C   UNL     1     -45.944 -51.534  13.526  1.00  0.00    -0.015 C 
HETATM   13  C   UNL     1     -46.767 -51.776  14.794  1.00  0.00     0.010 C 
HETATM   14  C   UNL     1     -44.584 -50.901  13.856  1.00  0.00     0.034 C 
HETATM   15  C   UNL     1     -43.588 -51.912  14.438  1.00  0.00     0.273 C 
ENDBRANCH   8   9
ENDBRANCH   7   8
ENDBRANCH   1   7
BRANCH   4  16
HETATM   16  C   UNL     1     -41.809 -47.884  10.270  1.00  0.00     0.127 A 
HETATM   17  C   UNL     1     -43.010 -47.531   9.689  1.00  0.00     0.076 A 
HETATM   18  C   UNL     1     -43.021 -46.127   9.648  1.00  0.00     0.025 A 
HETATM   19  C   UNL     1     -44.051 -45.262   9.018  1.00  0.00     0.070 C 
HETATM   20  N   UNL     1     -41.936 -45.607  10.233  1.00  0.00    -0.302 N 
HETATM   21  N   UNL     1     -41.223 -46.688  10.614  1.00  0.00    -0.281 N 
ATOM     22  HN  UNL     1     -41.702 -44.623  10.360  1.00  0.00     0.186 HD
HETATM   23  C   UNL     1     -39.920 -46.498  11.199  1.00  0.00     0.179 C 
ENDBRANCH   4  16
TORSDOF 4
ENDMDL
MODEL 4
REMARK VINA RESULT:      -6.0      1.744      2.879
REMARK  4 active torsions:
REMARK  status: ('A' for Active; 'I' for Inactive)
REMARK    1  A    between atoms: N_5  and  C_6 
REMARK    2  A    between atoms: C_6  and  C_7 
REMARK    3  A    between atoms: C_7  and  N_8 
REMARK       I    between atoms: N_8  and  C_9 
REMARK       I    between atoms: C_9  and  N_11 
REMARK    4  A    between atoms: N_11  and  C_12 
ROOT
HETATM    1  N   UNL     1     -40.889 -51.041  11.223  1.00  0.00    -0.341 N 
HETATM    2  C   UNL     1     -41.029 -49.744  11.600  1.00  0.00     0.321 C 
HETATM    3  O   UNL     1     -41.199 -49.344  12.737  1.00  0.00    -0.247 OA
HETATM    4  N   UNL     1     -41.049 -48.880  10.472  1.00  0.00    -0.293 N 
HETATM    5  H   UNL     1     -40.563 -51.300  10.306  1.00  0.00     0.164 HD
HETATM    6  H   UNL     1     -40.992 -49.273   9.547  1.00  0.00     0.172 HD
ENDROOT
BRANCH   1   7
HETATM    7  C   UNL     1     -41.014 -52.075  12.239  1.00  0.00     0.154 C 
BRANCH   7   8
HETATM    8  C   UNL     1     -42.439 -52.681  12.286  1.00  0.00     0.292 C 
BRANCH   8   9
HETATM    9  N   UNL     1     -43.193 -52.369  13.510  1.00  0.00     0.090 N 
HETATM   10  C   UNL     1     -43.090 -53.393  14.556  1.00  0.00     0.273 C 
HETATM   11  C   UNL     1     -43.791 -54.704  14.188  1.00  0.00     0.034 C 
HETATM   12  C   UNL     1     -45.267 -54.485  13.827  1.00  0.00    -0.015 C 
HETATM   13  C   UNL     1     -46.106 -54.217  15.078  1.00  0.00     0.010 C 
HETATM   14  C   UNL     1     -45.407 -53.346  12.806  1.00  0.00     0.034 C 
HETATM   15  C   UNL     1     -44.611 -52.096  13.203  1.00  0.00     0.273 C 
ENDBRANCH   8   9
ENDBRANCH   7   8
ENDBRANCH   1   7
BRANCH   4  16
HETATM   16  C   UNL     1     -41.312 -47.523  10.612  1.00  0.00     0.127 A 
HETATM   17  C   UNL     1     -40.406 -46.508  10.842  1.00  0.00     0.076 A 
HETATM   18  C   UNL     1     -41.170 -45.344  11.026  1.00  0.00     0.025 A 
HETATM   19  C   UNL     1     -40.667 -44.000  11.408  1.00  0.00     0.070 C 
HETATM   20  N   UNL     1     -42.475 -45.576  10.851  1.00  0.00    -0.302 N 
HETATM   21  N   UNL     1     -42.537 -46.899  10.588  1.00  0.00    -0.281 N 
ATOM     22  HN  UNL     1     -43.245 -44.910  10.904  1.00  0.00     0.186 HD
HETATM   23  C   UNL     1     -43.828 -47.525  10.441  1.00  0.00     0.179 C 
ENDBRANCH   4  16
TORSDOF 4
ENDMDL
MODEL 5
REMARK VINA RESULT:      -5.7      2.144      7.054
REMARK  4 active torsions:
REMARK  status: ('A' for Active; 'I' for Inactive)
REMARK    1  A    between atoms: N_5  and  C_6 
REMARK    2  A    between atoms: C_6  and  C_7 
REMARK    3  A    between atoms: C_7  and  N_8 
REMARK       I    between atoms: N_8  and  C_9 
REMARK       I    between atoms: C_9  and  N_11 
REMARK    4  A    between atoms: N_11  and  C_12 
ROOT
HETATM    1  N   UNL     1     -42.336 -52.302  11.760  1.00  0.00    -0.341 N 
HETATM    2  C   UNL     1     -43.102 -52.286  12.881  1.00  0.00     0.321 C 
HETATM    3  O   UNL     1     -42.691 -52.308  14.027  1.00  0.00    -0.247 OA
HETATM    4  N   UNL     1     -44.485 -52.336  12.560  1.00  0.00    -0.293 N 
HETATM    5  H   UNL     1     -42.714 -52.090  10.851  1.00  0.00     0.164 HD
HETATM    6  H   UNL     1     -44.767 -52.404  11.597  1.00  0.00     0.172 HD
ENDROOT
BRANCH   1   7
HETATM    7  C   UNL     1     -40.893 -52.421  11.907  1.00  0.00     0.154 C 
BRANCH   7   8
HETATM    8  C   UNL     1     -40.203 -51.041  12.054  1.00  0.00     0.292 C 
BRANCH   8   9
HETATM    9  N   UNL     1     -38.852 -51.095  12.631  1.00  0.00     0.090 N 
HETATM   10  C   UNL     1     -38.828 -51.281  14.086  1.00  0.00     0.273 C 
HETATM   11  C   UNL     1     -39.354 -50.068  14.858  1.00  0.00     0.034 C 
HETATM   12  C   UNL     1     -38.599 -48.782  14.492  1.00  0.00    -0.015 C 
HETATM   13  C   UNL     1     -37.205 -48.762  15.123  1.00  0.00     0.010 C 
HETATM   14  C   UNL     1     -38.524 -48.618  12.967  1.00  0.00     0.034 C 
HETATM   15  C   UNL     1     -38.068 -49.900  12.258  1.00  0.00     0.273 C 
ENDBRANCH   8   9
ENDBRANCH   7   8
ENDBRANCH   1   7
BRANCH   4  16
HETATM   16  C   UNL     1     -45.448 -52.460  13.554  1.00  0.00     0.127 A 
HETATM   17  C   UNL     1     -46.112 -51.448  14.216  1.00  0.00     0.076 A 
HETATM   18  C   UNL     1     -46.887 -52.076  15.204  1.00  0.00     0.025 A 
HETATM   19  C   UNL     1     -47.703 -51.412  16.252  1.00  0.00     0.070 C 
HETATM   20  N   UNL     1     -46.790 -53.408  15.135  1.00  0.00    -0.302 N 
HETATM   21  N   UNL     1     -45.925 -53.619  14.121  1.00  0.00    -0.281 N 
ATOM     22  HN  UNL     1     -47.261 -54.103  15.714  1.00  0.00     0.186 HD
HETATM   23  C   UNL     1     -45.504 -54.966  13.826  1.00  0.00     0.179 C 
ENDBRANCH   4  16
TORSDOF 4
ENDMDL
MODEL 6
REMARK VINA RESULT:      -5.7      1.861      7.129
REMARK  4 active torsions:
REMARK  status: ('A' for Active; 'I' for Inactive)
REMARK    1  A    between atoms: N_5  and  C_6 
REMARK    2  A    between atoms: C_6  and  C_7 
REMARK    3  A    between atoms: C_7  and  N_8 
REMARK       I    between atoms: N_8  and  C_9 
REMARK       I    between atoms: C_9  and  N_11 
REMARK    4  A    between atoms: N_11  and  C_12 
ROOT
HETATM    1  N   UNL     1     -40.917 -50.778  11.122  1.00  0.00    -0.341 N 
HETATM    2  C   UNL     1     -41.724 -51.323  12.069  1.00  0.00     0.321 C 
HETATM    3  O   UNL     1     -41.991 -50.831  13.150  1.00  0.00    -0.247 OA
HETATM    4  N   UNL     1     -42.165 -52.618  11.684  1.00  0.00    -0.293 N 
HETATM    5  H   UNL     1     -40.884 -51.131  10.179  1.00  0.00     0.164 HD
HETATM    6  H   UNL     1     -41.844 -53.013  10.816  1.00  0.00     0.172 HD
ENDROOT
BRANCH   1   7
HETATM    7  C   UNL     1     -40.244 -49.524  11.423  1.00  0.00     0.154 C 
BRANCH   7   8
HETATM    8  C   UNL     1     -41.110 -48.292  11.061  1.00  0.00     0.292 C 
BRANCH   8   9
HETATM    9  N   UNL     1     -41.157 -47.253  12.101  1.00  0.00     0.090 N 
HETATM   10  C   UNL     1     -42.318 -46.361  12.005  1.00  0.00     0.273 C 
HETATM   11  C   UNL     1     -42.278 -45.448  10.777  1.00  0.00     0.034 C 
HETATM   12  C   UNL     1     -40.987 -44.619  10.719  1.00  0.00    -0.015 C 
HETATM   13  C   UNL     1     -41.014 -43.483  11.744  1.00  0.00     0.010 C 
HETATM   14  C   UNL     1     -39.759 -45.521  10.918  1.00  0.00     0.034 C 
HETATM   15  C   UNL     1     -39.909 -46.464  12.119  1.00  0.00     0.273 C 
ENDBRANCH   8   9
ENDBRANCH   7   8
ENDBRANCH   1   7
BRANCH   4  16
HETATM   16  C   UNL     1     -42.896 -53.415  12.557  1.00  0.00     0.127 A 
HETATM   17  C   UNL     1     -44.259 -53.627  12.563  1.00  0.00     0.076 A 
HETATM   18  C   UNL     1     -44.523 -54.405  13.703  1.00  0.00     0.025 A 
HETATM   19  C   UNL     1     -45.857 -54.812  14.214  1.00  0.00     0.070 C 
HETATM   20  N   UNL     1     -43.398 -54.737  14.346  1.00  0.00    -0.302 N 
HETATM   21  N   UNL     1     -42.425 -54.138  13.627  1.00  0.00    -0.281 N 
ATOM     22  HN  UNL     1     -43.299 -55.309  15.184  1.00  0.00     0.186 HD
HETATM   23  C   UNL     1     -41.064 -54.203  14.099  1.00  0.00     0.179 C 
ENDBRANCH   4  16
TORSDOF 4
ENDMDL
MODEL 7
REMARK VINA RESULT:      -5.6      2.037      6.794
REMARK  4 active torsions:
REMARK  status: ('A' for Active; 'I' for Inactive)
REMARK    1  A    between atoms: N_5  and  C_6 
REMARK    2  A    between atoms: C_6  and  C_7 
REMARK    3  A    between atoms: C_7  and  N_8 
REMARK       I    between atoms: N_8  and  C_9 
REMARK       I    between atoms: C_9  and  N_11 
REMARK    4  A    between atoms: N_11  and  C_12 
ROOT
HETATM    1  N   UNL     1     -41.216 -50.420  11.396  1.00  0.00    -0.341 N 
HETATM    2  C   UNL     1     -42.043 -51.080  12.247  1.00  0.00     0.321 C 
HETATM    3  O   UNL     1     -42.506 -50.637  13.282  1.00  0.00    -0.247 OA
HETATM    4  N   UNL     1     -42.243 -52.424  11.830  1.00  0.00    -0.293 N 
HETATM    5  H   UNL     1     -41.019 -50.760  10.469  1.00  0.00     0.164 HD
HETATM    6  H   UNL     1     -41.766 -52.764  11.012  1.00  0.00     0.172 HD
ENDROOT
BRANCH   1   7
HETATM    7  C   UNL     1     -40.772 -49.083  11.760  1.00  0.00     0.154 C 
BRANCH   7   8
HETATM    8  C   UNL     1     -41.291 -48.005  10.774  1.00  0.00     0.292 C 
BRANCH   8   9
HETATM    9  N   UNL     1     -42.573 -47.395  11.158  1.00  0.00     0.090 N 
HETATM   10  C   UNL     1     -43.731 -47.922  10.426  1.00  0.00     0.273 C 
HETATM   11  C   UNL     1     -43.733 -47.538   8.944  1.00  0.00     0.034 C 
HETATM   12  C   UNL     1     -43.647 -46.018   8.744  1.00  0.00    -0.015 C 
HETATM   13  C   UNL     1     -44.981 -45.342   9.072  1.00  0.00     0.010 C 
HETATM   14  C   UNL     1     -42.502 -45.429   9.582  1.00  0.00     0.034 C 
HETATM   15  C   UNL     1     -42.519 -45.925  11.034  1.00  0.00     0.273 C 
ENDBRANCH   8   9
ENDBRANCH   7   8
ENDBRANCH   1   7
BRANCH   4  16
HETATM   16  C   UNL     1     -42.950 -53.323  12.619  1.00  0.00     0.127 A 
HETATM   17  C   UNL     1     -44.301 -53.599  12.578  1.00  0.00     0.076 A 
HETATM   18  C   UNL     1     -44.547 -54.478  13.646  1.00  0.00     0.025 A 
HETATM   19  C   UNL     1     -45.868 -54.987  14.093  1.00  0.00     0.070 C 
HETATM   20  N   UNL     1     -43.420 -54.808  14.285  1.00  0.00    -0.302 N 
HETATM   21  N   UNL     1     -42.463 -54.108  13.638  1.00  0.00    -0.281 N 
ATOM     22  HN  UNL     1     -43.308 -55.440  15.076  1.00  0.00     0.186 HD
HETATM   23  C   UNL     1     -41.110 -54.146  14.133  1.00  0.00     0.179 C 
ENDBRANCH   4  16
TORSDOF 4
ENDMDL
MODEL 8
REMARK VINA RESULT:      -5.5      2.205      7.076
REMARK  4 active torsions:
REMARK  status: ('A' for Active; 'I' for Inactive)
REMARK    1  A    between atoms: N_5  and  C_6 
REMARK    2  A    between atoms: C_6  and  C_7 
REMARK    3  A    between atoms: C_7  and  N_8 
REMARK       I    between atoms: N_8  and  C_9 
REMARK       I    between atoms: C_9  and  N_11 
REMARK    4  A    between atoms: N_11  and  C_12 
ROOT
HETATM    1  N   UNL     1     -40.740 -51.111  11.239  1.00  0.00    -0.341 N 
HETATM    2  C   UNL     1     -41.724 -51.567  12.057  1.00  0.00     0.321 C 
HETATM    3  O   UNL     1     -42.375 -50.894  12.834  1.00  0.00    -0.247 OA
HETATM    4  N   UNL     1     -41.852 -52.979  11.969  1.00  0.00    -0.293 N 
HETATM    5  H   UNL     1     -40.369 -51.668  10.486  1.00  0.00     0.164 HD
HETATM    6  H   UNL     1     -41.227 -53.496  11.373  1.00  0.00     0.172 HD
ENDROOT
BRANCH   1   7
HETATM    7  C   UNL     1     -40.362 -49.709  11.324  1.00  0.00     0.154 C 
BRANCH   7   8
HETATM    8  C   UNL     1     -39.151 -49.484  12.264  1.00  0.00     0.292 C 
BRANCH   8   9
HETATM    9  N   UNL     1     -39.509 -49.174  13.656  1.00  0.00     0.090 N 
HETATM   10  C   UNL     1     -38.989 -47.889  14.137  1.00  0.00     0.273 C 
HETATM   11  C   UNL     1     -37.466 -47.874  14.289  1.00  0.00     0.034 C 
HETATM   12  C   UNL     1     -36.967 -49.004  15.200  1.00  0.00    -0.015 C 
HETATM   13  C   UNL     1     -37.263 -48.698  16.671  1.00  0.00     0.010 C 
HETATM   14  C   UNL     1     -37.580 -50.347  14.776  1.00  0.00     0.034 C 
HETATM   15  C   UNL     1     -39.097 -50.263  14.564  1.00  0.00     0.273 C 
ENDBRANCH   8   9
ENDBRANCH   7   8
ENDBRANCH   1   7
BRANCH   4  16
HETATM   16  C   UNL     1     -42.709 -53.675  12.813  1.00  0.00     0.127 A 
HETATM   17  C   UNL     1     -44.057 -53.910  12.639  1.00  0.00     0.076 A 
HETATM   18  C   UNL     1     -44.493 -54.545  13.813  1.00  0.00     0.025 A 
HETATM   19  C   UNL     1     -45.889 -54.910  14.162  1.00  0.00     0.070 C 
HETATM   20  N   UNL     1     -43.480 -54.775  14.656  1.00  0.00    -0.302 N 
HETATM   21  N   UNL     1     -42.408 -54.252  14.025  1.00  0.00    -0.281 N 
ATOM     22  HN  UNL     1     -43.511 -55.237  15.564  1.00  0.00     0.186 HD
HETATM   23  C   UNL     1     -41.135 -54.234  14.702  1.00  0.00     0.179 C 
ENDBRANCH   4  16
TORSDOF 4
ENDMDL
MODEL 9
REMARK VINA RESULT:      -5.3      2.749      4.082
REMARK  4 active torsions:
REMARK  status: ('A' for Active; 'I' for Inactive)
REMARK    1  A    between atoms: N_5  and  C_6 
REMARK    2  A    between atoms: C_6  and  C_7 
REMARK    3  A    between atoms: C_7  and  N_8 
REMARK       I    between atoms: N_8  and  C_9 
REMARK       I    between atoms: C_9  and  N_11 
REMARK    4  A    between atoms: N_11  and  C_12 
ROOT
HETATM    1  N   UNL     1     -40.726 -50.539  11.174  1.00  0.00    -0.341 N 
HETATM    2  C   UNL     1     -41.411 -49.396  11.436  1.00  0.00     0.321 C 
HETATM    3  O   UNL     1     -42.357 -49.287  12.195  1.00  0.00    -0.247 OA
HETATM    4  N   UNL     1     -40.946 -48.323  10.630  1.00  0.00    -0.293 N 
HETATM    5  H   UNL     1     -39.842 -50.535  10.691  1.00  0.00     0.164 HD
HETATM    6  H   UNL     1     -40.218 -48.489   9.955  1.00  0.00     0.172 HD
ENDROOT
BRANCH   1   7
HETATM    7  C   UNL     1     -41.181 -51.776  11.791  1.00  0.00     0.154 C 
BRANCH   7   8
HETATM    8  C   UNL     1     -40.364 -52.133  13.059  1.00  0.00     0.292 C 
BRANCH   8   9
HETATM    9  N   UNL     1     -40.256 -53.575  13.328  1.00  0.00     0.090 N 
HETATM   10  C   UNL     1     -41.539 -54.286  13.303  1.00  0.00     0.273 C 
HETATM   11  C   UNL     1     -42.462 -53.908  14.465  1.00  0.00     0.034 C 
HETATM   12  C   UNL     1     -41.785 -54.116  15.827  1.00  0.00    -0.015 C 
HETATM   13  C   UNL     1     -41.706 -55.603  16.182  1.00  0.00     0.010 C 
HETATM   14  C   UNL     1     -40.395 -53.464  15.842  1.00  0.00     0.034 C 
HETATM   15  C   UNL     1     -39.561 -53.825  14.606  1.00  0.00     0.273 C 
ENDBRANCH   8   9
ENDBRANCH   7   8
ENDBRANCH   1   7
BRANCH   4  16
HETATM   16  C   UNL     1     -41.588 -47.090  10.636  1.00  0.00     0.127 A 
HETATM   17  C   UNL     1     -41.285 -45.986  11.406  1.00  0.00     0.076 A 
HETATM   18  C   UNL     1     -42.290 -45.042  11.138  1.00  0.00     0.025 A 
HETATM   19  C   UNL     1     -42.474 -43.725  11.800  1.00  0.00     0.070 C 
HETATM   20  N   UNL     1     -43.140 -45.476  10.202  1.00  0.00    -0.302 N 
HETATM   21  N   UNL     1     -42.688 -46.713   9.902  1.00  0.00    -0.281 N 
ATOM     22  HN  UNL     1     -43.942 -44.988   9.806  1.00  0.00     0.186 HD
HETATM   23  C   UNL     1     -43.439 -47.530   8.982  1.00  0.00     0.179 C 
ENDBRANCH   4  16
TORSDOF 4
ENDMDL
