MODEL 1
REMARK VINA RESULT:      -4.7      0.000      0.000
REMARK  6 active torsions:
REMARK  status: ('A' for Active; 'I' for Inactive)
REMARK    1  A    between atoms: O_2  and  C_3 
REMARK    2  A    between atoms: C_3  and  C_4 
REMARK    3  A    between atoms: C_4  and  O_5 
REMARK    4  A    between atoms: O_5  and  C_6 
REMARK    5  A    between atoms: C_12  and  N_13 
REMARK    6  A    between atoms: N_13  and  C_14 
ROOT
HETATM    1  C   UNL     1     -41.801 -52.086  12.275  1.00  0.00     0.169 A 
HETATM    2  N   UNL     1     -40.800 -51.498  11.566  1.00  0.00    -0.345 N 
ATOM      3  HN  UNL     1     -40.062 -52.053  11.133  1.00  0.00     0.167 HD
HETATM    4  C   UNL     1     -40.820 -50.158  11.458  1.00  0.00     0.090 A 
HETATM    5  C   UNL     1     -41.818 -49.374  11.995  1.00  0.00     0.019 A 
HETATM    6  C   UNL     1     -42.845 -50.004  12.697  1.00  0.00     0.035 A 
HETATM    7  C   UNL     1     -42.853 -51.394  12.902  1.00  0.00     0.080 A 
ENDROOT
BRANCH   7   8
HETATM    8  N   UNL     1     -43.934 -51.915  13.623  1.00  0.00    -0.382 N 
HETATM    9  H   UNL     1     -43.636 -52.423  14.451  1.00  0.00     0.160 HD
BRANCH   8  10
HETATM   10  C   UNL     1     -45.170 -52.411  13.009  1.00  0.00     0.085 C 
HETATM   11  C   UNL     1     -46.319 -51.440  13.291  1.00  0.00     0.051 C 
HETATM   12  C   UNL     1     -46.834 -51.577  14.717  1.00  0.00     0.169 C 
HETATM   13  O   UNL     1     -47.215 -52.925  14.986  1.00  0.00    -0.391 OA
HETATM   14  C   UNL     1     -46.099 -53.807  14.923  1.00  0.00     0.169 C 
HETATM   15  C   UNL     1     -45.502 -53.819  13.526  1.00  0.00     0.051 C 
ENDBRANCH   8  10
ENDBRANCH   7   8
BRANCH   1  16
HETATM   16  O   UNL     1     -41.694 -53.454  12.423  1.00  0.00    -0.332 OA
BRANCH  16  17
HETATM   17  C   UNL     1     -40.529 -53.833  13.171  1.00  0.00     0.203 C 
BRANCH  17  18
HETATM   18  C   UNL     1     -40.869 -54.212  14.616  1.00  0.00     0.193 C 
BRANCH  18  19
HETATM   19  O   UNL     1     -42.282 -54.229  14.821  1.00  0.00    -0.394 OA
HETATM   20  C   UNL     1     -42.671 -55.394  15.540  1.00  0.00     0.201 C 
ENDBRANCH  18  19
ENDBRANCH  17  18
ENDBRANCH  16  17
ENDBRANCH   1  16
TORSDOF 6
ENDMDL
MODEL 2
REMARK VINA RESULT:      -4.7      5.044      7.601
REMARK  6 active torsions:
REMARK  status: ('A' for Active; 'I' for Inactive)
REMARK    1  A    between atoms: O_2  and  C_3 
REMARK    2  A    between atoms: C_3  and  C_4 
REMARK    3  A    between atoms: C_4  and  O_5 
REMARK    4  A    between atoms: O_5  and  C_6 
REMARK    5  A    between atoms: C_12  and  N_13 
REMARK    6  A    between atoms: N_13  and  C_14 
ROOT
HETATM    1  C   UNL     1     -41.641 -46.549  10.640  1.00  0.00     0.169 A 
HETATM    2  N   UNL     1     -42.319 -45.372  10.569  1.00  0.00    -0.345 N 
ATOM      3  HN  UNL     1     -43.250 -45.322  10.155  1.00  0.00     0.167 HD
HETATM    4  C   UNL     1     -41.716 -44.278  11.064  1.00  0.00     0.090 A 
HETATM    5  C   UNL     1     -40.476 -44.307  11.664  1.00  0.00     0.019 A 
HETATM    6  C   UNL     1     -39.813 -45.531  11.746  1.00  0.00     0.035 A 
HETATM    7  C   UNL     1     -40.357 -46.703  11.194  1.00  0.00     0.080 A 
ENDROOT
BRANCH   7   8
HETATM    8  N   UNL     1     -39.601 -47.872  11.334  1.00  0.00    -0.382 N 
HETATM    9  H   UNL     1     -39.732 -48.512  10.556  1.00  0.00     0.160 HD
BRANCH   8  10
HETATM   10  C   UNL     1     -39.317 -48.519  12.620  1.00  0.00     0.085 C 
HETATM   11  C   UNL     1     -37.903 -49.106  12.608  1.00  0.00     0.051 C 
HETATM   12  C   UNL     1     -37.839 -50.400  11.809  1.00  0.00     0.169 C 
HETATM   13  O   UNL     1     -38.788 -51.343  12.304  1.00  0.00    -0.391 OA
HETATM   14  C   UNL     1     -40.124 -50.881  12.128  1.00  0.00     0.169 C 
HETATM   15  C   UNL     1     -40.359 -49.606  12.919  1.00  0.00     0.051 C 
ENDBRANCH   8  10
ENDBRANCH   7   8
BRANCH   1  16
HETATM   16  O   UNL     1     -42.268 -47.628  10.050  1.00  0.00    -0.332 OA
BRANCH  16  17
HETATM   17  C   UNL     1     -43.682 -47.425   9.905  1.00  0.00     0.203 C 
BRANCH  17  18
HETATM   18  C   UNL     1     -44.147 -47.624   8.457  1.00  0.00     0.193 C 
BRANCH  18  19
HETATM   19  O   UNL     1     -45.501 -48.074   8.412  1.00  0.00    -0.394 OA
HETATM   20  C   UNL     1     -46.359 -47.146   9.068  1.00  0.00     0.201 C 
ENDBRANCH  18  19
ENDBRANCH  17  18
ENDBRANCH  16  17
ENDBRANCH   1  16
TORSDOF 6
ENDMDL
MODEL 3
REMARK VINA RESULT:      -4.7      2.973      5.460
REMARK  6 active torsions:
REMARK  status: ('A' for Active; 'I' for Inactive)
REMARK    1  A    between atoms: O_2  and  C_3 
REMARK    2  A    between atoms: C_3  and  C_4 
REMARK    3  A    between atoms: C_4  and  O_5 
REMARK    4  A    between atoms: O_5  and  C_6 
REMARK    5  A    between atoms: C_12  and  N_13 
REMARK    6  A    between atoms: N_13  and  C_14 
ROOT
HETATM    1  C   UNL     1     -40.894 -52.629  12.824  1.00  0.00     0.169 A 
HETATM    2  N   UNL     1     -40.959 -53.827  13.465  1.00  0.00    -0.345 N 
ATOM      3  HN  UNL     1     -40.113 -54.328  13.736  1.00  0.00     0.167 HD
HETATM    4  C   UNL     1     -42.180 -54.325  13.727  1.00  0.00     0.090 A 
HETATM    5  C   UNL     1     -43.347 -53.664  13.411  1.00  0.00     0.019 A 
HETATM    6  C   UNL     1     -43.252 -52.427  12.776  1.00  0.00     0.035 A 
HETATM    7  C   UNL     1     -42.010 -51.876  12.416  1.00  0.00     0.080 A 
ENDROOT
BRANCH   7   8
HETATM    8  N   UNL     1     -42.038 -50.630  11.781  1.00  0.00    -0.382 N 
HETATM    9  H   UNL     1     -41.428 -50.597  10.969  1.00  0.00     0.160 HD
BRANCH   8  10
HETATM   10  C   UNL     1     -42.195 -49.351  12.483  1.00  0.00     0.085 C 
HETATM   11  C   UNL     1     -43.071 -48.406  11.657  1.00  0.00     0.051 C 
HETATM   12  C   UNL     1     -42.302 -47.804  10.488  1.00  0.00     0.169 C 
HETATM   13  O   UNL     1     -41.121 -47.149  10.949  1.00  0.00    -0.391 OA
HETATM   14  C   UNL     1     -40.209 -48.069  11.541  1.00  0.00     0.169 C 
HETATM   15  C   UNL     1     -40.824 -48.720  12.768  1.00  0.00     0.051 C 
ENDBRANCH   8  10
ENDBRANCH   7   8
BRANCH   1  16
HETATM   16  O   UNL     1     -39.622 -52.197  12.509  1.00  0.00    -0.332 OA
BRANCH  16  17
HETATM   17  C   UNL     1     -38.886 -51.777  13.667  1.00  0.00     0.203 C 
BRANCH  17  18
HETATM   18  C   UNL     1     -37.677 -50.909  13.299  1.00  0.00     0.193 C 
BRANCH  18  19
HETATM   19  O   UNL     1     -37.172 -51.256  12.010  1.00  0.00    -0.394 OA
HETATM   20  C   UNL     1     -37.241 -50.141  11.128  1.00  0.00     0.201 C 
ENDBRANCH  18  19
ENDBRANCH  17  18
ENDBRANCH  16  17
ENDBRANCH   1  16
TORSDOF 6
ENDMDL
MODEL 4
REMARK VINA RESULT:      -4.6      5.496      8.333
REMARK  6 active torsions:
REMARK  status: ('A' for Active; 'I' for Inactive)
REMARK    1  A    between atoms: O_2  and  C_3 
REMARK    2  A    between atoms: C_3  and  C_4 
REMARK    3  A    between atoms: C_4  and  O_5 
REMARK    4  A    between atoms: O_5  and  C_6 
REMARK    5  A    between atoms: C_12  and  N_13 
REMARK    6  A    between atoms: N_13  and  C_14 
ROOT
HETATM    1  C   UNL     1     -42.748 -45.860   9.747  1.00  0.00     0.169 A 
HETATM    2  N   UNL     1     -43.812 -45.085   9.403  1.00  0.00    -0.345 N 
ATOM      3  HN  UNL     1     -43.755 -44.068   9.430  1.00  0.00     0.167 HD
HETATM    4  C   UNL     1     -44.940 -45.712   9.027  1.00  0.00     0.090 A 
HETATM    5  C   UNL     1     -45.047 -47.083   8.941  1.00  0.00     0.019 A 
HETATM    6  C   UNL     1     -43.934 -47.854   9.276  1.00  0.00     0.035 A 
HETATM    7  C   UNL     1     -42.743 -47.267   9.737  1.00  0.00     0.080 A 
ENDROOT
BRANCH   7   8
HETATM    8  N   UNL     1     -41.693 -48.139  10.045  1.00  0.00    -0.382 N 
HETATM    9  H   UNL     1     -41.266 -48.538   9.214  1.00  0.00     0.160 HD
BRANCH   8  10
HETATM   10  C   UNL     1     -41.664 -49.007  11.228  1.00  0.00     0.085 C 
HETATM   11  C   UNL     1     -41.791 -48.162  12.498  1.00  0.00     0.051 C 
HETATM   12  C   UNL     1     -40.485 -47.458  12.838  1.00  0.00     0.169 C 
HETATM   13  O   UNL     1     -39.419 -48.401  12.946  1.00  0.00    -0.391 OA
HETATM   14  C   UNL     1     -39.164 -49.045  11.702  1.00  0.00     0.169 C 
HETATM   15  C   UNL     1     -40.376 -49.843  11.251  1.00  0.00     0.051 C 
ENDBRANCH   8  10
ENDBRANCH   7   8
BRANCH   1  16
HETATM   16  O   UNL     1     -41.639 -45.173  10.199  1.00  0.00    -0.332 OA
BRANCH  16  17
HETATM   17  C   UNL     1     -41.912 -44.421  11.391  1.00  0.00     0.203 C 
BRANCH  17  18
HETATM   18  C   UNL     1     -41.625 -42.926  11.207  1.00  0.00     0.193 C 
BRANCH  18  19
HETATM   19  O   UNL     1     -42.645 -42.301  10.428  1.00  0.00    -0.394 OA
HETATM   20  C   UNL     1     -43.708 -41.853  11.261  1.00  0.00     0.201 C 
ENDBRANCH  18  19
ENDBRANCH  17  18
ENDBRANCH  16  17
ENDBRANCH   1  16
TORSDOF 6
ENDMDL
MODEL 5
REMARK VINA RESULT:      -4.6      3.216      5.349
REMARK  6 active torsions:
REMARK  status: ('A' for Active; 'I' for Inactive)
REMARK    1  A    between atoms: O_2  and  C_3 
REMARK    2  A    between atoms: C_3  and  C_4 
REMARK    3  A    between atoms: C_4  and  O_5 
REMARK    4  A    between atoms: O_5  and  C_6 
REMARK    5  A    between atoms: C_12  and  N_13 
REMARK    6  A    between atoms: N_13  and  C_14 
ROOT
HETATM    1  C   UNL     1     -40.769 -49.269  11.371  1.00  0.00     0.169 A 
HETATM    2  N   UNL     1     -39.523 -48.733  11.273  1.00  0.00    -0.345 N 
ATOM      3  HN  UNL     1     -39.375 -47.812  10.860  1.00  0.00     0.167 HD
HETATM    4  C   UNL     1     -38.495 -49.461  11.742  1.00  0.00     0.090 A 
HETATM    5  C   UNL     1     -38.655 -50.692  12.340  1.00  0.00     0.019 A 
HETATM    6  C   UNL     1     -39.945 -51.209  12.449  1.00  0.00     0.035 A 
HETATM    7  C   UNL     1     -41.059 -50.530  11.926  1.00  0.00     0.080 A 
ENDROOT
BRANCH   7   8
HETATM    8  N   UNL     1     -42.304 -51.145  12.092  1.00  0.00    -0.382 N 
HETATM    9  H   UNL     1     -43.029 -50.708  11.530  1.00  0.00     0.160 HD
BRANCH   8  10
HETATM   10  C   UNL     1     -42.773 -51.726  13.356  1.00  0.00     0.085 C 
HETATM   11  C   UNL     1     -43.065 -53.217  13.168  1.00  0.00     0.051 C 
HETATM   12  C   UNL     1     -44.381 -53.445  12.438  1.00  0.00     0.169 C 
HETATM   13  O   UNL     1     -45.451 -52.788  13.115  1.00  0.00    -0.391 OA
HETATM   14  C   UNL     1     -45.282 -51.374  13.112  1.00  0.00     0.169 C 
HETATM   15  C   UNL     1     -44.019 -50.983  13.860  1.00  0.00     0.051 C 
ENDBRANCH   8  10
ENDBRANCH   7   8
BRANCH   1  16
HETATM   16  O   UNL     1     -41.781 -48.519  10.808  1.00  0.00    -0.332 OA
BRANCH  16  17
HETATM   17  C   UNL     1     -41.403 -47.147  10.620  1.00  0.00     0.203 C 
BRANCH  17  18
HETATM   18  C   UNL     1     -42.611 -46.204  10.664  1.00  0.00     0.193 C 
BRANCH  18  19
HETATM   19  O   UNL     1     -42.832 -45.596   9.392  1.00  0.00    -0.394 OA
HETATM   20  C   UNL     1     -43.648 -46.427   8.574  1.00  0.00     0.201 C 
ENDBRANCH  18  19
ENDBRANCH  17  18
ENDBRANCH  16  17
ENDBRANCH   1  16
TORSDOF 6
ENDMDL
MODEL 6
REMARK VINA RESULT:      -4.6      5.545      8.118
REMARK  6 active torsions:
REMARK  status: ('A' for Active; 'I' for Inactive)
REMARK    1  A    between atoms: O_2  and  C_3 
REMARK    2  A    between atoms: C_3  and  C_4 
REMARK    3  A    between atoms: C_4  and  O_5 
REMARK    4  A    between atoms: O_5  and  C_6 
REMARK    5  A    between atoms: C_12  and  N_13 
REMARK    6  A    between atoms: N_13  and  C_14 
ROOT
HETATM    1  C   UNL     1     -41.912 -47.295  10.293  1.00  0.00     0.169 A 
HETATM    2  N   UNL     1     -42.508 -48.110   9.381  1.00  0.00    -0.345 N 
ATOM      3  HN  UNL     1     -42.224 -49.084   9.278  1.00  0.00     0.167 HD
HETATM    4  C   UNL     1     -43.484 -47.583   8.623  1.00  0.00     0.090 A 
HETATM    5  C   UNL     1     -43.924 -46.284   8.755  1.00  0.00     0.019 A 
HETATM    6  C   UNL     1     -43.312 -45.476   9.712  1.00  0.00     0.035 A 
HETATM    7  C   UNL     1     -42.243 -45.942  10.497  1.00  0.00     0.080 A 
ENDROOT
BRANCH   7   8
HETATM    8  N   UNL     1     -41.706 -45.043  11.424  1.00  0.00    -0.382 N 
HETATM    9  H   UNL     1     -42.426 -44.530  11.926  1.00  0.00     0.160 HD
BRANCH   8  10
HETATM   10  C   UNL     1     -40.453 -44.305  11.226  1.00  0.00     0.085 C 
HETATM   11  C   UNL     1     -39.378 -44.840  12.175  1.00  0.00     0.051 C 
HETATM   12  C   UNL     1     -39.584 -44.340  13.598  1.00  0.00     0.169 C 
HETATM   13  O   UNL     1     -39.639 -42.914  13.625  1.00  0.00    -0.391 OA
HETATM   14  C   UNL     1     -40.765 -42.420  12.906  1.00  0.00     0.169 C 
HETATM   15  C   UNL     1     -40.674 -42.801  11.438  1.00  0.00     0.051 C 
ENDBRANCH   8  10
ENDBRANCH   7   8
BRANCH   1  16
HETATM   16  O   UNL     1     -40.865 -47.858  10.993  1.00  0.00    -0.332 OA
BRANCH  16  17
HETATM   17  C   UNL     1     -41.129 -49.218  11.369  1.00  0.00     0.203 C 
BRANCH  17  18
HETATM   18  C   UNL     1     -39.840 -50.002  11.642  1.00  0.00     0.193 C 
BRANCH  18  19
HETATM   19  O   UNL     1     -38.705 -49.135  11.642  1.00  0.00    -0.394 OA
HETATM   20  C   UNL     1     -37.520 -49.862  11.338  1.00  0.00     0.201 C 
ENDBRANCH  18  19
ENDBRANCH  17  18
ENDBRANCH  16  17
ENDBRANCH   1  16
TORSDOF 6
ENDMDL
MODEL 7
REMARK VINA RESULT:      -4.6      4.385      6.156
REMARK  6 active torsions:
REMARK  status: ('A' for Active; 'I' for Inactive)
REMARK    1  A    between atoms: O_2  and  C_3 
REMARK    2  A    between atoms: C_3  and  C_4 
REMARK    3  A    between atoms: C_4  and  O_5 
REMARK    4  A    between atoms: O_5  and  C_6 
REMARK    5  A    between atoms: C_12  and  N_13 
REMARK    6  A    between atoms: N_13  and  C_14 
ROOT
HETATM    1  C   UNL     1     -41.392 -47.492  10.885  1.00  0.00     0.169 A 
HETATM    2  N   UNL     1     -40.089 -47.267  11.204  1.00  0.00    -0.345 N 
ATOM      3  HN  UNL     1     -39.416 -48.032  11.253  1.00  0.00     0.167 HD
HETATM    4  C   UNL     1     -39.721 -45.998  11.452  1.00  0.00     0.090 A 
HETATM    5  C   UNL     1     -40.588 -44.931  11.362  1.00  0.00     0.019 A 
HETATM    6  C   UNL     1     -41.913 -45.186  11.010  1.00  0.00     0.035 A 
HETATM    7  C   UNL     1     -42.380 -46.495  10.797  1.00  0.00     0.080 A 
ENDROOT
BRANCH   7   8
HETATM    8  N   UNL     1     -43.729 -46.630  10.451  1.00  0.00    -0.382 N 
HETATM    9  H   UNL     1     -44.137 -47.486  10.815  1.00  0.00     0.160 HD
BRANCH   8  10
HETATM   10  C   UNL     1     -44.304 -46.167   9.183  1.00  0.00     0.085 C 
HETATM   11  C   UNL     1     -45.733 -46.695   9.034  1.00  0.00     0.051 C 
HETATM   12  C   UNL     1     -45.750 -48.166   8.640  1.00  0.00     0.169 C 
HETATM   13  O   UNL     1     -44.992 -48.376   7.450  1.00  0.00    -0.391 OA
HETATM   14  C   UNL     1     -43.614 -48.076   7.648  1.00  0.00     0.169 C 
HETATM   15  C   UNL     1     -43.429 -46.610   8.001  1.00  0.00     0.051 C 
ENDBRANCH   8  10
ENDBRANCH   7   8
BRANCH   1  16
HETATM   16  O   UNL     1     -41.737 -48.818  10.715  1.00  0.00    -0.332 OA
BRANCH  16  17
HETATM   17  C   UNL     1     -41.631 -49.570  11.933  1.00  0.00     0.203 C 
BRANCH  17  18
HETATM   18  C   UNL     1     -40.731 -50.800  11.774  1.00  0.00     0.193 C 
BRANCH  18  19
HETATM   19  O   UNL     1     -41.485 -52.006  11.909  1.00  0.00    -0.394 OA
HETATM   20  C   UNL     1     -42.655 -51.781  12.687  1.00  0.00     0.201 C 
ENDBRANCH  18  19
ENDBRANCH  17  18
ENDBRANCH  16  17
ENDBRANCH   1  16
TORSDOF 6
ENDMDL
MODEL 8
REMARK VINA RESULT:      -4.5      4.795      7.425
REMARK  6 active torsions:
REMARK  status: ('A' for Active; 'I' for Inactive)
REMARK    1  A    between atoms: O_2  and  C_3 
REMARK    2  A    between atoms: C_3  and  C_4 
REMARK    3  A    between atoms: C_4  and  O_5 
REMARK    4  A    between atoms: O_5  and  C_6 
REMARK    5  A    between atoms: C_12  and  N_13 
REMARK    6  A    between atoms: N_13  and  C_14 
ROOT
HETATM    1  C   UNL     1     -40.918 -47.065  10.983  1.00  0.00     0.169 A 
HETATM    2  N   UNL     1     -41.000 -45.758  10.614  1.00  0.00    -0.345 N 
ATOM      3  HN  UNL     1     -41.550 -45.471   9.805  1.00  0.00     0.167 HD
HETATM    4  C   UNL     1     -40.329 -44.861  11.356  1.00  0.00     0.090 A 
HETATM    5  C   UNL     1     -39.605 -45.201  12.478  1.00  0.00     0.019 A 
HETATM    6  C   UNL     1     -39.556 -46.544  12.848  1.00  0.00     0.035 A 
HETATM    7  C   UNL     1     -40.182 -47.543  12.083  1.00  0.00     0.080 A 
ENDROOT
BRANCH   7   8
HETATM    8  N   UNL     1     -40.065 -48.857  12.550  1.00  0.00    -0.382 N 
HETATM    9  H   UNL     1     -39.761 -48.896  13.519  1.00  0.00     0.160 HD
BRANCH   8  10
HETATM   10  C   UNL     1     -39.630 -49.989  11.724  1.00  0.00     0.085 C 
HETATM   11  C   UNL     1     -40.261 -51.284  12.239  1.00  0.00     0.051 C 
HETATM   12  C   UNL     1     -39.569 -51.786  13.499  1.00  0.00     0.169 C 
HETATM   13  O   UNL     1     -38.169 -51.945  13.272  1.00  0.00    -0.391 OA
HETATM   14  C   UNL     1     -37.540 -50.699  12.990  1.00  0.00     0.169 C 
HETATM   15  C   UNL     1     -38.098 -50.092  11.714  1.00  0.00     0.051 C 
ENDBRANCH   8  10
ENDBRANCH   7   8
BRANCH   1  16
HETATM   16  O   UNL     1     -41.559 -47.956  10.147  1.00  0.00    -0.332 OA
BRANCH  16  17
HETATM   17  C   UNL     1     -42.978 -47.743  10.108  1.00  0.00     0.203 C 
BRANCH  17  18
HETATM   18  C   UNL     1     -43.468 -47.373   8.704  1.00  0.00     0.193 C 
BRANCH  18  19
HETATM   19  O   UNL     1     -43.260 -45.986   8.439  1.00  0.00    -0.394 OA
HETATM   20  C   UNL     1     -44.265 -45.199   9.069  1.00  0.00     0.201 C 
ENDBRANCH  18  19
ENDBRANCH  17  18
ENDBRANCH  16  17
ENDBRANCH   1  16
TORSDOF 6
ENDMDL
MODEL 9
REMARK VINA RESULT:      -4.5      2.509      4.322
REMARK  6 active torsions:
REMARK  status: ('A' for Active; 'I' for Inactive)
REMARK    1  A    between atoms: O_2  and  C_3 
REMARK    2  A    between atoms: C_3  and  C_4 
REMARK    3  A    between atoms: C_4  and  O_5 
REMARK    4  A    between atoms: O_5  and  C_6 
REMARK    5  A    between atoms: C_12  and  N_13 
REMARK    6  A    between atoms: N_13  and  C_14 
ROOT
HETATM    1  C   UNL     1     -40.990 -49.231  11.220  1.00  0.00     0.169 A 
HETATM    2  N   UNL     1     -41.083 -48.028  10.593  1.00  0.00    -0.345 N 
ATOM      3  HN  UNL     1     -40.362 -47.711   9.946  1.00  0.00     0.167 HD
HETATM    4  C   UNL     1     -42.162 -47.272  10.859  1.00  0.00     0.090 A 
HETATM    5  C   UNL     1     -43.178 -47.677  11.698  1.00  0.00     0.019 A 
HETATM    6  C   UNL     1     -43.069 -48.925  12.310  1.00  0.00     0.035 A 
HETATM    7  C   UNL     1     -41.939 -49.740  12.125  1.00  0.00     0.080 A 
ENDROOT
BRANCH   7   8
HETATM    8  N   UNL     1     -41.939 -50.971  12.791  1.00  0.00    -0.382 N 
HETATM    9  H   UNL     1     -41.321 -50.974  13.597  1.00  0.00     0.160 HD
BRANCH   8  10
HETATM   10  C   UNL     1     -42.080 -52.269  12.121  1.00  0.00     0.085 C 
HETATM   11  C   UNL     1     -43.383 -52.943  12.558  1.00  0.00     0.051 C 
HETATM   12  C   UNL     1     -43.267 -53.542  13.952  1.00  0.00     0.169 C 
HETATM   13  O   UNL     1     -42.166 -54.448  14.019  1.00  0.00    -0.391 OA
HETATM   14  C   UNL     1     -40.926 -53.780  13.812  1.00  0.00     0.169 C 
HETATM   15  C   UNL     1     -40.871 -53.166  12.424  1.00  0.00     0.051 C 
ENDBRANCH   8  10
ENDBRANCH   7   8
BRANCH   1  16
HETATM   16  O   UNL     1     -39.829 -49.936  10.975  1.00  0.00    -0.332 OA
BRANCH  16  17
HETATM   17  C   UNL     1     -38.730 -49.472  11.773  1.00  0.00     0.203 C 
BRANCH  17  18
HETATM   18  C   UNL     1     -37.410 -50.148  11.386  1.00  0.00     0.193 C 
BRANCH  18  19
HETATM   19  O   UNL     1     -37.204 -51.340  12.143  1.00  0.00    -0.394 OA
HETATM   20  C   UNL     1     -37.794 -51.223  13.433  1.00  0.00     0.201 C 
ENDBRANCH  18  19
ENDBRANCH  17  18
ENDBRANCH  16  17
ENDBRANCH   1  16
TORSDOF 6
ENDMDL
