MODEL 1
REMARK VINA RESULT:      -6.6      0.000      0.000
REMARK  7 active torsions:
REMARK  status: ('A' for Active; 'I' for Inactive)
REMARK    1  A    between atoms: C_2  and  C_3 
REMARK    2  A    between atoms: C_2  and  N_6 
REMARK       I    between atoms: N_6  and  C_8 
REMARK    3  A    between atoms: C_8  and  C_10 
REMARK    4  A    between atoms: N_14  and  C_15 
REMARK    5  A    between atoms: C_15  and  C_16 
REMARK       I    between atoms: C_16  and  N_18 
REMARK    6  A    between atoms: N_18  and  C_19 
REMARK    7  A    between atoms: C_19  and  C_20 
ROOT
HETATM    1  C   UNL     1     -41.758 -45.237  11.231  1.00  0.00     0.100 C 
HETATM    2  C   UNL     1     -40.593 -44.709  10.794  1.00  0.00     0.024 C 
HETATM    3  C   UNL     1     -39.455 -44.570  11.674  1.00  0.00     0.018 C 
HETATM    4  C   UNL     1     -39.475 -45.166  12.875  1.00  0.00     0.095 C 
HETATM    5  N   UNL     1     -40.648 -45.721  13.352  1.00  0.00    -0.315 N 
HETATM    6  C   UNL     1     -41.854 -45.494  12.696  1.00  0.00     0.263 C 
HETATM    7  O   UNL     1     -42.936 -45.571  13.284  1.00  0.00    -0.267 OA
ENDROOT
BRANCH   5   8
HETATM    8  C   UNL     1     -40.693 -46.393  14.652  1.00  0.00     0.234 C 
BRANCH   8   9
HETATM    9  C   UNL     1     -40.581 -47.923  14.487  1.00  0.00     0.235 C 
HETATM   10  O   UNL     1     -41.576 -48.645  14.458  1.00  0.00    -0.272 OA
HETATM   11  N   UNL     1     -39.288 -48.429  14.418  1.00  0.00    -0.359 N 
HETATM   12  H   UNL     1     -38.544 -47.845  14.790  1.00  0.00     0.162 HD
BRANCH  11  13
HETATM   13  C   UNL     1     -39.067 -49.863  14.293  1.00  0.00     0.127 C 
BRANCH  13  14
HETATM   14  C   UNL     1     -38.803 -50.198  12.833  1.00  0.00     0.003 C 
HETATM   15  C   UNL     1     -37.408 -50.842  12.572  1.00  0.00     0.006 C 
HETATM   16  C   UNL     1     -37.399 -50.112  11.216  1.00  0.00     0.001 C 
HETATM   17  C   UNL     1     -38.349 -49.074  11.855  1.00  0.00     0.006 C 
ENDBRANCH  13  14
ENDBRANCH  11  13
ENDBRANCH   8   9
ENDBRANCH   5   8
BRANCH   1  18
HETATM   18  C   UNL     1     -42.812 -45.550  10.193  1.00  0.00     0.259 C 
HETATM   19  N   UNL     1     -42.970 -46.857   9.699  1.00  0.00    -0.347 N 
HETATM   20  C   UNL     1     -42.294 -48.027  10.262  1.00  0.00     0.153 C 
HETATM   21  O   UNL     1     -43.460 -44.611   9.719  1.00  0.00    -0.267 OA
BRANCH  19  22
HETATM   22  C   UNL     1     -44.003 -47.103   8.667  1.00  0.00     0.087 C 
HETATM   23  C   UNL     1     -43.523 -48.023   7.531  1.00  0.00     0.033 C 
BRANCH  22  24
HETATM   24  C   UNL     1     -45.259 -47.692   9.278  1.00  0.00     0.008 A 
HETATM   25  C   UNL     1     -46.297 -48.300   8.354  1.00  0.00     0.007 A 
HETATM   26  C   UNL     1     -46.615 -47.045   9.110  1.00  0.00     0.007 A 
ENDBRANCH  22  24
ENDBRANCH  19  22
ENDBRANCH   1  18
TORSDOF 7
ENDMDL
MODEL 2
REMARK VINA RESULT:      -6.5      4.134      6.317
REMARK  7 active torsions:
REMARK  status: ('A' for Active; 'I' for Inactive)
REMARK    1  A    between atoms: C_2  and  C_3 
REMARK    2  A    between atoms: C_2  and  N_6 
REMARK       I    between atoms: N_6  and  C_8 
REMARK    3  A    between atoms: C_8  and  C_10 
REMARK    4  A    between atoms: N_14  and  C_15 
REMARK    5  A    between atoms: C_15  and  C_16 
REMARK       I    between atoms: C_16  and  N_18 
REMARK    6  A    between atoms: N_18  and  C_19 
REMARK    7  A    between atoms: C_19  and  C_20 
ROOT
HETATM    1  C   UNL     1     -42.014 -51.724  13.725  1.00  0.00     0.100 C 
HETATM    2  C   UNL     1     -41.550 -52.516  14.718  1.00  0.00     0.024 C 
HETATM    3  C   UNL     1     -40.142 -52.821  14.839  1.00  0.00     0.018 C 
HETATM    4  C   UNL     1     -39.255 -52.143  14.095  1.00  0.00     0.095 C 
HETATM    5  N   UNL     1     -39.695 -51.321  13.074  1.00  0.00    -0.315 N 
HETATM    6  C   UNL     1     -41.027 -51.340  12.675  1.00  0.00     0.263 C 
HETATM    7  O   UNL     1     -41.370 -50.995  11.541  1.00  0.00    -0.267 OA
ENDROOT
BRANCH   5   8
HETATM    8  C   UNL     1     -38.749 -50.556  12.260  1.00  0.00     0.234 C 
BRANCH   8   9
HETATM    9  C   UNL     1     -39.014 -49.041  12.380  1.00  0.00     0.235 C 
HETATM   10  O   UNL     1     -38.727 -48.414  13.398  1.00  0.00    -0.272 OA
HETATM   11  N   UNL     1     -39.635 -48.449  11.287  1.00  0.00    -0.359 N 
HETATM   12  H   UNL     1     -40.145 -49.063  10.657  1.00  0.00     0.162 HD
BRANCH  11  13
HETATM   13  C   UNL     1     -39.960 -47.029  11.308  1.00  0.00     0.127 C 
BRANCH  13  14
HETATM   14  C   UNL     1     -41.457 -46.859  11.103  1.00  0.00     0.003 C 
HETATM   15  C   UNL     1     -42.325 -47.444  12.258  1.00  0.00     0.006 C 
HETATM   16  C   UNL     1     -43.381 -47.799  11.195  1.00  0.00     0.001 C 
HETATM   17  C   UNL     1     -42.224 -47.844  10.172  1.00  0.00     0.006 C 
ENDBRANCH  13  14
ENDBRANCH  11  13
ENDBRANCH   8   9
ENDBRANCH   5   8
BRANCH   1  18
HETATM   18  C   UNL     1     -43.456 -51.279  13.809  1.00  0.00     0.259 C 
HETATM   19  N   UNL     1     -44.479 -52.035  13.210  1.00  0.00    -0.347 N 
HETATM   20  C   UNL     1     -44.280 -53.370  12.644  1.00  0.00     0.153 C 
HETATM   21  O   UNL     1     -43.699 -50.185  14.329  1.00  0.00    -0.267 OA
BRANCH  19  22
HETATM   22  C   UNL     1     -45.872 -51.541  13.304  1.00  0.00     0.087 C 
HETATM   23  C   UNL     1     -46.661 -51.688  11.992  1.00  0.00     0.033 C 
BRANCH  22  24
HETATM   24  C   UNL     1     -46.629 -52.242  14.414  1.00  0.00     0.008 A 
HETATM   25  C   UNL     1     -47.128 -51.416  15.584  1.00  0.00     0.007 A 
HETATM   26  C   UNL     1     -46.042 -52.428  15.795  1.00  0.00     0.007 A 
ENDBRANCH  22  24
ENDBRANCH  19  22
ENDBRANCH   1  18
TORSDOF 7
ENDMDL
MODEL 3
REMARK VINA RESULT:      -6.4      5.434      7.990
REMARK  7 active torsions:
REMARK  status: ('A' for Active; 'I' for Inactive)
REMARK    1  A    between atoms: C_2  and  C_3 
REMARK    2  A    between atoms: C_2  and  N_6 
REMARK       I    between atoms: N_6  and  C_8 
REMARK    3  A    between atoms: C_8  and  C_10 
REMARK    4  A    between atoms: N_14  and  C_15 
REMARK    5  A    between atoms: C_15  and  C_16 
REMARK       I    between atoms: C_16  and  N_18 
REMARK    6  A    between atoms: N_18  and  C_19 
REMARK    7  A    between atoms: C_19  and  C_20 
ROOT
HETATM    1  C   UNL     1     -42.867 -54.892  15.292  1.00  0.00     0.100 C 
HETATM    2  C   UNL     1     -42.676 -55.684  16.371  1.00  0.00     0.024 C 
HETATM    3  C   UNL     1     -41.352 -56.110  16.763  1.00  0.00     0.018 C 
HETATM    4  C   UNL     1     -40.280 -55.544  16.189  1.00  0.00     0.095 C 
HETATM    5  N   UNL     1     -40.439 -54.725  15.086  1.00  0.00    -0.315 N 
HETATM    6  C   UNL     1     -41.669 -54.639  14.441  1.00  0.00     0.263 C 
HETATM    7  O   UNL     1     -41.758 -54.307  13.256  1.00  0.00    -0.267 OA
ENDROOT
BRANCH   5   8
HETATM    8  C   UNL     1     -39.288 -54.080  14.452  1.00  0.00     0.234 C 
BRANCH   8   9
HETATM    9  C   UNL     1     -39.257 -52.570  14.768  1.00  0.00     0.235 C 
HETATM   10  O   UNL     1     -38.902 -52.147  15.867  1.00  0.00    -0.272 OA
HETATM   11  N   UNL     1     -39.696 -51.731  13.750  1.00  0.00    -0.359 N 
HETATM   12  H   UNL     1     -40.284 -52.146  13.033  1.00  0.00     0.162 HD
BRANCH  11  13
HETATM   13  C   UNL     1     -39.735 -50.290  13.953  1.00  0.00     0.127 C 
BRANCH  13  14
HETATM   14  C   UNL     1     -38.705 -49.633  13.048  1.00  0.00     0.003 C 
HETATM   15  C   UNL     1     -39.048 -49.717  11.530  1.00  0.00     0.006 C 
HETATM   16  C   UNL     1     -37.535 -49.815  11.262  1.00  0.00     0.001 C 
HETATM   17  C   UNL     1     -37.398 -50.399  12.685  1.00  0.00     0.006 C 
ENDBRANCH  13  14
ENDBRANCH  11  13
ENDBRANCH   8   9
ENDBRANCH   5   8
BRANCH   1  18
HETATM   18  C   UNL     1     -44.250 -54.316  15.090  1.00  0.00     0.259 C 
HETATM   19  N   UNL     1     -44.599 -53.071  15.643  1.00  0.00    -0.347 N 
HETATM   20  C   UNL     1     -43.639 -52.161  16.271  1.00  0.00     0.153 C 
HETATM   21  O   UNL     1     -45.093 -55.011  14.513  1.00  0.00    -0.267 OA
BRANCH  19  22
HETATM   22  C   UNL     1     -45.974 -52.563  15.432  1.00  0.00     0.087 C 
HETATM   23  C   UNL     1     -46.669 -52.125  16.733  1.00  0.00     0.033 C 
BRANCH  22  24
HETATM   24  C   UNL     1     -45.988 -51.406  14.454  1.00  0.00     0.008 A 
HETATM   25  C   UNL     1     -46.555 -51.637  13.066  1.00  0.00     0.007 A 
HETATM   26  C   UNL     1     -45.090 -51.370  13.237  1.00  0.00     0.007 A 
ENDBRANCH  22  24
ENDBRANCH  19  22
ENDBRANCH   1  18
TORSDOF 7
ENDMDL
MODEL 4
REMARK VINA RESULT:      -6.4      4.896      7.065
REMARK  7 active torsions:
REMARK  status: ('A' for Active; 'I' for Inactive)
REMARK    1  A    between atoms: C_2  and  C_3 
REMARK    2  A    between atoms: C_2  and  N_6 
REMARK       I    between atoms: N_6  and  C_8 
REMARK    3  A    between atoms: C_8  and  C_10 
REMARK    4  A    between atoms: N_14  and  C_15 
REMARK    5  A    between atoms: C_15  and  C_16 
REMARK       I    between atoms: C_16  and  N_18 
REMARK    6  A    between atoms: N_18  and  C_19 
REMARK    7  A    between atoms: C_19  and  C_20 
ROOT
HETATM    1  C   UNL     1     -41.216 -50.820  13.178  1.00  0.00     0.100 C 
HETATM    2  C   UNL     1     -40.593 -50.599  14.357  1.00  0.00     0.024 C 
HETATM    3  C   UNL     1     -40.618 -51.583  15.416  1.00  0.00     0.018 C 
HETATM    4  C   UNL     1     -41.075 -52.817  15.156  1.00  0.00     0.095 C 
HETATM    5  N   UNL     1     -41.713 -53.080  13.958  1.00  0.00    -0.315 N 
HETATM    6  C   UNL     1     -42.068 -52.042  13.103  1.00  0.00     0.263 C 
HETATM    7  O   UNL     1     -42.988 -52.157  12.290  1.00  0.00    -0.267 OA
ENDROOT
BRANCH   5   8
HETATM    8  C   UNL     1     -42.205 -54.423  13.643  1.00  0.00     0.234 C 
BRANCH   8   9
HETATM    9  C   UNL     1     -43.477 -54.750  14.452  1.00  0.00     0.235 C 
HETATM   10  O   UNL     1     -43.424 -55.336  15.532  1.00  0.00    -0.272 OA
HETATM   11  N   UNL     1     -44.680 -54.379  13.862  1.00  0.00    -0.359 N 
HETATM   12  H   UNL     1     -44.673 -54.228  12.857  1.00  0.00     0.162 HD
BRANCH  11  13
HETATM   13  C   UNL     1     -45.943 -54.667  14.526  1.00  0.00     0.127 C 
BRANCH  13  14
HETATM   14  C   UNL     1     -46.806 -53.415  14.515  1.00  0.00     0.003 C 
HETATM   15  C   UNL     1     -46.209 -52.239  13.685  1.00  0.00     0.006 C 
HETATM   16  C   UNL     1     -46.845 -51.281  14.709  1.00  0.00     0.001 C 
HETATM   17  C   UNL     1     -46.763 -52.439  15.728  1.00  0.00     0.006 C 
ENDBRANCH  13  14
ENDBRANCH  11  13
ENDBRANCH   8   9
ENDBRANCH   5   8
BRANCH   1  18
HETATM   18  C   UNL     1     -40.949 -49.841  12.057  1.00  0.00     0.259 C 
HETATM   19  N   UNL     1     -41.878 -48.833  11.745  1.00  0.00    -0.347 N 
HETATM   20  C   UNL     1     -43.049 -48.522  12.568  1.00  0.00     0.153 C 
HETATM   21  O   UNL     1     -39.944 -50.014  11.360  1.00  0.00    -0.267 OA
BRANCH  19  22
HETATM   22  C   UNL     1     -41.576 -47.915  10.624  1.00  0.00     0.087 C 
HETATM   23  C   UNL     1     -42.735 -47.772   9.623  1.00  0.00     0.033 C 
BRANCH  22  24
HETATM   24  C   UNL     1     -41.191 -46.539  11.129  1.00  0.00     0.008 A 
HETATM   25  C   UNL     1     -39.891 -45.926  10.643  1.00  0.00     0.007 A 
HETATM   26  C   UNL     1     -40.036 -46.325  12.081  1.00  0.00     0.007 A 
ENDBRANCH  22  24
ENDBRANCH  19  22
ENDBRANCH   1  18
TORSDOF 7
ENDMDL
MODEL 5
REMARK VINA RESULT:      -6.3      5.494      8.400
REMARK  7 active torsions:
REMARK  status: ('A' for Active; 'I' for Inactive)
REMARK    1  A    between atoms: C_2  and  C_3 
REMARK    2  A    between atoms: C_2  and  N_6 
REMARK       I    between atoms: N_6  and  C_8 
REMARK    3  A    between atoms: C_8  and  C_10 
REMARK    4  A    between atoms: N_14  and  C_15 
REMARK    5  A    between atoms: C_15  and  C_16 
REMARK       I    between atoms: C_16  and  N_18 
REMARK    6  A    between atoms: N_18  and  C_19 
REMARK    7  A    between atoms: C_19  and  C_20 
ROOT
HETATM    1  C   UNL     1     -41.698 -52.928  13.367  1.00  0.00     0.100 C 
HETATM    2  C   UNL     1     -41.011 -53.662  14.271  1.00  0.00     0.024 C 
HETATM    3  C   UNL     1     -41.677 -54.633  15.111  1.00  0.00     0.018 C 
HETATM    4  C   UNL     1     -42.948 -54.971  14.847  1.00  0.00     0.095 C 
HETATM    5  N   UNL     1     -43.678 -54.244  13.925  1.00  0.00    -0.315 N 
HETATM    6  C   UNL     1     -43.183 -53.048  13.415  1.00  0.00     0.263 C 
HETATM    7  O   UNL     1     -43.931 -52.173  12.970  1.00  0.00    -0.267 OA
ENDROOT
BRANCH   5   8
HETATM    8  C   UNL     1     -45.061 -54.602  13.605  1.00  0.00     0.234 C 
BRANCH   8   9
HETATM    9  C   UNL     1     -46.026 -54.121  14.709  1.00  0.00     0.235 C 
HETATM   10  O   UNL     1     -46.479 -54.894  15.553  1.00  0.00    -0.272 OA
HETATM   11  N   UNL     1     -46.380 -52.778  14.659  1.00  0.00    -0.359 N 
HETATM   12  H   UNL     1     -46.258 -52.302  13.769  1.00  0.00     0.162 HD
BRANCH  11  13
HETATM   13  C   UNL     1     -47.308 -52.227  15.636  1.00  0.00     0.127 C 
BRANCH  13  14
HETATM   14  C   UNL     1     -46.723 -50.946  16.208  1.00  0.00     0.003 C 
HETATM   15  C   UNL     1     -45.212 -50.739  15.887  1.00  0.00     0.006 C 
HETATM   16  C   UNL     1     -45.081 -50.057  17.261  1.00  0.00     0.001 C 
HETATM   17  C   UNL     1     -46.300 -50.894  17.707  1.00  0.00     0.006 C 
ENDBRANCH  13  14
ENDBRANCH  11  13
ENDBRANCH   8   9
ENDBRANCH   5   8
BRANCH   1  18
HETATM   18  C   UNL     1     -40.894 -52.108  12.385  1.00  0.00     0.259 C 
HETATM   19  N   UNL     1     -40.710 -50.727  12.579  1.00  0.00    -0.347 N 
HETATM   20  C   UNL     1     -41.094 -50.019  13.802  1.00  0.00     0.153 C 
HETATM   21  O   UNL     1     -40.489 -52.661  11.357  1.00  0.00    -0.267 OA
BRANCH  19  22
HETATM   22  C   UNL     1     -39.933 -49.968  11.574  1.00  0.00     0.087 C 
HETATM   23  C   UNL     1     -40.612 -48.659  11.138  1.00  0.00     0.033 C 
BRANCH  22  24
HETATM   24  C   UNL     1     -38.539 -49.653  12.082  1.00  0.00     0.008 A 
HETATM   25  C   UNL     1     -37.353 -49.999  11.202  1.00  0.00     0.007 A 
HETATM   26  C   UNL     1     -37.567 -50.737  12.489  1.00  0.00     0.007 A 
ENDBRANCH  22  24
ENDBRANCH  19  22
ENDBRANCH   1  18
TORSDOF 7
ENDMDL
MODEL 6
REMARK VINA RESULT:      -6.3      4.021      6.990
REMARK  7 active torsions:
REMARK  status: ('A' for Active; 'I' for Inactive)
REMARK    1  A    between atoms: C_2  and  C_3 
REMARK    2  A    between atoms: C_2  and  N_6 
REMARK       I    between atoms: N_6  and  C_8 
REMARK    3  A    between atoms: C_8  and  C_10 
REMARK    4  A    between atoms: N_14  and  C_15 
REMARK    5  A    between atoms: C_15  and  C_16 
REMARK       I    between atoms: C_16  and  N_18 
REMARK    6  A    between atoms: N_18  and  C_19 
REMARK    7  A    between atoms: C_19  and  C_20 
ROOT
HETATM    1  C   UNL     1     -39.589 -50.195  13.328  1.00  0.00     0.100 C 
HETATM    2  C   UNL     1     -38.842 -50.435  14.429  1.00  0.00     0.024 C 
HETATM    3  C   UNL     1     -38.854 -51.727  15.078  1.00  0.00     0.018 C 
HETATM    4  C   UNL     1     -39.438 -52.766  14.463  1.00  0.00     0.095 C 
HETATM    5  N   UNL     1     -40.205 -52.558  13.332  1.00  0.00    -0.315 N 
HETATM    6  C   UNL     1     -40.546 -51.269  12.936  1.00  0.00     0.263 C 
HETATM    7  O   UNL     1     -41.544 -51.044  12.247  1.00  0.00    -0.267 OA
ENDROOT
BRANCH   5   8
HETATM    8  C   UNL     1     -40.838 -53.677  12.632  1.00  0.00     0.234 C 
BRANCH   8   9
HETATM    9  C   UNL     1     -42.282 -53.894  13.129  1.00  0.00     0.235 C 
HETATM   10  O   UNL     1     -42.523 -54.504  14.170  1.00  0.00    -0.272 OA
HETATM   11  N   UNL     1     -43.286 -53.397  12.306  1.00  0.00    -0.359 N 
HETATM   12  H   UNL     1     -43.042 -53.229  11.333  1.00  0.00     0.162 HD
BRANCH  11  13
HETATM   13  C   UNL     1     -44.685 -53.574  12.666  1.00  0.00     0.127 C 
BRANCH  13  14
HETATM   14  C   UNL     1     -45.182 -52.315  13.359  1.00  0.00     0.003 C 
HETATM   15  C   UNL     1     -45.890 -52.580  14.723  1.00  0.00     0.006 C 
HETATM   16  C   UNL     1     -46.807 -51.384  14.402  1.00  0.00     0.001 C 
HETATM   17  C   UNL     1     -46.526 -51.667  12.910  1.00  0.00     0.006 C 
ENDBRANCH  13  14
ENDBRANCH  11  13
ENDBRANCH   8   9
ENDBRANCH   5   8
BRANCH   1  18
HETATM   18  C   UNL     1     -39.343 -48.898  12.592  1.00  0.00     0.259 C 
HETATM   19  N   UNL     1     -40.242 -47.822  12.708  1.00  0.00    -0.347 N 
HETATM   20  C   UNL     1     -41.347 -47.785  13.667  1.00  0.00     0.153 C 
HETATM   21  O   UNL     1     -38.389 -48.844  11.808  1.00  0.00    -0.267 OA
BRANCH  19  22
HETATM   22  C   UNL     1     -39.964 -46.583  11.947  1.00  0.00     0.087 C 
HETATM   23  C   UNL     1     -40.921 -46.366  10.763  1.00  0.00     0.033 C 
BRANCH  22  24
HETATM   24  C   UNL     1     -40.012 -45.364  12.848  1.00  0.00     0.008 A 
HETATM   25  C   UNL     1     -38.924 -44.316  12.706  1.00  0.00     0.007 A 
HETATM   26  C   UNL     1     -39.006 -45.142  13.955  1.00  0.00     0.007 A 
ENDBRANCH  22  24
ENDBRANCH  19  22
ENDBRANCH   1  18
TORSDOF 7
ENDMDL
MODEL 7
REMARK VINA RESULT:      -6.2      5.102      8.056
REMARK  7 active torsions:
REMARK  status: ('A' for Active; 'I' for Inactive)
REMARK    1  A    between atoms: C_2  and  C_3 
REMARK    2  A    between atoms: C_2  and  N_6 
REMARK       I    between atoms: N_6  and  C_8 
REMARK    3  A    between atoms: C_8  and  C_10 
REMARK    4  A    between atoms: N_14  and  C_15 
REMARK    5  A    between atoms: C_15  and  C_16 
REMARK       I    between atoms: C_16  and  N_18 
REMARK    6  A    between atoms: N_18  and  C_19 
REMARK    7  A    between atoms: C_19  and  C_20 
ROOT
HETATM    1  C   UNL     1     -42.742 -53.930  14.738  1.00  0.00     0.100 C 
HETATM    2  C   UNL     1     -41.709 -54.560  15.341  1.00  0.00     0.024 C 
HETATM    3  C   UNL     1     -40.418 -54.666  14.701  1.00  0.00     0.018 C 
HETATM    4  C   UNL     1     -40.170 -53.947  13.596  1.00  0.00     0.095 C 
HETATM    5  N   UNL     1     -41.202 -53.286  12.956  1.00  0.00    -0.315 N 
HETATM    6  C   UNL     1     -42.524 -53.517  13.323  1.00  0.00     0.263 C 
HETATM    7  O   UNL     1     -43.458 -53.324  12.539  1.00  0.00    -0.267 OA
ENDROOT
BRANCH   5   8
HETATM    8  C   UNL     1     -40.956 -52.481  11.758  1.00  0.00     0.234 C 
BRANCH   8   9
HETATM    9  C   UNL     1     -40.869 -50.981  12.110  1.00  0.00     0.235 C 
HETATM   10  O   UNL     1     -40.126 -50.567  12.998  1.00  0.00    -0.272 OA
HETATM   11  N   UNL     1     -41.712 -50.142  11.390  1.00  0.00    -0.359 N 
HETATM   12  H   UNL     1     -42.518 -50.572  10.943  1.00  0.00     0.162 HD
BRANCH  11  13
HETATM   13  C   UNL     1     -41.732 -48.712  11.662  1.00  0.00     0.127 C 
BRANCH  13  14
HETATM   14  C   UNL     1     -42.198 -47.976  10.415  1.00  0.00     0.003 C 
HETATM   15  C   UNL     1     -41.826 -46.463  10.396  1.00  0.00     0.006 C 
HETATM   16  C   UNL     1     -43.146 -46.217   9.640  1.00  0.00     0.001 C 
HETATM   17  C   UNL     1     -43.679 -47.504  10.308  1.00  0.00     0.006 C 
ENDBRANCH  13  14
ENDBRANCH  11  13
ENDBRANCH   8   9
ENDBRANCH   5   8
BRANCH   1  18
HETATM   18  C   UNL     1     -43.979 -53.673  15.569  1.00  0.00     0.259 C 
HETATM   19  N   UNL     1     -44.146 -52.456  16.254  1.00  0.00    -0.347 N 
HETATM   20  C   UNL     1     -43.271 -51.296  16.078  1.00  0.00     0.153 C 
HETATM   21  O   UNL     1     -44.789 -54.595  15.710  1.00  0.00    -0.267 OA
BRANCH  19  22
HETATM   22  C   UNL     1     -45.366 -52.266  17.071  1.00  0.00     0.087 C 
HETATM   23  C   UNL     1     -45.070 -51.899  18.535  1.00  0.00     0.033 C 
BRANCH  22  24
HETATM   24  C   UNL     1     -46.267 -51.204  16.471  1.00  0.00     0.008 A 
HETATM   25  C   UNL     1     -47.754 -51.487  16.374  1.00  0.00     0.007 A 
HETATM   26  C   UNL     1     -46.932 -51.381  15.125  1.00  0.00     0.007 A 
ENDBRANCH  22  24
ENDBRANCH  19  22
ENDBRANCH   1  18
TORSDOF 7
ENDMDL
MODEL 8
REMARK VINA RESULT:      -6.2      5.080      7.676
REMARK  7 active torsions:
REMARK  status: ('A' for Active; 'I' for Inactive)
REMARK    1  A    between atoms: C_2  and  C_3 
REMARK    2  A    between atoms: C_2  and  N_6 
REMARK       I    between atoms: N_6  and  C_8 
REMARK    3  A    between atoms: C_8  and  C_10 
REMARK    4  A    between atoms: N_14  and  C_15 
REMARK    5  A    between atoms: C_15  and  C_16 
REMARK       I    between atoms: C_16  and  N_18 
REMARK    6  A    between atoms: N_18  and  C_19 
REMARK    7  A    between atoms: C_19  and  C_20 
ROOT
HETATM    1  C   UNL     1     -42.787 -53.870  14.798  1.00  0.00     0.100 C 
HETATM    2  C   UNL     1     -41.727 -54.460  15.394  1.00  0.00     0.024 C 
HETATM    3  C   UNL     1     -40.461 -54.599  14.709  1.00  0.00     0.018 C 
HETATM    4  C   UNL     1     -40.262 -53.946  13.554  1.00  0.00     0.095 C 
HETATM    5  N   UNL     1     -41.323 -53.326  12.919  1.00  0.00    -0.315 N 
HETATM    6  C   UNL     1     -42.628 -53.539  13.352  1.00  0.00     0.263 C 
HETATM    7  O   UNL     1     -43.593 -53.395  12.598  1.00  0.00    -0.267 OA
ENDROOT
BRANCH   5   8
HETATM    8  C   UNL     1     -41.129 -52.591  11.668  1.00  0.00     0.234 C 
BRANCH   8   9
HETATM    9  C   UNL     1     -40.770 -51.116  11.943  1.00  0.00     0.235 C 
HETATM   10  O   UNL     1     -41.602 -50.318  12.373  1.00  0.00    -0.272 OA
HETATM   11  N   UNL     1     -39.468 -50.744  11.633  1.00  0.00    -0.359 N 
HETATM   12  H   UNL     1     -38.963 -51.336  10.979  1.00  0.00     0.162 HD
BRANCH  11  13
HETATM   13  C   UNL     1     -39.031 -49.368  11.826  1.00  0.00     0.127 C 
BRANCH  13  14
HETATM   14  C   UNL     1     -37.833 -49.354  12.761  1.00  0.00     0.003 C 
HETATM   15  C   UNL     1     -37.728 -50.611  13.678  1.00  0.00     0.006 C 
HETATM   16  C   UNL     1     -37.133 -49.690  14.759  1.00  0.00     0.001 C 
HETATM   17  C   UNL     1     -37.895 -48.529  14.081  1.00  0.00     0.006 C 
ENDBRANCH  13  14
ENDBRANCH  11  13
ENDBRANCH   8   9
ENDBRANCH   5   8
BRANCH   1  18
HETATM   18  C   UNL     1     -43.990 -53.568  15.661  1.00  0.00     0.259 C 
HETATM   19  N   UNL     1     -44.152 -52.303  16.254  1.00  0.00    -0.347 N 
HETATM   20  C   UNL     1     -43.311 -51.146  15.945  1.00  0.00     0.153 C 
HETATM   21  O   UNL     1     -44.773 -54.490  15.913  1.00  0.00    -0.267 OA
BRANCH  19  22
HETATM   22  C   UNL     1     -45.338 -52.069  17.108  1.00  0.00     0.087 C 
HETATM   23  C   UNL     1     -44.985 -51.560  18.517  1.00  0.00     0.033 C 
BRANCH  22  24
HETATM   24  C   UNL     1     -46.297 -51.091  16.459  1.00  0.00     0.008 A 
HETATM   25  C   UNL     1     -47.770 -51.448  16.406  1.00  0.00     0.007 A 
HETATM   26  C   UNL     1     -46.973 -51.384  15.138  1.00  0.00     0.007 A 
ENDBRANCH  22  24
ENDBRANCH  19  22
ENDBRANCH   1  18
TORSDOF 7
ENDMDL
MODEL 9
REMARK VINA RESULT:      -6.1      5.073      8.678
REMARK  7 active torsions:
REMARK  status: ('A' for Active; 'I' for Inactive)
REMARK    1  A    between atoms: C_2  and  C_3 
REMARK    2  A    between atoms: C_2  and  N_6 
REMARK       I    between atoms: N_6  and  C_8 
REMARK    3  A    between atoms: C_8  and  C_10 
REMARK    4  A    between atoms: N_14  and  C_15 
REMARK    5  A    between atoms: C_15  and  C_16 
REMARK       I    between atoms: C_16  and  N_18 
REMARK    6  A    between atoms: N_18  and  C_19 
REMARK    7  A    between atoms: C_19  and  C_20 
ROOT
HETATM    1  C   UNL     1     -39.886 -53.252  14.844  1.00  0.00     0.100 C 
HETATM    2  C   UNL     1     -38.957 -54.233  14.837  1.00  0.00     0.024 C 
HETATM    3  C   UNL     1     -39.091 -55.399  15.681  1.00  0.00     0.018 C 
HETATM    4  C   UNL     1     -40.251 -55.623  16.316  1.00  0.00     0.095 C 
HETATM    5  N   UNL     1     -41.226 -54.643  16.339  1.00  0.00    -0.315 N 
HETATM    6  C   UNL     1     -40.946 -53.357  15.887  1.00  0.00     0.263 C 
HETATM    7  O   UNL     1     -41.586 -52.378  16.280  1.00  0.00    -0.267 OA
ENDROOT
BRANCH   5   8
HETATM    8  C   UNL     1     -42.507 -54.868  17.009  1.00  0.00     0.234 C 
BRANCH   8   9
HETATM    9  C   UNL     1     -43.672 -54.847  15.998  1.00  0.00     0.235 C 
HETATM   10  O   UNL     1     -43.718 -55.629  15.049  1.00  0.00    -0.272 OA
HETATM   11  N   UNL     1     -44.633 -53.865  16.204  1.00  0.00    -0.359 N 
HETATM   12  H   UNL     1     -44.361 -53.064  16.767  1.00  0.00     0.162 HD
BRANCH  11  13
HETATM   13  C   UNL     1     -45.760 -53.737  15.290  1.00  0.00     0.127 C 
BRANCH  13  14
HETATM   14  C   UNL     1     -45.477 -52.612  14.307  1.00  0.00     0.003 C 
HETATM   15  C   UNL     1     -46.629 -51.570  14.187  1.00  0.00     0.006 C 
HETATM   16  C   UNL     1     -46.247 -51.418  12.702  1.00  0.00     0.001 C 
HETATM   17  C   UNL     1     -45.680 -52.853  12.781  1.00  0.00     0.006 C 
ENDBRANCH  13  14
ENDBRANCH  11  13
ENDBRANCH   8   9
ENDBRANCH   5   8
BRANCH   1  18
HETATM   18  C   UNL     1     -39.781 -52.188  13.775  1.00  0.00     0.259 C 
HETATM   19  N   UNL     1     -39.345 -50.889  14.092  1.00  0.00    -0.347 N 
HETATM   20  C   UNL     1     -38.787 -50.512  15.391  1.00  0.00     0.153 C 
HETATM   21  O   UNL     1     -40.182 -52.462  12.639  1.00  0.00    -0.267 OA
BRANCH  19  22
HETATM   22  C   UNL     1     -39.282 -49.880  13.010  1.00  0.00     0.087 C 
HETATM   23  C   UNL     1     -39.844 -48.509  13.420  1.00  0.00     0.033 C 
BRANCH  22  24
HETATM   24  C   UNL     1     -37.861 -49.700  12.511  1.00  0.00     0.008 A 
HETATM   25  C   UNL     1     -37.561 -50.004  11.055  1.00  0.00     0.007 A 
HETATM   26  C   UNL     1     -36.986 -50.874  12.133  1.00  0.00     0.007 A 
ENDBRANCH  22  24
ENDBRANCH  19  22
ENDBRANCH   1  18
TORSDOF 7
ENDMDL
