MODEL 1
REMARK VINA RESULT:      -5.8      0.000      0.000
REMARK  4 active torsions:
REMARK  status: ('A' for Active; 'I' for Inactive)
REMARK    1  A    between atoms: O_2  and  C_3 
REMARK    2  A    between atoms: C_3  and  C_4 
REMARK    3  A    between atoms: C_4  and  N_5 
REMARK    4  A    between atoms: C_6  and  N_18 
ROOT
HETATM    1  N   UNL     1     -40.592 -48.717  11.885  1.00  0.00    -0.172 N 
HETATM    2  C   UNL     1     -41.601 -49.663  12.052  1.00  0.00     0.685 A 
HETATM    3  N   UNL     1     -42.685 -49.294  11.389  1.00  0.00    -0.174 N 
ATOM      4  HN  UNL     1     -43.556 -49.817  11.294  1.00  0.00     0.186 HD
HETATM    5  C   UNL     1     -42.399 -48.071  10.862  1.00  0.00     0.160 A 
HETATM    6  N   UNL     1     -43.245 -47.249  10.144  1.00  0.00    -0.287 N 
HETATM    7  C   UNL     1     -44.630 -47.578   9.881  1.00  0.00     0.163 C 
HETATM    8  C   UNL     1     -42.769 -46.021   9.689  1.00  0.00     0.330 A 
HETATM    9  O   UNL     1     -43.454 -45.208   9.067  1.00  0.00    -0.246 OA
HETATM   10  N   UNL     1     -41.453 -45.714   9.960  1.00  0.00    -0.273 N 
HETATM   11  C   UNL     1     -40.545 -46.490  10.638  1.00  0.00     0.280 A 
HETATM   12  O   UNL     1     -39.382 -46.138  10.779  1.00  0.00    -0.265 OA
HETATM   13  C   UNL     1     -41.111 -47.706  11.117  1.00  0.00     0.164 A 
HETATM   14  H   UNL     1     -41.121 -44.828   9.612  1.00  0.00     0.173 HD
ENDROOT
BRANCH   2  15
HETATM   15  N   UNL     1     -41.417 -50.822  12.743  1.00  0.00    -0.214 N 
HETATM   16  C   UNL     1     -41.489 -52.109  12.022  1.00  0.00     0.171 C 
HETATM   17  C   UNL     1     -42.636 -53.023  12.513  1.00  0.00     0.290 C 
HETATM   18  N   UNL     1     -42.689 -53.182  13.980  1.00  0.00     0.086 N 
HETATM   19  C   UNL     1     -42.830 -51.841  14.562  1.00  0.00     0.290 C 
HETATM   20  H   UNL     1     -41.802 -53.576  14.293  1.00  0.00     0.316 HD
HETATM   21  C   UNL     1     -41.683 -50.885  14.189  1.00  0.00     0.171 C 
ENDBRANCH   2  15
BRANCH   1  22
HETATM   22  C   UNL     1     -39.237 -48.749  12.385  1.00  0.00     0.174 C 
BRANCH  22  23
HETATM   23  C   UNL     1     -38.250 -49.498  11.508  1.00  0.00     0.187 C 
BRANCH  23  24
HETATM   24  O   UNL     1     -38.127 -50.817  12.051  1.00  0.00    -0.394 OA
HETATM   25  C   UNL     1     -37.829 -50.807  13.437  1.00  0.00     0.201 C 
ENDBRANCH  23  24
ENDBRANCH  22  23
ENDBRANCH   1  22
TORSDOF 4
ENDMDL
MODEL 2
REMARK VINA RESULT:      -5.6      1.846      5.600
REMARK  4 active torsions:
REMARK  status: ('A' for Active; 'I' for Inactive)
REMARK    1  A    between atoms: O_2  and  C_3 
REMARK    2  A    between atoms: C_3  and  C_4 
REMARK    3  A    between atoms: C_4  and  N_5 
REMARK    4  A    between atoms: C_6  and  N_18 
ROOT
HETATM    1  N   UNL     1     -40.936 -47.592  11.528  1.00  0.00    -0.172 N 
HETATM    2  C   UNL     1     -41.986 -48.169  10.818  1.00  0.00     0.685 A 
HETATM    3  N   UNL     1     -42.003 -49.478  11.014  1.00  0.00    -0.174 N 
ATOM      4  HN  UNL     1     -42.689 -50.145  10.660  1.00  0.00     0.186 HD
HETATM    5  C   UNL     1     -40.915 -49.751  11.787  1.00  0.00     0.160 A 
HETATM    6  N   UNL     1     -40.470 -50.992  12.200  1.00  0.00    -0.287 N 
HETATM    7  C   UNL     1     -41.110 -52.229  11.809  1.00  0.00     0.163 C 
HETATM    8  C   UNL     1     -39.323 -51.070  12.987  1.00  0.00     0.330 A 
HETATM    9  O   UNL     1     -38.833 -52.130  13.380  1.00  0.00    -0.246 OA
HETATM   10  N   UNL     1     -38.715 -49.885  13.339  1.00  0.00    -0.273 N 
HETATM   11  C   UNL     1     -39.115 -48.616  12.995  1.00  0.00     0.280 A 
HETATM   12  O   UNL     1     -38.525 -47.627  13.406  1.00  0.00    -0.265 OA
HETATM   13  C   UNL     1     -40.261 -48.611  12.150  1.00  0.00     0.164 A 
HETATM   14  H   UNL     1     -37.896 -49.959  13.921  1.00  0.00     0.173 HD
ENDROOT
BRANCH   2  15
HETATM   15  N   UNL     1     -42.884 -47.435  10.104  1.00  0.00    -0.214 N 
HETATM   16  C   UNL     1     -44.265 -47.300  10.608  1.00  0.00     0.171 C 
HETATM   17  C   UNL     1     -45.326 -47.903   9.658  1.00  0.00     0.290 C 
HETATM   18  N   UNL     1     -45.182 -47.477   8.252  1.00  0.00     0.086 N 
HETATM   19  C   UNL     1     -43.835 -47.861   7.812  1.00  0.00     0.290 C 
HETATM   20  H   UNL     1     -45.253 -46.460   8.215  1.00  0.00     0.316 HD
HETATM   21  C   UNL     1     -42.710 -47.238   8.656  1.00  0.00     0.171 C 
ENDBRANCH   2  15
BRANCH   1  22
HETATM   22  C   UNL     1     -40.586 -46.194  11.640  1.00  0.00     0.174 C 
BRANCH  22  23
HETATM   23  C   UNL     1     -39.786 -45.641  10.474  1.00  0.00     0.187 C 
BRANCH  23  24
HETATM   24  O   UNL     1     -40.419 -44.420  10.076  1.00  0.00    -0.394 OA
HETATM   25  C   UNL     1     -40.584 -43.517  11.156  1.00  0.00     0.201 C 
ENDBRANCH  23  24
ENDBRANCH  22  23
ENDBRANCH   1  22
TORSDOF 4
ENDMDL
MODEL 3
REMARK VINA RESULT:      -5.6      2.841      5.728
REMARK  4 active torsions:
REMARK  status: ('A' for Active; 'I' for Inactive)
REMARK    1  A    between atoms: O_2  and  C_3 
REMARK    2  A    between atoms: C_3  and  C_4 
REMARK    3  A    between atoms: C_4  and  N_5 
REMARK    4  A    between atoms: C_6  and  N_18 
ROOT
HETATM    1  N   UNL     1     -41.615 -50.984  12.396  1.00  0.00    -0.172 N 
HETATM    2  C   UNL     1     -42.477 -49.890  12.436  1.00  0.00     0.685 A 
HETATM    3  N   UNL     1     -43.709 -50.291  12.708  1.00  0.00    -0.174 N 
ATOM      4  HN  UNL     1     -44.531 -49.703  12.847  1.00  0.00     0.186 HD
HETATM    5  C   UNL     1     -43.653 -51.651  12.764  1.00  0.00     0.160 A 
HETATM    6  N   UNL     1     -44.704 -52.526  12.952  1.00  0.00    -0.287 N 
HETATM    7  C   UNL     1     -46.079 -52.092  13.080  1.00  0.00     0.163 C 
HETATM    8  C   UNL     1     -44.448 -53.896  12.972  1.00  0.00     0.330 A 
HETATM    9  O   UNL     1     -45.321 -54.755  13.105  1.00  0.00    -0.246 OA
HETATM   10  N   UNL     1     -43.136 -54.296  12.835  1.00  0.00    -0.273 N 
HETATM   11  C   UNL     1     -42.037 -53.487  12.675  1.00  0.00     0.280 A 
HETATM   12  O   UNL     1     -40.907 -53.949  12.612  1.00  0.00    -0.265 OA
HETATM   13  C   UNL     1     -42.376 -52.105  12.613  1.00  0.00     0.164 A 
HETATM   14  H   UNL     1     -42.967 -55.288  12.866  1.00  0.00     0.173 HD
ENDROOT
BRANCH   2  15
HETATM   15  N   UNL     1     -42.045 -48.607  12.289  1.00  0.00    -0.214 N 
HETATM   16  C   UNL     1     -42.118 -47.687  13.441  1.00  0.00     0.171 C 
HETATM   17  C   UNL     1     -43.049 -46.476  13.201  1.00  0.00     0.290 C 
HETATM   18  N   UNL     1     -42.807 -45.778  11.923  1.00  0.00     0.086 N 
HETATM   19  C   UNL     1     -42.975 -46.764  10.847  1.00  0.00     0.290 C 
HETATM   20  H   UNL     1     -41.841 -45.453  11.911  1.00  0.00     0.316 HD
HETATM   21  C   UNL     1     -42.026 -47.969  10.962  1.00  0.00     0.171 C 
ENDBRANCH   2  15
BRANCH   1  22
HETATM   22  C   UNL     1     -40.186 -50.997  12.187  1.00  0.00     0.174 C 
BRANCH  22  23
HETATM   23  C   UNL     1     -39.355 -50.999  13.458  1.00  0.00     0.187 C 
BRANCH  23  24
HETATM   24  O   UNL     1     -38.108 -51.626  13.141  1.00  0.00    -0.394 OA
HETATM   25  C   UNL     1     -37.338 -50.867  12.224  1.00  0.00     0.201 C 
ENDBRANCH  23  24
ENDBRANCH  22  23
ENDBRANCH   1  22
TORSDOF 4
ENDMDL
MODEL 4
REMARK VINA RESULT:      -5.5      2.074      3.045
REMARK  4 active torsions:
REMARK  status: ('A' for Active; 'I' for Inactive)
REMARK    1  A    between atoms: O_2  and  C_3 
REMARK    2  A    between atoms: C_3  and  C_4 
REMARK    3  A    between atoms: C_4  and  N_5 
REMARK    4  A    between atoms: C_6  and  N_18 
ROOT
HETATM    1  N   UNL     1     -41.704 -50.724  13.125  1.00  0.00    -0.172 N 
HETATM    2  C   UNL     1     -43.092 -50.665  13.020  1.00  0.00     0.685 A 
HETATM    3  N   UNL     1     -43.448 -49.640  12.263  1.00  0.00    -0.174 N 
ATOM      4  HN  UNL     1     -44.394 -49.386  11.976  1.00  0.00     0.186 HD
HETATM    5  C   UNL     1     -42.292 -48.992  11.948  1.00  0.00     0.160 A 
HETATM    6  N   UNL     1     -42.157 -47.819  11.231  1.00  0.00    -0.287 N 
HETATM    7  C   UNL     1     -43.287 -47.066  10.732  1.00  0.00     0.163 C 
HETATM    8  C   UNL     1     -40.881 -47.303  11.015  1.00  0.00     0.330 A 
HETATM    9  O   UNL     1     -40.660 -46.250  10.414  1.00  0.00    -0.246 OA
HETATM   10  N   UNL     1     -39.815 -48.024  11.509  1.00  0.00    -0.273 N 
HETATM   11  C   UNL     1     -39.868 -49.208  12.202  1.00  0.00     0.280 A 
HETATM   12  O   UNL     1     -38.851 -49.790  12.553  1.00  0.00    -0.265 OA
HETATM   13  C   UNL     1     -41.202 -49.653  12.431  1.00  0.00     0.164 A 
HETATM   14  H   UNL     1     -38.899 -47.643  11.331  1.00  0.00     0.173 HD
ENDROOT
BRANCH   2  15
HETATM   15  N   UNL     1     -43.912 -51.602  13.571  1.00  0.00    -0.214 N 
HETATM   16  C   UNL     1     -44.252 -52.809  12.791  1.00  0.00     0.171 C 
HETATM   17  C   UNL     1     -45.763 -52.934  12.484  1.00  0.00     0.290 C 
HETATM   18  N   UNL     1     -46.631 -52.749  13.664  1.00  0.00     0.086 N 
HETATM   19  C   UNL     1     -46.338 -51.421  14.219  1.00  0.00     0.290 C 
HETATM   20  H   UNL     1     -46.381 -53.449  14.361  1.00  0.00     0.316 HD
HETATM   21  C   UNL     1     -44.867 -51.235  14.629  1.00  0.00     0.171 C 
ENDBRANCH   2  15
BRANCH   1  22
HETATM   22  C   UNL     1     -40.893 -51.707  13.806  1.00  0.00     0.174 C 
BRANCH  22  23
HETATM   23  C   UNL     1     -40.534 -52.924  12.973  1.00  0.00     0.187 C 
BRANCH  23  24
HETATM   24  O   UNL     1     -39.226 -53.339  13.382  1.00  0.00    -0.394 OA
HETATM   25  C   UNL     1     -39.246 -54.550  14.119  1.00  0.00     0.201 C 
ENDBRANCH  23  24
ENDBRANCH  22  23
ENDBRANCH   1  22
TORSDOF 4
ENDMDL
MODEL 5
REMARK VINA RESULT:      -5.4      2.249      2.912
REMARK  4 active torsions:
REMARK  status: ('A' for Active; 'I' for Inactive)
REMARK    1  A    between atoms: O_2  and  C_3 
REMARK    2  A    between atoms: C_3  and  C_4 
REMARK    3  A    between atoms: C_4  and  N_5 
REMARK    4  A    between atoms: C_6  and  N_18 
ROOT
HETATM    1  N   UNL     1     -40.760 -47.750  11.840  1.00  0.00    -0.172 N 
HETATM    2  C   UNL     1     -40.681 -48.909  11.072  1.00  0.00     0.685 A 
HETATM    3  N   UNL     1     -41.435 -48.790   9.991  1.00  0.00    -0.174 N 
ATOM      4  HN  UNL     1     -41.529 -49.463   9.229  1.00  0.00     0.186 HD
HETATM    5  C   UNL     1     -42.061 -47.586  10.105  1.00  0.00     0.160 A 
HETATM    6  N   UNL     1     -43.004 -47.047   9.252  1.00  0.00    -0.287 N 
HETATM    7  C   UNL     1     -43.507 -47.746   8.090  1.00  0.00     0.163 C 
HETATM    8  C   UNL     1     -43.540 -45.794   9.543  1.00  0.00     0.330 A 
HETATM    9  O   UNL     1     -44.405 -45.243   8.860  1.00  0.00    -0.246 OA
HETATM   10  N   UNL     1     -43.062 -45.145  10.662  1.00  0.00    -0.273 N 
HETATM   11  C   UNL     1     -42.107 -45.602  11.537  1.00  0.00     0.280 A 
HETATM   12  O   UNL     1     -41.720 -44.919  12.475  1.00  0.00    -0.265 OA
HETATM   13  C   UNL     1     -41.640 -46.907  11.210  1.00  0.00     0.164 A 
HETATM   14  H   UNL     1     -43.449 -44.235  10.849  1.00  0.00     0.173 HD
ENDROOT
BRANCH   2  15
HETATM   15  N   UNL     1     -39.867 -49.952  11.394  1.00  0.00    -0.214 N 
HETATM   16  C   UNL     1     -40.403 -51.055  12.217  1.00  0.00     0.171 C 
HETATM   17  C   UNL     1     -39.682 -51.211  13.577  1.00  0.00     0.290 C 
HETATM   18  N   UNL     1     -38.209 -51.232  13.475  1.00  0.00     0.086 N 
HETATM   19  C   UNL     1     -37.797 -49.980  12.827  1.00  0.00     0.290 C 
HETATM   20  H   UNL     1     -37.939 -52.009  12.872  1.00  0.00     0.316 HD
HETATM   21  C   UNL     1     -38.406 -49.781  11.428  1.00  0.00     0.171 C 
ENDBRANCH   2  15
BRANCH   1  22
HETATM   22  C   UNL     1     -40.061 -47.431  13.064  1.00  0.00     0.174 C 
BRANCH  22  23
HETATM   23  C   UNL     1     -40.801 -47.800  14.337  1.00  0.00     0.187 C 
BRANCH  23  24
HETATM   24  O   UNL     1     -39.812 -48.169  15.304  1.00  0.00    -0.394 OA
HETATM   25  C   UNL     1     -38.705 -47.284  15.312  1.00  0.00     0.201 C 
ENDBRANCH  23  24
ENDBRANCH  22  23
ENDBRANCH   1  22
TORSDOF 4
ENDMDL
MODEL 6
REMARK VINA RESULT:      -5.4      4.512      6.458
REMARK  4 active torsions:
REMARK  status: ('A' for Active; 'I' for Inactive)
REMARK    1  A    between atoms: O_2  and  C_3 
REMARK    2  A    between atoms: C_3  and  C_4 
REMARK    3  A    between atoms: C_4  and  N_5 
REMARK    4  A    between atoms: C_6  and  N_18 
ROOT
HETATM    1  N   UNL     1     -40.751 -53.898  14.436  1.00  0.00    -0.172 N 
HETATM    2  C   UNL     1     -41.203 -54.490  15.613  1.00  0.00     0.685 A 
HETATM    3  N   UNL     1     -42.513 -54.667  15.560  1.00  0.00    -0.174 N 
ATOM      4  HN  UNL     1     -43.102 -55.122  16.258  1.00  0.00     0.186 HD
HETATM    5  C   UNL     1     -42.914 -54.115  14.381  1.00  0.00     0.160 A 
HETATM    6  N   UNL     1     -44.207 -53.992  13.910  1.00  0.00    -0.287 N 
HETATM    7  C   UNL     1     -45.365 -54.418  14.664  1.00  0.00     0.163 C 
HETATM    8  C   UNL     1     -44.420 -53.385  12.673  1.00  0.00     0.330 A 
HETATM    9  O   UNL     1     -45.535 -53.205  12.182  1.00  0.00    -0.246 OA
HETATM   10  N   UNL     1     -43.308 -52.971  11.972  1.00  0.00    -0.273 N 
HETATM   11  C   UNL     1     -41.995 -53.086  12.360  1.00  0.00     0.280 A 
HETATM   12  O   UNL     1     -41.080 -52.726  11.633  1.00  0.00    -0.265 OA
HETATM   13  C   UNL     1     -41.853 -53.667  13.652  1.00  0.00     0.164 A 
HETATM   14  H   UNL     1     -43.480 -52.548  11.074  1.00  0.00     0.173 HD
ENDROOT
BRANCH   2  15
HETATM   15  N   UNL     1     -40.362 -54.883  16.609  1.00  0.00    -0.214 N 
HETATM   16  C   UNL     1     -39.864 -53.878  17.569  1.00  0.00     0.171 C 
HETATM   17  C   UNL     1     -38.327 -53.704  17.533  1.00  0.00     0.290 C 
HETATM   18  N   UNL     1     -37.579 -54.975  17.592  1.00  0.00     0.086 N 
HETATM   19  C   UNL     1     -38.020 -55.796  16.457  1.00  0.00     0.290 C 
HETATM   20  H   UNL     1     -37.832 -55.458  18.454  1.00  0.00     0.316 HD
HETATM   21  C   UNL     1     -39.530 -56.089  16.458  1.00  0.00     0.171 C 
ENDBRANCH   2  15
BRANCH   1  22
HETATM   22  C   UNL     1     -39.395 -53.579  14.051  1.00  0.00     0.174 C 
BRANCH  22  23
HETATM   23  C   UNL     1     -38.990 -52.134  14.280  1.00  0.00     0.187 C 
BRANCH  23  24
HETATM   24  O   UNL     1     -38.085 -51.782  13.227  1.00  0.00    -0.394 OA
HETATM   25  C   UNL     1     -38.468 -50.592  12.559  1.00  0.00     0.201 C 
ENDBRANCH  23  24
ENDBRANCH  22  23
ENDBRANCH   1  22
TORSDOF 4
ENDMDL
MODEL 7
REMARK VINA RESULT:      -5.3      4.177      7.748
REMARK  4 active torsions:
REMARK  status: ('A' for Active; 'I' for Inactive)
REMARK    1  A    between atoms: O_2  and  C_3 
REMARK    2  A    between atoms: C_3  and  C_4 
REMARK    3  A    between atoms: C_4  and  N_5 
REMARK    4  A    between atoms: C_6  and  N_18 
ROOT
HETATM    1  N   UNL     1     -41.645 -53.793  13.846  1.00  0.00    -0.172 N 
HETATM    2  C   UNL     1     -42.827 -54.123  14.505  1.00  0.00     0.685 A 
HETATM    3  N   UNL     1     -42.560 -54.811  15.603  1.00  0.00    -0.174 N 
ATOM      4  HN  UNL     1     -43.227 -55.138  16.302  1.00  0.00     0.186 HD
HETATM    5  C   UNL     1     -41.210 -54.992  15.607  1.00  0.00     0.160 A 
HETATM    6  N   UNL     1     -40.463 -55.713  16.519  1.00  0.00    -0.287 N 
HETATM    7  C   UNL     1     -41.054 -56.442  17.621  1.00  0.00     0.163 C 
HETATM    8  C   UNL     1     -39.082 -55.790  16.350  1.00  0.00     0.330 A 
HETATM    9  O   UNL     1     -38.336 -56.431  17.092  1.00  0.00    -0.246 OA
HETATM   10  N   UNL     1     -38.535 -55.103  15.288  1.00  0.00    -0.273 N 
HETATM   11  C   UNL     1     -39.206 -54.343  14.362  1.00  0.00     0.280 A 
HETATM   12  O   UNL     1     -38.611 -53.733  13.484  1.00  0.00    -0.265 OA
HETATM   13  C   UNL     1     -40.616 -54.348  14.562  1.00  0.00     0.164 A 
HETATM   14  H   UNL     1     -37.534 -55.158  15.190  1.00  0.00     0.173 HD
ENDROOT
BRANCH   2  15
HETATM   15  N   UNL     1     -44.050 -53.702  14.078  1.00  0.00    -0.214 N 
HETATM   16  C   UNL     1     -44.627 -52.470  14.651  1.00  0.00     0.171 C 
HETATM   17  C   UNL     1     -45.949 -52.711  15.417  1.00  0.00     0.290 C 
HETATM   18  N   UNL     1     -46.936 -53.515  14.670  1.00  0.00     0.086 N 
HETATM   19  C   UNL     1     -46.301 -54.799  14.345  1.00  0.00     0.290 C 
HETATM   20  H   UNL     1     -47.150 -53.033  13.797  1.00  0.00     0.316 HD
HETATM   21  C   UNL     1     -45.017 -54.656  13.511  1.00  0.00     0.171 C 
ENDBRANCH   2  15
BRANCH   1  22
HETATM   22  C   UNL     1     -41.472 -53.007  12.646  1.00  0.00     0.174 C 
BRANCH  22  23
HETATM   23  C   UNL     1     -41.337 -51.512  12.876  1.00  0.00     0.187 C 
BRANCH  23  24
HETATM   24  O   UNL     1     -40.838 -50.946  11.660  1.00  0.00    -0.394 OA
HETATM   25  C   UNL     1     -40.614 -49.550  11.764  1.00  0.00     0.201 C 
ENDBRANCH  23  24
ENDBRANCH  22  23
ENDBRANCH   1  22
TORSDOF 4
ENDMDL
MODEL 8
REMARK VINA RESULT:      -4.9      3.276      5.774
REMARK  4 active torsions:
REMARK  status: ('A' for Active; 'I' for Inactive)
REMARK    1  A    between atoms: O_2  and  C_3 
REMARK    2  A    between atoms: C_3  and  C_4 
REMARK    3  A    between atoms: C_4  and  N_5 
REMARK    4  A    between atoms: C_6  and  N_18 
ROOT
HETATM    1  N   UNL     1     -42.309 -52.575  14.118  1.00  0.00    -0.172 N 
HETATM    2  C   UNL     1     -43.153 -52.154  13.093  1.00  0.00     0.685 A 
HETATM    3  N   UNL     1     -42.480 -51.418  12.222  1.00  0.00    -0.174 N 
ATOM      4  HN  UNL     1     -42.831 -51.021  11.351  1.00  0.00     0.186 HD
HETATM    5  C   UNL     1     -41.222 -51.300  12.730  1.00  0.00     0.160 A 
HETATM    6  N   UNL     1     -40.174 -50.565  12.212  1.00  0.00    -0.287 N 
HETATM    7  C   UNL     1     -40.295 -49.748  11.024  1.00  0.00     0.163 C 
HETATM    8  C   UNL     1     -38.953 -50.562  12.885  1.00  0.00     0.330 A 
HETATM    9  O   UNL     1     -37.970 -49.916  12.518  1.00  0.00    -0.246 OA
HETATM   10  N   UNL     1     -38.856 -51.332  14.023  1.00  0.00    -0.273 N 
HETATM   11  C   UNL     1     -39.841 -52.111  14.581  1.00  0.00     0.280 A 
HETATM   12  O   UNL     1     -39.630 -52.797  15.572  1.00  0.00    -0.265 OA
HETATM   13  C   UNL     1     -41.074 -52.029  13.873  1.00  0.00     0.164 A 
HETATM   14  H   UNL     1     -37.963 -51.330  14.489  1.00  0.00     0.173 HD
ENDROOT
BRANCH   2  15
HETATM   15  N   UNL     1     -44.456 -52.540  13.006  1.00  0.00    -0.214 N 
HETATM   16  C   UNL     1     -45.474 -51.816  13.793  1.00  0.00     0.171 C 
HETATM   17  C   UNL     1     -46.190 -52.707  14.835  1.00  0.00     0.290 C 
HETATM   18  N   UNL     1     -46.687 -53.986  14.290  1.00  0.00     0.086 N 
HETATM   19  C   UNL     1     -45.534 -54.699  13.726  1.00  0.00     0.290 C 
HETATM   20  H   UNL     1     -47.339 -53.781  13.533  1.00  0.00     0.316 HD
HETATM   21  C   UNL     1     -44.807 -53.916  12.619  1.00  0.00     0.171 C 
ENDBRANCH   2  15
BRANCH   1  22
HETATM   22  C   UNL     1     -42.613 -53.434  15.238  1.00  0.00     0.174 C 
BRANCH  22  23
HETATM   23  C   UNL     1     -42.251 -54.895  15.039  1.00  0.00     0.187 C 
BRANCH  23  24
HETATM   24  O   UNL     1     -42.909 -55.633  16.074  1.00  0.00    -0.394 OA
HETATM   25  C   UNL     1     -41.998 -56.345  16.895  1.00  0.00     0.201 C 
ENDBRANCH  23  24
ENDBRANCH  22  23
ENDBRANCH   1  22
TORSDOF 4
ENDMDL
MODEL 9
REMARK VINA RESULT:      -4.8      4.514      8.247
REMARK  4 active torsions:
REMARK  status: ('A' for Active; 'I' for Inactive)
REMARK    1  A    between atoms: O_2  and  C_3 
REMARK    2  A    between atoms: C_3  and  C_4 
REMARK    3  A    between atoms: C_4  and  N_5 
REMARK    4  A    between atoms: C_6  and  N_18 
ROOT
HETATM    1  N   UNL     1     -42.210 -53.102  14.415  1.00  0.00    -0.172 N 
HETATM    2  C   UNL     1     -40.986 -52.455  14.261  1.00  0.00     0.685 A 
HETATM    3  N   UNL     1     -40.015 -53.188  14.781  1.00  0.00    -0.174 N 
ATOM      4  HN  UNL     1     -39.015 -52.985  14.767  1.00  0.00     0.186 HD
HETATM    5  C   UNL     1     -40.625 -54.269  15.340  1.00  0.00     0.160 A 
HETATM    6  N   UNL     1     -40.032 -55.286  16.064  1.00  0.00    -0.287 N 
HETATM    7  C   UNL     1     -38.619 -55.313  16.374  1.00  0.00     0.163 C 
HETATM    8  C   UNL     1     -40.831 -56.311  16.567  1.00  0.00     0.330 A 
HETATM    9  O   UNL     1     -40.400 -57.244  17.247  1.00  0.00    -0.246 OA
HETATM   10  N   UNL     1     -42.177 -56.265  16.276  1.00  0.00    -0.273 N 
HETATM   11  C   UNL     1     -42.832 -55.308  15.540  1.00  0.00     0.280 A 
HETATM   12  O   UNL     1     -44.029 -55.392  15.302  1.00  0.00    -0.265 OA
HETATM   13  C   UNL     1     -41.967 -54.265  15.101  1.00  0.00     0.164 A 
HETATM   14  H   UNL     1     -42.737 -57.022  16.635  1.00  0.00     0.173 HD
ENDROOT
BRANCH   2  15
HETATM   15  N   UNL     1     -40.856 -51.276  13.592  1.00  0.00    -0.214 N 
HETATM   16  C   UNL     1     -40.233 -51.274  12.253  1.00  0.00     0.171 C 
HETATM   17  C   UNL     1     -38.926 -50.448  12.187  1.00  0.00     0.290 C 
HETATM   18  N   UNL     1     -39.041 -49.097  12.770  1.00  0.00     0.086 N 
HETATM   19  C   UNL     1     -39.464 -49.257  14.167  1.00  0.00     0.290 C 
HETATM   20  H   UNL     1     -39.771 -48.591  12.270  1.00  0.00     0.316 HD
HETATM   21  C   UNL     1     -40.803 -49.999  14.323  1.00  0.00     0.171 C 
ENDBRANCH   2  15
BRANCH   1  22
HETATM   22  C   UNL     1     -43.513 -52.687  13.949  1.00  0.00     0.174 C 
BRANCH  22  23
HETATM   23  C   UNL     1     -43.845 -53.105  12.528  1.00  0.00     0.187 C 
BRANCH  23  24
HETATM   24  O   UNL     1     -45.207 -53.547  12.530  1.00  0.00    -0.394 OA
HETATM   25  C   UNL     1     -46.127 -52.469  12.491  1.00  0.00     0.201 C 
ENDBRANCH  23  24
ENDBRANCH  22  23
ENDBRANCH   1  22
TORSDOF 4
ENDMDL
