MODEL 1
REMARK VINA RESULT:      -5.8      0.000      0.000
REMARK  6 active torsions:
REMARK  status: ('A' for Active; 'I' for Inactive)
REMARK    1  A    between atoms: N1_1  and  C1*_2 
REMARK    2  A    between atoms: C2*_6  and  O2*_14 
REMARK    3  A    between atoms: C3*_9  and  O3*_16 
REMARK    4  A    between atoms: C4*_10  and  C5*_17 
REMARK    5  A    between atoms: C4_12  and  N4_15 
REMARK    6  A    between atoms: C5*_17  and  O5*_18 
ROOT
ATOM      1  C1*   C A   1     -40.933 -51.594  13.418  1.00  0.00     0.263 C 
ATOM      2  C2*   C A   1     -41.676 -52.706  12.636  1.00  0.00     0.198 C 
ATOM      3  O4*   C A   1     -40.523 -52.174  14.677  1.00  0.00    -0.353 OA
ATOM      4  C3*   C A   1     -41.426 -53.997  13.410  1.00  0.00     0.182 C 
ATOM      5  C4*   C A   1     -40.522 -53.610  14.575  1.00  0.00     0.179 C 
ENDROOT
BRANCH   1   6
ATOM      6  N1    C A   1     -39.793 -51.001  12.713  1.00  0.00    -0.280 N 
ATOM      7  C2    C A   1     -40.073 -50.136  11.642  1.00  0.00     0.330 C 
ATOM      8  N3    C A   1     -39.026 -49.755  10.831  1.00  0.00    -0.295 N 
ATOM      9  O2    C A   1     -41.222 -49.767  11.413  1.00  0.00    -0.246 OA
ATOM     10  C4    C A   1     -37.812 -50.094  11.134  1.00  0.00     0.103 C 
ATOM     11  H3    C A   1     -39.206 -49.207   9.990  1.00  0.00     0.172 HD
ATOM     12  C5    C A   1     -37.466 -50.834  12.358  1.00  0.00     0.065 C 
ATOM     13  C6    C A   1     -38.493 -51.225  13.104  1.00  0.00     0.102 C 
BRANCH  10  14
ATOM     14  N4    C A   1     -36.811 -49.727  10.281  1.00  0.00    -0.385 N 
ATOM     15  H41   C A   1     -36.014 -49.311  10.751  1.00  0.00     0.157 HD
ATOM     16  H42   C A   1     -36.571 -50.350   9.523  1.00  0.00     0.157 HD
ENDBRANCH  10  14
ENDBRANCH   1   6
BRANCH   2  17
ATOM     17  O2*   C A   1     -41.284 -52.878  11.274  1.00  0.00    -0.388 OA
ATOM     18  H2*   C A   1     -42.077 -53.045  10.737  1.00  0.00     0.210 HD
ENDBRANCH   2  17
BRANCH   4  19
ATOM     19  O3*   C A   1     -42.660 -54.542  13.904  1.00  0.00    -0.390 OA
ATOM     20  H3*   C A   1     -43.388 -53.952  13.651  1.00  0.00     0.210 HD
ENDBRANCH   4  19
BRANCH   5  21
ATOM     21  C5*   C A   1     -39.088 -54.131  14.392  1.00  0.00     0.198 C 
BRANCH  21  22
ATOM     22  O5*   C A   1     -38.935 -54.919  13.222  1.00  0.00    -0.398 OA
ATOM     23  H5*   C A   1     -37.985 -54.986  13.023  1.00  0.00     0.209 HD
ENDBRANCH  21  22
ENDBRANCH   5  21
TORSDOF 6
ENDMDL
MODEL 2
REMARK VINA RESULT:      -5.6      5.606      8.271
REMARK  6 active torsions:
REMARK  status: ('A' for Active; 'I' for Inactive)
REMARK    1  A    between atoms: N1_1  and  C1*_2 
REMARK    2  A    between atoms: C2*_6  and  O2*_14 
REMARK    3  A    between atoms: C3*_9  and  O3*_16 
REMARK    4  A    between atoms: C4*_10  and  C5*_17 
REMARK    5  A    between atoms: C4_12  and  N4_15 
REMARK    6  A    between atoms: C5*_17  and  O5*_18 
ROOT
ATOM      1  C1*   C A   1     -41.306 -46.081  11.778  1.00  0.00     0.263 C 
ATOM      2  C2*   C A   1     -39.933 -45.491  11.367  1.00  0.00     0.198 C 
ATOM      3  O4*   C A   1     -41.995 -45.051  12.521  1.00  0.00    -0.353 OA
ATOM      4  C3*   C A   1     -40.007 -44.002  11.689  1.00  0.00     0.182 C 
ATOM      5  C4*   C A   1     -41.414 -43.767  12.228  1.00  0.00     0.179 C 
ENDROOT
BRANCH   1   6
ATOM      6  N1    C A   1     -42.126 -46.571  10.667  1.00  0.00    -0.280 N 
ATOM      7  C2    C A   1     -41.986 -47.920  10.303  1.00  0.00     0.330 C 
ATOM      8  N3    C A   1     -42.570 -48.335   9.126  1.00  0.00    -0.295 N 
ATOM      9  O2    C A   1     -41.326 -48.694  10.993  1.00  0.00    -0.246 OA
ATOM     10  C4    C A   1     -43.324 -47.523   8.453  1.00  0.00     0.103 C 
ATOM     11  H3    C A   1     -42.409 -49.282   8.783  1.00  0.00     0.172 HD
ATOM     12  C5    C A   1     -43.650 -46.163   8.911  1.00  0.00     0.065 C 
ATOM     13  C6    C A   1     -43.044 -45.770  10.026  1.00  0.00     0.102 C 
BRANCH  10  14
ATOM     14  N4    C A   1     -43.851 -47.965   7.274  1.00  0.00    -0.385 N 
ATOM     15  H41   C A   1     -43.692 -47.330   6.499  1.00  0.00     0.157 HD
ATOM     16  H42   C A   1     -43.757 -48.943   7.040  1.00  0.00     0.157 HD
ENDBRANCH  10  14
ENDBRANCH   1   6
BRANCH   2  17
ATOM     17  O2*   C A   1     -39.564 -45.670   9.999  1.00  0.00    -0.388 OA
ATOM     18  H2*   C A   1     -39.915 -44.927   9.479  1.00  0.00     0.210 HD
ENDBRANCH   2  17
BRANCH   4  19
ATOM     19  O3*   C A   1     -39.033 -43.647  12.683  1.00  0.00    -0.390 OA
ATOM     20  H3*   C A   1     -39.389 -43.858  13.562  1.00  0.00     0.210 HD
ENDBRANCH   4  19
BRANCH   5  21
ATOM     21  C5*   C A   1     -42.294 -42.997  11.230  1.00  0.00     0.198 C 
BRANCH  21  22
ATOM     22  O5*   C A   1     -41.540 -42.189  10.342  1.00  0.00    -0.398 OA
ATOM     23  H5*   C A   1     -42.129 -41.892   9.627  1.00  0.00     0.209 HD
ENDBRANCH  21  22
ENDBRANCH   5  21
TORSDOF 6
ENDMDL
MODEL 3
REMARK VINA RESULT:      -5.2      2.790      5.725
REMARK  6 active torsions:
REMARK  status: ('A' for Active; 'I' for Inactive)
REMARK    1  A    between atoms: N1_1  and  C1*_2 
REMARK    2  A    between atoms: C2*_6  and  O2*_14 
REMARK    3  A    between atoms: C3*_9  and  O3*_16 
REMARK    4  A    between atoms: C4*_10  and  C5*_17 
REMARK    5  A    between atoms: C4_12  and  N4_15 
REMARK    6  A    between atoms: C5*_17  and  O5*_18 
ROOT
ATOM      1  C1*   C A   1     -40.642 -49.589  12.733  1.00  0.00     0.263 C 
ATOM      2  C2*   C A   1     -40.180 -49.189  11.310  1.00  0.00     0.198 C 
ATOM      3  O4*   C A   1     -41.268 -48.420  13.310  1.00  0.00    -0.353 OA
ATOM      4  C3*   C A   1     -40.814 -47.830  11.032  1.00  0.00     0.182 C 
ATOM      5  C4*   C A   1     -41.649 -47.505  12.265  1.00  0.00     0.179 C 
ENDROOT
BRANCH   1   6
ATOM      6  N1    C A   1     -41.536 -50.749  12.791  1.00  0.00    -0.280 N 
ATOM      7  C2    C A   1     -40.979 -52.009  12.514  1.00  0.00     0.330 C 
ATOM      8  N3    C A   1     -41.841 -53.070  12.337  1.00  0.00    -0.295 N 
ATOM      9  O2    C A   1     -39.764 -52.149  12.391  1.00  0.00    -0.246 OA
ATOM     10  C4    C A   1     -43.112 -52.916  12.545  1.00  0.00     0.103 C 
ATOM     11  H3    C A   1     -41.479 -53.977  12.042  1.00  0.00     0.172 HD
ATOM     12  C5    C A   1     -43.701 -51.657  13.027  1.00  0.00     0.065 C 
ATOM     13  C6    C A   1     -42.859 -50.638  13.152  1.00  0.00     0.102 C 
BRANCH  10  14
ATOM     14  N4    C A   1     -43.932 -53.984  12.321  1.00  0.00    -0.385 N 
ATOM     15  H41   C A   1     -43.683 -54.517  11.495  1.00  0.00     0.157 HD
ATOM     16  H42   C A   1     -44.218 -54.546  13.110  1.00  0.00     0.157 HD
ENDBRANCH  10  14
ENDBRANCH   1   6
BRANCH   2  17
ATOM     17  O2*   C A   1     -40.521 -50.102  10.266  1.00  0.00    -0.388 OA
ATOM     18  H2*   C A   1     -39.731 -50.617  10.027  1.00  0.00     0.210 HD
ENDBRANCH   2  17
BRANCH   4  19
ATOM     19  O3*   C A   1     -39.805 -46.826  10.842  1.00  0.00    -0.390 OA
ATOM     20  H3*   C A   1     -39.358 -46.665  11.689  1.00  0.00     0.210 HD
ENDBRANCH   4  19
BRANCH   5  21
ATOM     21  C5*   C A   1     -43.157 -47.612  11.987  1.00  0.00     0.198 C 
BRANCH  21  22
ATOM     22  O5*   C A   1     -43.443 -48.175  10.717  1.00  0.00    -0.398 OA
ATOM     23  H5*   C A   1     -44.341 -48.546  10.745  1.00  0.00     0.209 HD
ENDBRANCH  21  22
ENDBRANCH   5  21
TORSDOF 6
ENDMDL
MODEL 4
REMARK VINA RESULT:      -5.2      4.698      6.807
REMARK  6 active torsions:
REMARK  status: ('A' for Active; 'I' for Inactive)
REMARK    1  A    between atoms: N1_1  and  C1*_2 
REMARK    2  A    between atoms: C2*_6  and  O2*_14 
REMARK    3  A    between atoms: C3*_9  and  O3*_16 
REMARK    4  A    between atoms: C4*_10  and  C5*_17 
REMARK    5  A    between atoms: C4_12  and  N4_15 
REMARK    6  A    between atoms: C5*_17  and  O5*_18 
ROOT
ATOM      1  C1*   C A   1     -42.519 -46.570  11.417  1.00  0.00     0.263 C 
ATOM      2  C2*   C A   1     -42.225 -45.369  10.483  1.00  0.00     0.198 C 
ATOM      3  O4*   C A   1     -43.774 -47.137  10.980  1.00  0.00    -0.353 OA
ATOM      4  C3*   C A   1     -43.242 -45.464   9.350  1.00  0.00     0.182 C 
ATOM      5  C4*   C A   1     -44.054 -46.723   9.630  1.00  0.00     0.179 C 
ENDROOT
BRANCH   1   6
ATOM      6  N1    C A   1     -41.466 -47.589  11.463  1.00  0.00    -0.280 N 
ATOM      7  C2    C A   1     -40.273 -47.257  12.127  1.00  0.00     0.330 C 
ATOM      8  N3    C A   1     -39.197 -48.106  11.982  1.00  0.00    -0.295 N 
ATOM      9  O2    C A   1     -40.181 -46.219  12.779  1.00  0.00    -0.246 OA
ATOM     10  C4    C A   1     -39.337 -49.231  11.353  1.00  0.00     0.103 C 
ATOM     11  H3    C A   1     -38.289 -47.850  12.371  1.00  0.00     0.172 HD
ATOM     12  C5    C A   1     -40.626 -49.697  10.817  1.00  0.00     0.065 C 
ATOM     13  C6    C A   1     -41.639 -48.846  10.932  1.00  0.00     0.102 C 
BRANCH  10  14
ATOM     14  N4    C A   1     -38.236 -50.023  11.202  1.00  0.00    -0.385 N 
ATOM     15  H41   C A   1     -38.186 -50.776  11.880  1.00  0.00     0.157 HD
ATOM     16  H42   C A   1     -37.953 -50.282  10.268  1.00  0.00     0.157 HD
ENDBRANCH  10  14
ENDBRANCH   1   6
BRANCH   2  17
ATOM     17  O2*   C A   1     -40.904 -45.310   9.942  1.00  0.00    -0.388 OA
ATOM     18  H2*   C A   1     -40.498 -44.464  10.196  1.00  0.00     0.210 HD
ENDBRANCH   2  17
BRANCH   4  19
ATOM     19  O3*   C A   1     -44.102 -44.314   9.340  1.00  0.00    -0.390 OA
ATOM     20  H3*   C A   1     -44.885 -44.511   8.800  1.00  0.00     0.210 HD
ENDBRANCH   4  19
BRANCH   5  21
ATOM     21  C5*   C A   1     -43.724 -47.855   8.645  1.00  0.00     0.198 C 
BRANCH  21  22
ATOM     22  O5*   C A   1     -43.003 -47.403   7.511  1.00  0.00    -0.398 OA
ATOM     23  H5*   C A   1     -43.637 -47.245   6.791  1.00  0.00     0.209 HD
ENDBRANCH  21  22
ENDBRANCH   5  21
TORSDOF 6
ENDMDL
MODEL 5
REMARK VINA RESULT:      -5.1      3.016      5.827
REMARK  6 active torsions:
REMARK  status: ('A' for Active; 'I' for Inactive)
REMARK    1  A    between atoms: N1_1  and  C1*_2 
REMARK    2  A    between atoms: C2*_6  and  O2*_14 
REMARK    3  A    between atoms: C3*_9  and  O3*_16 
REMARK    4  A    between atoms: C4*_10  and  C5*_17 
REMARK    5  A    between atoms: C4_12  and  N4_15 
REMARK    6  A    between atoms: C5*_17  and  O5*_18 
ROOT
ATOM      1  C1*   C A   1     -41.320 -51.179  13.246  1.00  0.00     0.263 C 
ATOM      2  C2*   C A   1     -40.648 -51.495  11.887  1.00  0.00     0.198 C 
ATOM      3  O4*   C A   1     -41.228 -49.748  13.432  1.00  0.00    -0.353 OA
ATOM      4  C3*   C A   1     -40.419 -50.146  11.212  1.00  0.00     0.182 C 
ATOM      5  C4*   C A   1     -40.996 -49.105  12.165  1.00  0.00     0.179 C 
ENDROOT
BRANCH   1   6
ATOM      6  N1    C A   1     -42.705 -51.641  13.374  1.00  0.00    -0.280 N 
ATOM      7  C2    C A   1     -42.913 -53.017  13.564  1.00  0.00     0.330 C 
ATOM      8  N3    C A   1     -44.201 -53.495  13.455  1.00  0.00    -0.295 N 
ATOM      9  O2    C A   1     -41.970 -53.774  13.779  1.00  0.00    -0.246 OA
ATOM     10  C4    C A   1     -45.190 -52.670  13.304  1.00  0.00     0.103 C 
ATOM     11  H3    C A   1     -44.377 -54.499  13.493  1.00  0.00     0.172 HD
ATOM     12  C5    C A   1     -45.023 -51.208  13.298  1.00  0.00     0.065 C 
ATOM     13  C6    C A   1     -43.771 -50.771  13.364  1.00  0.00     0.102 C 
BRANCH  10  14
ATOM     14  N4    C A   1     -46.444 -53.191  13.163  1.00  0.00    -0.385 N 
ATOM     15  H41   C A   1     -46.646 -53.502  12.219  1.00  0.00     0.157 HD
ATOM     16  H42   C A   1     -46.799 -53.797  13.889  1.00  0.00     0.157 HD
ENDBRANCH  10  14
ENDBRANCH   1   6
BRANCH   2  17
ATOM     17  O2*   C A   1     -41.385 -52.351  11.013  1.00  0.00    -0.388 OA
ATOM     18  H2*   C A   1     -41.149 -52.141  10.093  1.00  0.00     0.210 HD
ENDBRANCH   2  17
BRANCH   4  19
ATOM     19  O3*   C A   1     -39.017 -49.908  11.013  1.00  0.00    -0.390 OA
ATOM     20  H3*   C A   1     -38.883 -49.534  10.127  1.00  0.00     0.210 HD
ENDBRANCH   4  19
BRANCH   5  21
ATOM     21  C5*   C A   1     -42.300 -48.492  11.631  1.00  0.00     0.198 C 
BRANCH  21  22
ATOM     22  O5*   C A   1     -42.412 -48.583  10.220  1.00  0.00    -0.398 OA
ATOM     23  H5*   C A   1     -43.355 -48.531   9.987  1.00  0.00     0.209 HD
ENDBRANCH  21  22
ENDBRANCH   5  21
TORSDOF 6
ENDMDL
MODEL 6
REMARK VINA RESULT:      -4.9      4.026      6.019
REMARK  6 active torsions:
REMARK  status: ('A' for Active; 'I' for Inactive)
REMARK    1  A    between atoms: N1_1  and  C1*_2 
REMARK    2  A    between atoms: C2*_6  and  O2*_14 
REMARK    3  A    between atoms: C3*_9  and  O3*_16 
REMARK    4  A    between atoms: C4*_10  and  C5*_17 
REMARK    5  A    between atoms: C4_12  and  N4_15 
REMARK    6  A    between atoms: C5*_17  and  O5*_18 
ROOT
ATOM      1  C1*   C A   1     -43.672 -53.783  12.877  1.00  0.00     0.263 C 
ATOM      2  C2*   C A   1     -42.794 -52.710  12.185  1.00  0.00     0.198 C 
ATOM      3  O4*   C A   1     -42.769 -54.683  13.557  1.00  0.00    -0.353 OA
ATOM      4  C3*   C A   1     -41.384 -52.909  12.734  1.00  0.00     0.182 C 
ATOM      5  C4*   C A   1     -41.493 -54.044  13.746  1.00  0.00     0.179 C 
ENDROOT
BRANCH   1   6
ATOM      6  N1    C A   1     -44.684 -53.254  13.796  1.00  0.00    -0.280 N 
ATOM      7  C2    C A   1     -45.839 -52.688  13.231  1.00  0.00     0.330 C 
ATOM      8  N3    C A   1     -46.685 -51.985  14.062  1.00  0.00    -0.295 N 
ATOM      9  O2    C A   1     -46.063 -52.782  12.027  1.00  0.00    -0.246 OA
ATOM     10  C4    C A   1     -46.469 -51.963  15.341  1.00  0.00     0.103 C 
ATOM     11  H3    C A   1     -47.481 -51.482  13.671  1.00  0.00     0.172 HD
ATOM     12  C5    C A   1     -45.377 -52.710  15.985  1.00  0.00     0.065 C 
ATOM     13  C6    C A   1     -44.552 -53.347  15.162  1.00  0.00     0.102 C 
BRANCH  10  14
ATOM     14  N4    C A   1     -47.311 -51.223  16.120  1.00  0.00    -0.385 N 
ATOM     15  H41   C A   1     -47.144 -50.225  16.058  1.00  0.00     0.157 HD
ATOM     16  H42   C A   1     -48.287 -51.482  16.157  1.00  0.00     0.157 HD
ENDBRANCH  10  14
ENDBRANCH   1   6
BRANCH   2  17
ATOM     17  O2*   C A   1     -43.199 -51.355  12.378  1.00  0.00    -0.388 OA
ATOM     18  H2*   C A   1     -42.794 -51.019  13.196  1.00  0.00     0.210 HD
ENDBRANCH   2  17
BRANCH   4  19
ATOM     19  O3*   C A   1     -40.475 -53.272  11.683  1.00  0.00    -0.390 OA
ATOM     20  H3*   C A   1     -39.580 -52.986  11.928  1.00  0.00     0.210 HD
ENDBRANCH   4  19
BRANCH   5  21
ATOM     21  C5*   C A   1     -41.355 -53.544  15.193  1.00  0.00     0.198 C 
BRANCH  21  22
ATOM     22  O5*   C A   1     -41.329 -54.600  16.139  1.00  0.00    -0.398 OA
ATOM     23  H5*   C A   1     -40.535 -55.136  15.973  1.00  0.00     0.209 HD
ENDBRANCH  21  22
ENDBRANCH   5  21
TORSDOF 6
ENDMDL
MODEL 7
REMARK VINA RESULT:      -4.9      4.068      6.828
REMARK  6 active torsions:
REMARK  status: ('A' for Active; 'I' for Inactive)
REMARK    1  A    between atoms: N1_1  and  C1*_2 
REMARK    2  A    between atoms: C2*_6  and  O2*_14 
REMARK    3  A    between atoms: C3*_9  and  O3*_16 
REMARK    4  A    between atoms: C4*_10  and  C5*_17 
REMARK    5  A    between atoms: C4_12  and  N4_15 
REMARK    6  A    between atoms: C5*_17  and  O5*_18 
ROOT
ATOM      1  C1*   C A   1     -43.325 -47.346  11.285  1.00  0.00     0.263 C 
ATOM      2  C2*   C A   1     -42.674 -46.020  10.820  1.00  0.00     0.198 C 
ATOM      3  O4*   C A   1     -44.381 -47.643  10.344  1.00  0.00    -0.353 OA
ATOM      4  C3*   C A   1     -43.246 -45.739   9.433  1.00  0.00     0.182 C 
ATOM      5  C4*   C A   1     -44.163 -46.915   9.120  1.00  0.00     0.179 C 
ENDROOT
BRANCH   1   6
ATOM      6  N1    C A   1     -42.401 -48.477  11.415  1.00  0.00    -0.280 N 
ATOM      7  C2    C A   1     -42.630 -49.382  12.464  1.00  0.00     0.330 C 
ATOM      8  N3    C A   1     -41.648 -50.310  12.741  1.00  0.00    -0.295 N 
ATOM      9  O2    C A   1     -43.654 -49.320  13.140  1.00  0.00    -0.246 OA
ATOM     10  C4    C A   1     -40.611 -50.408  11.969  1.00  0.00     0.103 C 
ATOM     11  H3    C A   1     -41.738 -50.920  13.553  1.00  0.00     0.172 HD
ATOM     12  C5    C A   1     -40.438 -49.605  10.748  1.00  0.00     0.065 C 
ATOM     13  C6    C A   1     -41.375 -48.690  10.523  1.00  0.00     0.102 C 
BRANCH  10  14
ATOM     14  N4    C A   1     -39.646 -51.315  12.303  1.00  0.00    -0.385 N 
ATOM     15  H41   C A   1     -39.699 -51.621  13.269  1.00  0.00     0.157 HD
ATOM     16  H42   C A   1     -39.424 -52.046  11.644  1.00  0.00     0.157 HD
ENDBRANCH  10  14
ENDBRANCH   1   6
BRANCH   2  17
ATOM     17  O2*   C A   1     -41.247 -46.014  10.762  1.00  0.00    -0.388 OA
ATOM     18  H2*   C A   1     -40.923 -46.923  10.887  1.00  0.00     0.210 HD
ENDBRANCH   2  17
BRANCH   4  19
ATOM     19  O3*   C A   1     -43.996 -44.514   9.430  1.00  0.00    -0.390 OA
ATOM     20  H3*   C A   1     -44.291 -44.324  10.336  1.00  0.00     0.210 HD
ENDBRANCH   4  19
BRANCH   5  21
ATOM     21  C5*   C A   1     -43.570 -47.842   8.047  1.00  0.00     0.198 C 
BRANCH  21  22
ATOM     22  O5*   C A   1     -42.973 -47.129   6.976  1.00  0.00    -0.398 OA
ATOM     23  H5*   C A   1     -42.062 -47.454   6.867  1.00  0.00     0.209 HD
ENDBRANCH  21  22
ENDBRANCH   5  21
TORSDOF 6
ENDMDL
MODEL 8
REMARK VINA RESULT:      -4.8      2.160      2.981
REMARK  6 active torsions:
REMARK  status: ('A' for Active; 'I' for Inactive)
REMARK    1  A    between atoms: N1_1  and  C1*_2 
REMARK    2  A    between atoms: C2*_6  and  O2*_14 
REMARK    3  A    between atoms: C3*_9  and  O3*_16 
REMARK    4  A    between atoms: C4*_10  and  C5*_17 
REMARK    5  A    between atoms: C4_12  and  N4_15 
REMARK    6  A    between atoms: C5*_17  and  O5*_18 
ROOT
ATOM      1  C1*   C A   1     -40.714 -51.533  13.853  1.00  0.00     0.263 C 
ATOM      2  C2*   C A   1     -40.316 -52.877  13.192  1.00  0.00     0.198 C 
ATOM      3  O4*   C A   1     -39.664 -51.203  14.789  1.00  0.00    -0.353 OA
ATOM      4  C3*   C A   1     -38.873 -53.136  13.615  1.00  0.00     0.182 C 
ATOM      5  C4*   C A   1     -38.468 -51.933  14.458  1.00  0.00     0.179 C 
ENDROOT
BRANCH   1   6
ATOM      6  N1    C A   1     -40.953 -50.431  12.916  1.00  0.00    -0.280 N 
ATOM      7  C2    C A   1     -42.271 -50.232  12.474  1.00  0.00     0.330 C 
ATOM      8  N3    C A   1     -42.476 -49.358  11.428  1.00  0.00    -0.295 N 
ATOM      9  O2    C A   1     -43.206 -50.850  12.978  1.00  0.00    -0.246 OA
ATOM     10  C4    C A   1     -41.487 -48.660  10.962  1.00  0.00     0.103 C 
ATOM     11  H3    C A   1     -43.405 -49.261  11.019  1.00  0.00     0.172 HD
ATOM     12  C5    C A   1     -40.133 -48.702  11.535  1.00  0.00     0.065 C 
ATOM     13  C6    C A   1     -39.950 -49.579  12.516  1.00  0.00     0.102 C 
BRANCH  10  14
ATOM     14  N4    C A   1     -41.728 -47.836   9.900  1.00  0.00    -0.385 N 
ATOM     15  H41   C A   1     -42.479 -47.175  10.067  1.00  0.00     0.157 HD
ATOM     16  H42   C A   1     -40.939 -47.456   9.397  1.00  0.00     0.157 HD
ENDBRANCH  10  14
ENDBRANCH   1   6
BRANCH   2  17
ATOM     17  O2*   C A   1     -40.417 -52.924  11.768  1.00  0.00    -0.388 OA
ATOM     18  H2*   C A   1     -40.669 -52.043  11.441  1.00  0.00     0.210 HD
ENDBRANCH   2  17
BRANCH   4  19
ATOM     19  O3*   C A   1     -38.779 -54.338  14.394  1.00  0.00    -0.390 OA
ATOM     20  H3*   C A   1     -38.707 -55.098  13.794  1.00  0.00     0.210 HD
ENDBRANCH   4  19
BRANCH   5  21
ATOM     21  C5*   C A   1     -37.472 -51.021  13.723  1.00  0.00     0.198 C 
BRANCH  21  22
ATOM     22  O5*   C A   1     -36.977 -51.600  12.527  1.00  0.00    -0.398 OA
ATOM     23  H5*   C A   1     -37.545 -51.312  11.792  1.00  0.00     0.209 HD
ENDBRANCH  21  22
ENDBRANCH   5  21
TORSDOF 6
ENDMDL
MODEL 9
REMARK VINA RESULT:      -4.8      2.966      4.963
REMARK  6 active torsions:
REMARK  status: ('A' for Active; 'I' for Inactive)
REMARK    1  A    between atoms: N1_1  and  C1*_2 
REMARK    2  A    between atoms: C2*_6  and  O2*_14 
REMARK    3  A    between atoms: C3*_9  and  O3*_16 
REMARK    4  A    between atoms: C4*_10  and  C5*_17 
REMARK    5  A    between atoms: C4_12  and  N4_15 
REMARK    6  A    between atoms: C5*_17  and  O5*_18 
ROOT
ATOM      1  C1*   C A   1     -43.298 -54.676  14.424  1.00  0.00     0.263 C 
ATOM      2  C2*   C A   1     -43.682 -54.112  15.816  1.00  0.00     0.198 C 
ATOM      3  O4*   C A   1     -44.533 -54.871  13.700  1.00  0.00    -0.353 OA
ATOM      4  C3*   C A   1     -45.163 -53.757  15.726  1.00  0.00     0.182 C 
ATOM      5  C4*   C A   1     -45.578 -54.079  14.295  1.00  0.00     0.179 C 
ENDROOT
BRANCH   1   6
ATOM      6  N1    C A   1     -42.361 -53.849  13.659  1.00  0.00    -0.280 N 
ATOM      7  C2    C A   1     -41.006 -53.899  14.025  1.00  0.00     0.330 C 
ATOM      8  N3    C A   1     -40.155 -52.964  13.476  1.00  0.00    -0.295 N 
ATOM      9  O2    C A   1     -40.602 -54.723  14.843  1.00  0.00    -0.246 OA
ATOM     10  C4    C A   1     -40.584 -52.153  12.560  1.00  0.00     0.103 C 
ATOM     11  H3    C A   1     -39.186 -52.910  13.790  1.00  0.00     0.172 HD
ATOM     12  C5    C A   1     -41.950 -52.207  12.014  1.00  0.00     0.065 C 
ATOM     13  C6    C A   1     -42.763 -53.088  12.586  1.00  0.00     0.102 C 
BRANCH  10  14
ATOM     14  N4    C A   1     -39.716 -51.219  12.072  1.00  0.00    -0.385 N 
ATOM     15  H41   C A   1     -38.901 -51.623  11.624  1.00  0.00     0.157 HD
ATOM     16  H42   C A   1     -40.094 -50.409  11.601  1.00  0.00     0.157 HD
ENDBRANCH  10  14
ENDBRANCH   1   6
BRANCH   2  17
ATOM     17  O2*   C A   1     -42.939 -52.973  16.251  1.00  0.00    -0.388 OA
ATOM     18  H2*   C A   1     -42.370 -53.234  16.996  1.00  0.00     0.210 HD
ENDBRANCH   2  17
BRANCH   4  19
ATOM     19  O3*   C A   1     -45.931 -54.543  16.651  1.00  0.00    -0.390 OA
ATOM     20  H3*   C A   1     -45.601 -55.456  16.638  1.00  0.00     0.210 HD
ENDBRANCH   4  19
BRANCH   5  21
ATOM     21  C5*   C A   1     -45.824 -52.809  13.466  1.00  0.00     0.198 C 
BRANCH  21  22
ATOM     22  O5*   C A   1     -46.374 -53.085  12.188  1.00  0.00    -0.398 OA
ATOM     23  H5*   C A   1     -47.296 -52.776  12.180  1.00  0.00     0.209 HD
ENDBRANCH  21  22
ENDBRANCH   5  21
TORSDOF 6
ENDMDL
