MODEL 1
REMARK VINA RESULT:      -6.3      0.000      0.000
REMARK  7 active torsions:
REMARK  status: ('A' for Active; 'I' for Inactive)
REMARK    1  A    between atoms: N_2  and  C_10 
REMARK    2  A    between atoms: C_6  and  N_9 
REMARK    3  A    between atoms: C_8  and  C_10 
REMARK    4  A    between atoms: C_8  and  O_21 
REMARK    5  A    between atoms: N_9  and  C_17 
REMARK    6  A    between atoms: N_9  and  C_24 
REMARK    7  A    between atoms: C_17  and  C_22 
ROOT
HETATM    1  C   UNL     1     -41.571 -50.185  12.262  1.00  0.00     0.117 A 
HETATM    2  N   UNL     1     -42.239 -52.123  13.046  1.00  0.00    -0.324 N 
HETATM    3  C   UNL     1     -42.399 -50.774  13.209  1.00  0.00     0.140 A 
HETATM    4  N   UNL     1     -41.008 -51.172  11.462  1.00  0.00    -0.346 N 
ATOM      5  HN  UNL     1     -40.372 -51.041  10.676  1.00  0.00     0.167 HD
HETATM    6  C   UNL     1     -41.427 -48.778  12.324  1.00  0.00     0.114 A 
HETATM    7  C   UNL     1     -41.470 -52.311  11.932  1.00  0.00     0.185 C 
HETATM    8  N   UNL     1     -43.143 -50.162  14.141  1.00  0.00    -0.336 N 
ATOM      9  HN  UNL     1     -43.720 -50.644  14.830  1.00  0.00     0.168 HD
HETATM   10  N   UNL     1     -42.213 -48.125  13.232  1.00  0.00    -0.341 N 
ATOM     11  HN  UNL     1     -42.184 -47.107  13.294  1.00  0.00     0.167 HD
HETATM   12  C   UNL     1     -43.026 -48.828  14.045  1.00  0.00     0.183 A 
ENDROOT
BRANCH   2  13
HETATM   13  C   UNL     1     -42.760 -53.158  13.918  1.00  0.00     0.172 C 
BRANCH  13  14
HETATM   14  C   UNL     1     -44.129 -53.729  13.488  1.00  0.00     0.102 C 
HETATM   15  C   UNL     1     -45.362 -52.897  13.915  1.00  0.00     0.153 C 
HETATM   16  O   UNL     1     -46.432 -53.830  14.201  1.00  0.00    -0.383 OA
HETATM   17  C   UNL     1     -45.893 -51.903  12.895  1.00  0.00     0.042 C 
HETATM   18  C   UNL     1     -45.923 -55.159  14.048  1.00  0.00     0.171 C 
HETATM   19  C   UNL     1     -44.423 -55.044  14.205  1.00  0.00     0.068 C 
BRANCH  14  20
HETATM   20  O   UNL     1     -44.139 -54.044  12.087  1.00  0.00    -0.385 OA
HETATM   21  H   UNL     1     -43.283 -53.797  11.690  1.00  0.00     0.210 HD
ENDBRANCH  14  20
ENDBRANCH  13  14
ENDBRANCH   2  13
BRANCH   6  22
HETATM   22  N   UNL     1     -40.482 -48.048  11.572  1.00  0.00    -0.265 NA
BRANCH  22  23
HETATM   23  C   UNL     1     -39.297 -47.646  12.360  1.00  0.00     0.129 C 
BRANCH  23  24
HETATM   24  C   UNL     1     -38.191 -48.712  12.460  1.00  0.00     0.135 C 
HETATM   25  O   UNL     1     -38.176 -49.665  11.382  1.00  0.00    -0.385 OA
HETATM   26  C   UNL     1     -37.389 -50.762  11.863  1.00  0.00     0.168 C 
HETATM   27  C   UNL     1     -37.802 -50.929  13.309  1.00  0.00     0.029 C 
HETATM   28  C   UNL     1     -38.134 -49.517  13.756  1.00  0.00     0.035 C 
ENDBRANCH  23  24
ENDBRANCH  22  23
BRANCH  22  29
HETATM   29  C   UNL     1     -41.099 -47.023  10.714  1.00  0.00     0.092 C 
HETATM   30  C   UNL     1     -40.326 -45.704  10.679  1.00  0.00     0.021 C 
ENDBRANCH  22  29
ENDBRANCH   6  22
TORSDOF 7
ENDMDL
MODEL 2
REMARK VINA RESULT:      -6.0      2.206      3.929
REMARK  7 active torsions:
REMARK  status: ('A' for Active; 'I' for Inactive)
REMARK    1  A    between atoms: N_2  and  C_10 
REMARK    2  A    between atoms: C_6  and  N_9 
REMARK    3  A    between atoms: C_8  and  C_10 
REMARK    4  A    between atoms: C_8  and  O_21 
REMARK    5  A    between atoms: N_9  and  C_17 
REMARK    6  A    between atoms: N_9  and  C_24 
REMARK    7  A    between atoms: C_17  and  C_22 
ROOT
HETATM    1  C   UNL     1     -42.175 -49.216  12.156  1.00  0.00     0.117 A 
HETATM    2  N   UNL     1     -42.818 -50.707  13.633  1.00  0.00    -0.324 N 
HETATM    3  C   UNL     1     -41.896 -50.486  12.646  1.00  0.00     0.140 A 
HETATM    4  N   UNL     1     -43.180 -48.635  12.920  1.00  0.00    -0.346 N 
ATOM      5  HN  UNL     1     -43.583 -47.705  12.806  1.00  0.00     0.167 HD
HETATM    6  C   UNL     1     -41.460 -48.802  11.007  1.00  0.00     0.114 A 
HETATM    7  C   UNL     1     -43.503 -49.539  13.821  1.00  0.00     0.185 C 
HETATM    8  N   UNL     1     -40.973 -51.351  12.204  1.00  0.00    -0.336 N 
ATOM      9  HN  UNL     1     -40.822 -52.284  12.587  1.00  0.00     0.168 HD
HETATM   10  N   UNL     1     -40.477 -49.645  10.566  1.00  0.00    -0.341 N 
ATOM     11  HN  UNL     1     -39.900 -49.381   9.767  1.00  0.00     0.167 HD
HETATM   12  C   UNL     1     -40.272 -50.822  11.187  1.00  0.00     0.183 A 
ENDROOT
BRANCH   2  13
HETATM   13  C   UNL     1     -43.048 -51.961  14.324  1.00  0.00     0.172 C 
BRANCH  13  14
HETATM   14  C   UNL     1     -44.089 -52.881  13.651  1.00  0.00     0.102 C 
HETATM   15  C   UNL     1     -45.557 -52.659  14.089  1.00  0.00     0.153 C 
HETATM   16  O   UNL     1     -46.209 -53.951  14.081  1.00  0.00    -0.383 OA
HETATM   17  C   UNL     1     -46.389 -51.730  13.219  1.00  0.00     0.042 C 
HETATM   18  C   UNL     1     -45.236 -54.944  13.741  1.00  0.00     0.171 C 
HETATM   19  C   UNL     1     -43.893 -54.333  14.077  1.00  0.00     0.068 C 
BRANCH  14  20
HETATM   20  O   UNL     1     -43.937 -52.874  12.223  1.00  0.00    -0.385 OA
HETATM   21  H   UNL     1     -43.076 -52.481  11.988  1.00  0.00     0.210 HD
ENDBRANCH  14  20
ENDBRANCH  13  14
ENDBRANCH   2  13
BRANCH   6  22
HETATM   22  N   UNL     1     -41.757 -47.637  10.271  1.00  0.00    -0.265 NA
BRANCH  22  23
HETATM   23  C   UNL     1     -41.201 -46.408  10.877  1.00  0.00     0.129 C 
BRANCH  23  24
HETATM   24  C   UNL     1     -42.237 -45.317  11.201  1.00  0.00     0.135 C 
HETATM   25  O   UNL     1     -42.023 -44.065  10.525  1.00  0.00    -0.385 OA
HETATM   26  C   UNL     1     -42.803 -43.108  11.253  1.00  0.00     0.168 C 
HETATM   27  C   UNL     1     -42.610 -43.479  12.707  1.00  0.00     0.029 C 
HETATM   28  C   UNL     1     -42.444 -44.987  12.677  1.00  0.00     0.035 C 
ENDBRANCH  23  24
ENDBRANCH  22  23
BRANCH  22  29
HETATM   29  C   UNL     1     -43.155 -47.587   9.811  1.00  0.00     0.092 C 
HETATM   30  C   UNL     1     -43.305 -47.625   8.290  1.00  0.00     0.021 C 
ENDBRANCH  22  29
ENDBRANCH   6  22
TORSDOF 7
ENDMDL
MODEL 3
REMARK VINA RESULT:      -6.0      2.406      7.296
REMARK  7 active torsions:
REMARK  status: ('A' for Active; 'I' for Inactive)
REMARK    1  A    between atoms: N_2  and  C_10 
REMARK    2  A    between atoms: C_6  and  N_9 
REMARK    3  A    between atoms: C_8  and  C_10 
REMARK    4  A    between atoms: C_8  and  O_21 
REMARK    5  A    between atoms: N_9  and  C_17 
REMARK    6  A    between atoms: N_9  and  C_24 
REMARK    7  A    between atoms: C_17  and  C_22 
ROOT
HETATM    1  C   UNL     1     -41.418 -49.697  11.586  1.00  0.00     0.117 A 
HETATM    2  N   UNL     1     -41.325 -47.556  11.111  1.00  0.00    -0.324 N 
HETATM    3  C   UNL     1     -40.537 -48.654  11.326  1.00  0.00     0.140 A 
HETATM    4  N   UNL     1     -42.724 -49.254  11.413  1.00  0.00    -0.346 N 
ATOM      5  HN  UNL     1     -43.580 -49.798  11.519  1.00  0.00     0.167 HD
HETATM    6  C   UNL     1     -40.851 -50.925  12.003  1.00  0.00     0.114 A 
HETATM    7  C   UNL     1     -42.623 -47.984  11.083  1.00  0.00     0.185 C 
HETATM    8  N   UNL     1     -39.198 -48.687  11.354  1.00  0.00    -0.336 N 
ATOM      9  HN  UNL     1     -38.595 -47.884  11.176  1.00  0.00     0.168 HD
HETATM   10  N   UNL     1     -39.485 -51.000  11.990  1.00  0.00    -0.341 N 
ATOM     11  HN  UNL     1     -39.020 -51.872  12.240  1.00  0.00     0.167 HD
HETATM   12  C   UNL     1     -38.756 -49.920  11.648  1.00  0.00     0.183 A 
ENDROOT
BRANCH   2  13
HETATM   13  C   UNL     1     -40.866 -46.187  10.976  1.00  0.00     0.172 C 
BRANCH  13  14
HETATM   14  C   UNL     1     -40.721 -45.425  12.311  1.00  0.00     0.102 C 
HETATM   15  C   UNL     1     -41.991 -44.688  12.799  1.00  0.00     0.153 C 
HETATM   16  O   UNL     1     -41.557 -43.478  13.465  1.00  0.00    -0.383 OA
HETATM   17  C   UNL     1     -42.879 -45.443  13.775  1.00  0.00     0.042 C 
HETATM   18  C   UNL     1     -40.132 -43.391  13.357  1.00  0.00     0.171 C 
HETATM   19  C   UNL     1     -39.758 -44.249  12.168  1.00  0.00     0.068 C 
BRANCH  14  20
HETATM   20  O   UNL     1     -40.152 -46.268  13.326  1.00  0.00    -0.385 OA
HETATM   21  H   UNL     1     -40.624 -46.129  14.168  1.00  0.00     0.210 HD
ENDBRANCH  14  20
ENDBRANCH  13  14
ENDBRANCH   2  13
BRANCH   6  22
HETATM   22  N   UNL     1     -41.601 -52.015  12.491  1.00  0.00    -0.265 NA
BRANCH  22  23
HETATM   23  C   UNL     1     -42.332 -51.705  13.739  1.00  0.00     0.129 C 
BRANCH  23  24
HETATM   24  C   UNL     1     -43.807 -52.145  13.754  1.00  0.00     0.135 C 
HETATM   25  O   UNL     1     -44.241 -52.835  12.568  1.00  0.00    -0.385 OA
HETATM   26  C   UNL     1     -45.672 -52.780  12.605  1.00  0.00     0.168 C 
HETATM   27  C   UNL     1     -45.992 -51.385  13.097  1.00  0.00     0.029 C 
HETATM   28  C   UNL     1     -44.842 -51.057  14.030  1.00  0.00     0.035 C 
ENDBRANCH  23  24
ENDBRANCH  22  23
BRANCH  22  29
HETATM   29  C   UNL     1     -40.865 -53.289  12.441  1.00  0.00     0.092 C 
HETATM   30  C   UNL     1     -40.728 -53.974  13.801  1.00  0.00     0.021 C 
ENDBRANCH  22  29
ENDBRANCH   6  22
TORSDOF 7
ENDMDL
MODEL 4
REMARK VINA RESULT:      -6.0      1.853      2.536
REMARK  7 active torsions:
REMARK  status: ('A' for Active; 'I' for Inactive)
REMARK    1  A    between atoms: N_2  and  C_10 
REMARK    2  A    between atoms: C_6  and  N_9 
REMARK    3  A    between atoms: C_8  and  C_10 
REMARK    4  A    between atoms: C_8  and  O_21 
REMARK    5  A    between atoms: N_9  and  C_17 
REMARK    6  A    between atoms: N_9  and  C_24 
REMARK    7  A    between atoms: C_17  and  C_22 
ROOT
HETATM    1  C   UNL     1     -41.564 -50.635  12.090  1.00  0.00     0.117 A 
HETATM    2  N   UNL     1     -42.140 -52.682  12.632  1.00  0.00    -0.324 N 
HETATM    3  C   UNL     1     -42.499 -51.372  12.804  1.00  0.00     0.140 A 
HETATM    4  N   UNL     1     -40.721 -51.499  11.401  1.00  0.00    -0.346 N 
ATOM      5  HN  UNL     1     -39.949 -51.247  10.784  1.00  0.00     0.167 HD
HETATM    6  C   UNL     1     -41.613 -49.228  12.234  1.00  0.00     0.114 A 
HETATM    7  C   UNL     1     -41.129 -52.710  11.714  1.00  0.00     0.185 C 
HETATM    8  N   UNL     1     -43.500 -50.909  13.567  1.00  0.00    -0.336 N 
ATOM      9  HN  UNL     1     -44.148 -51.496  14.090  1.00  0.00     0.168 HD
HETATM   10  N   UNL     1     -42.655 -48.727  12.965  1.00  0.00    -0.341 N 
ATOM     11  HN  UNL     1     -42.767 -47.718  13.069  1.00  0.00     0.167 HD
HETATM   12  C   UNL     1     -43.532 -49.567  13.548  1.00  0.00     0.183 A 
ENDROOT
BRANCH   2  13
HETATM   13  C   UNL     1     -42.706 -53.822  13.327  1.00  0.00     0.172 C 
BRANCH  13  14
HETATM   14  C   UNL     1     -42.155 -54.041  14.753  1.00  0.00     0.102 C 
HETATM   15  C   UNL     1     -40.651 -54.395  14.839  1.00  0.00     0.153 C 
HETATM   16  O   UNL     1     -40.487 -55.310  15.950  1.00  0.00    -0.383 OA
HETATM   17  C   UNL     1     -39.696 -53.235  15.068  1.00  0.00     0.042 C 
HETATM   18  C   UNL     1     -41.780 -55.590  16.496  1.00  0.00     0.171 C 
HETATM   19  C   UNL     1     -42.767 -55.286  15.390  1.00  0.00     0.068 C 
BRANCH  14  20
HETATM   20  O   UNL     1     -42.512 -52.951  15.616  1.00  0.00    -0.385 OA
HETATM   21  H   UNL     1     -42.939 -53.298  16.421  1.00  0.00     0.210 HD
ENDBRANCH  14  20
ENDBRANCH  13  14
ENDBRANCH   2  13
BRANCH   6  22
HETATM   22  N   UNL     1     -40.626 -48.349  11.741  1.00  0.00    -0.265 NA
BRANCH  22  23
HETATM   23  C   UNL     1     -39.558 -48.064  12.724  1.00  0.00     0.129 C 
BRANCH  23  24
HETATM   24  C   UNL     1     -38.277 -48.899  12.551  1.00  0.00     0.135 C 
HETATM   25  O   UNL     1     -38.210 -49.651  11.326  1.00  0.00    -0.385 OA
HETATM   26  C   UNL     1     -37.193 -50.636  11.547  1.00  0.00     0.168 C 
HETATM   27  C   UNL     1     -37.410 -51.103  12.970  1.00  0.00     0.029 C 
HETATM   28  C   UNL     1     -37.937 -49.869  13.679  1.00  0.00     0.035 C 
ENDBRANCH  23  24
ENDBRANCH  22  23
BRANCH  22  29
HETATM   29  C   UNL     1     -41.190 -47.203  11.009  1.00  0.00     0.092 C 
HETATM   30  C   UNL     1     -40.200 -46.055  10.806  1.00  0.00     0.021 C 
ENDBRANCH  22  29
ENDBRANCH   6  22
TORSDOF 7
ENDMDL
MODEL 5
REMARK VINA RESULT:      -5.9      2.371      4.095
REMARK  7 active torsions:
REMARK  status: ('A' for Active; 'I' for Inactive)
REMARK    1  A    between atoms: N_2  and  C_10 
REMARK    2  A    between atoms: C_6  and  N_9 
REMARK    3  A    between atoms: C_8  and  C_10 
REMARK    4  A    between atoms: C_8  and  O_21 
REMARK    5  A    between atoms: N_9  and  C_17 
REMARK    6  A    between atoms: N_9  and  C_24 
REMARK    7  A    between atoms: C_17  and  C_22 
ROOT
HETATM    1  C   UNL     1     -42.295 -49.372  12.852  1.00  0.00     0.117 A 
HETATM    2  N   UNL     1     -42.904 -51.030  14.153  1.00  0.00    -0.324 N 
HETATM    3  C   UNL     1     -42.072 -50.718  13.113  1.00  0.00     0.140 A 
HETATM    4  N   UNL     1     -43.167 -48.854  13.801  1.00  0.00    -0.346 N 
ATOM      5  HN  UNL     1     -43.501 -47.893  13.874  1.00  0.00     0.167 HD
HETATM    6  C   UNL     1     -41.668 -48.831  11.704  1.00  0.00     0.114 A 
HETATM    7  C   UNL     1     -43.469 -49.864  14.588  1.00  0.00     0.185 C 
HETATM    8  N   UNL     1     -41.272 -51.561  12.445  1.00  0.00    -0.336 N 
ATOM      9  HN  UNL     1     -41.160 -52.551  12.666  1.00  0.00     0.168 HD
HETATM   10  N   UNL     1     -40.806 -49.656  11.034  1.00  0.00    -0.341 N 
ATOM     11  HN  UNL     1     -40.293 -49.309  10.224  1.00  0.00     0.167 HD
HETATM   12  C   UNL     1     -40.637 -50.927  11.447  1.00  0.00     0.183 A 
ENDROOT
BRANCH   2  13
HETATM   13  C   UNL     1     -43.165 -52.360  14.671  1.00  0.00     0.172 C 
BRANCH  13  14
HETATM   14  C   UNL     1     -44.292 -53.122  13.939  1.00  0.00     0.102 C 
HETATM   15  C   UNL     1     -45.721 -52.877  14.478  1.00  0.00     0.153 C 
HETATM   16  O   UNL     1     -46.454 -54.118  14.337  1.00  0.00    -0.383 OA
HETATM   17  C   UNL     1     -46.530 -51.796  13.780  1.00  0.00     0.042 C 
HETATM   18  C   UNL     1     -45.561 -55.111  13.821  1.00  0.00     0.171 C 
HETATM   19  C   UNL     1     -44.169 -54.627  14.164  1.00  0.00     0.068 C 
BRANCH  14  20
HETATM   20  O   UNL     1     -44.202 -52.936  12.518  1.00  0.00    -0.385 OA
HETATM   21  H   UNL     1     -43.276 -52.756  12.270  1.00  0.00     0.210 HD
ENDBRANCH  14  20
ENDBRANCH  13  14
ENDBRANCH   2  13
BRANCH   6  22
HETATM   22  N   UNL     1     -41.941 -47.547  11.187  1.00  0.00    -0.265 NA
BRANCH  22  23
HETATM   23  C   UNL     1     -42.132 -47.538   9.721  1.00  0.00     0.129 C 
BRANCH  23  24
HETATM   24  C   UNL     1     -43.559 -47.202   9.254  1.00  0.00     0.135 C 
HETATM   25  O   UNL     1     -44.591 -47.505  10.210  1.00  0.00    -0.385 OA
HETATM   26  C   UNL     1     -45.810 -47.516   9.455  1.00  0.00     0.168 C 
HETATM   27  C   UNL     1     -45.451 -48.201   8.154  1.00  0.00     0.029 C 
HETATM   28  C   UNL     1     -44.003 -47.808   7.925  1.00  0.00     0.035 C 
ENDBRANCH  23  24
ENDBRANCH  22  23
BRANCH  22  29
HETATM   29  C   UNL     1     -41.077 -46.501  11.760  1.00  0.00     0.092 C 
HETATM   30  C   UNL     1     -40.484 -45.553  10.716  1.00  0.00     0.021 C 
ENDBRANCH  22  29
ENDBRANCH   6  22
TORSDOF 7
ENDMDL
MODEL 6
REMARK VINA RESULT:      -5.9      3.297      5.769
REMARK  7 active torsions:
REMARK  status: ('A' for Active; 'I' for Inactive)
REMARK    1  A    between atoms: N_2  and  C_10 
REMARK    2  A    between atoms: C_6  and  N_9 
REMARK    3  A    between atoms: C_8  and  C_10 
REMARK    4  A    between atoms: C_8  and  O_21 
REMARK    5  A    between atoms: N_9  and  C_17 
REMARK    6  A    between atoms: N_9  and  C_24 
REMARK    7  A    between atoms: C_17  and  C_22 
ROOT
HETATM    1  C   UNL     1     -40.483 -49.973  13.275  1.00  0.00     0.117 A 
HETATM    2  N   UNL     1     -42.097 -48.688  12.527  1.00  0.00    -0.324 N 
HETATM    3  C   UNL     1     -41.638 -49.977  12.503  1.00  0.00     0.140 A 
HETATM    4  N   UNL     1     -40.315 -48.720  13.851  1.00  0.00    -0.346 N 
ATOM      5  HN  UNL     1     -39.567 -48.424  14.478  1.00  0.00     0.167 HD
HETATM    6  C   UNL     1     -39.716 -51.162  13.284  1.00  0.00     0.114 A 
HETATM    7  C   UNL     1     -41.326 -47.996  13.419  1.00  0.00     0.185 C 
HETATM    8  N   UNL     1     -42.160 -51.001  11.813  1.00  0.00    -0.336 N 
ATOM      9  HN  UNL     1     -43.003 -50.944  11.242  1.00  0.00     0.168 HD
HETATM   10  N   UNL     1     -40.251 -52.237  12.629  1.00  0.00    -0.341 N 
ATOM     11  HN  UNL     1     -39.764 -53.133  12.636  1.00  0.00     0.167 HD
HETATM   12  C   UNL     1     -41.423 -52.111  11.976  1.00  0.00     0.183 A 
ENDROOT
BRANCH   2  13
HETATM   13  C   UNL     1     -43.179 -48.150  11.725  1.00  0.00     0.172 C 
BRANCH  13  14
HETATM   14  C   UNL     1     -42.741 -47.578  10.359  1.00  0.00     0.102 C 
HETATM   15  C   UNL     1     -42.305 -46.093  10.367  1.00  0.00     0.153 C 
HETATM   16  O   UNL     1     -42.716 -45.517   9.104  1.00  0.00    -0.383 OA
HETATM   17  C   UNL     1     -40.817 -45.825  10.519  1.00  0.00     0.042 C 
HETATM   18  C   UNL     1     -43.426 -46.516   8.364  1.00  0.00     0.171 C 
HETATM   19  C   UNL     1     -43.918 -47.513   9.390  1.00  0.00     0.068 C 
BRANCH  14  20
HETATM   20  O   UNL     1     -41.770 -48.430   9.731  1.00  0.00    -0.385 OA
HETATM   21  H   UNL     1     -41.097 -48.695  10.385  1.00  0.00     0.210 HD
ENDBRANCH  14  20
ENDBRANCH  13  14
ENDBRANCH   2  13
BRANCH   6  22
HETATM   22  N   UNL     1     -38.428 -51.266  13.849  1.00  0.00    -0.265 NA
BRANCH  22  23
HETATM   23  C   UNL     1     -38.294 -50.535  15.128  1.00  0.00     0.129 C 
BRANCH  23  24
HETATM   24  C   UNL     1     -36.926 -49.866  15.354  1.00  0.00     0.135 C 
HETATM   25  O   UNL     1     -36.236 -50.293  16.542  1.00  0.00    -0.385 OA
HETATM   26  C   UNL     1     -35.239 -49.291  16.777  1.00  0.00     0.168 C 
HETATM   27  C   UNL     1     -35.927 -47.980  16.464  1.00  0.00     0.029 C 
HETATM   28  C   UNL     1     -36.906 -48.339  15.361  1.00  0.00     0.035 C 
ENDBRANCH  23  24
ENDBRANCH  22  23
BRANCH  22  29
HETATM   29  C   UNL     1     -37.350 -51.094  12.861  1.00  0.00     0.092 C 
HETATM   30  C   UNL     1     -37.641 -50.019  11.813  1.00  0.00     0.021 C 
ENDBRANCH  22  29
ENDBRANCH   6  22
TORSDOF 7
ENDMDL
MODEL 7
REMARK VINA RESULT:      -5.8      2.802      7.123
REMARK  7 active torsions:
REMARK  status: ('A' for Active; 'I' for Inactive)
REMARK    1  A    between atoms: N_2  and  C_10 
REMARK    2  A    between atoms: C_6  and  N_9 
REMARK    3  A    between atoms: C_8  and  C_10 
REMARK    4  A    between atoms: C_8  and  O_21 
REMARK    5  A    between atoms: N_9  and  C_17 
REMARK    6  A    between atoms: N_9  and  C_24 
REMARK    7  A    between atoms: C_17  and  C_22 
ROOT
HETATM    1  C   UNL     1     -40.168 -48.601  11.989  1.00  0.00     0.117 A 
HETATM    2  N   UNL     1     -41.566 -46.922  11.789  1.00  0.00    -0.324 N 
HETATM    3  C   UNL     1     -40.564 -47.410  12.583  1.00  0.00     0.140 A 
HETATM    4  N   UNL     1     -40.845 -48.768  10.787  1.00  0.00    -0.346 N 
ATOM      5  HN  UNL     1     -40.751 -49.539  10.127  1.00  0.00     0.167 HD
HETATM    6  C   UNL     1     -39.242 -49.397  12.705  1.00  0.00     0.114 A 
HETATM    7  C   UNL     1     -41.634 -47.720  10.682  1.00  0.00     0.185 C 
HETATM    8  N   UNL     1     -40.120 -46.879  13.731  1.00  0.00    -0.336 N 
ATOM      9  HN  UNL     1     -40.461 -46.008  14.136  1.00  0.00     0.168 HD
HETATM   10  N   UNL     1     -38.735 -48.855  13.855  1.00  0.00    -0.341 N 
ATOM     11  HN  UNL     1     -38.033 -49.364  14.392  1.00  0.00     0.167 HD
HETATM   12  C   UNL     1     -39.165 -47.650  14.276  1.00  0.00     0.183 A 
ENDROOT
BRANCH   2  13
HETATM   13  C   UNL     1     -42.420 -45.788  12.089  1.00  0.00     0.172 C 
BRANCH  13  14
HETATM   14  C   UNL     1     -42.065 -44.498  11.319  1.00  0.00     0.102 C 
HETATM   15  C   UNL     1     -40.568 -44.108  11.325  1.00  0.00     0.153 C 
HETATM   16  O   UNL     1     -40.499 -42.662  11.346  1.00  0.00    -0.383 OA
HETATM   17  C   UNL     1     -39.742 -44.579  10.139  1.00  0.00     0.042 C 
HETATM   18  C   UNL     1     -41.833 -42.150  11.424  1.00  0.00     0.171 C 
HETATM   19  C   UNL     1     -42.671 -43.272  11.998  1.00  0.00     0.068 C 
BRANCH  14  20
HETATM   20  O   UNL     1     -42.621 -44.519   9.994  1.00  0.00    -0.385 OA
HETATM   21  H   UNL     1     -41.902 -44.473   9.338  1.00  0.00     0.210 HD
ENDBRANCH  14  20
ENDBRANCH  13  14
ENDBRANCH   2  13
BRANCH   6  22
HETATM   22  N   UNL     1     -38.888 -50.714  12.344  1.00  0.00    -0.265 NA
BRANCH  22  23
HETATM   23  C   UNL     1     -39.500 -51.741  13.215  1.00  0.00     0.129 C 
BRANCH  23  24
HETATM   24  C   UNL     1     -40.728 -52.450  12.617  1.00  0.00     0.135 C 
HETATM   25  O   UNL     1     -41.976 -51.760  12.815  1.00  0.00    -0.385 OA
HETATM   26  C   UNL     1     -42.990 -52.743  12.573  1.00  0.00     0.168 C 
HETATM   27  C   UNL     1     -42.460 -54.009  13.211  1.00  0.00     0.029 C 
HETATM   28  C   UNL     1     -40.957 -53.897  13.045  1.00  0.00     0.035 C 
ENDBRANCH  23  24
ENDBRANCH  22  23
BRANCH  22  29
HETATM   29  C   UNL     1     -37.455 -50.860  12.037  1.00  0.00     0.092 C 
HETATM   30  C   UNL     1     -37.018 -50.117  10.773  1.00  0.00     0.021 C 
ENDBRANCH  22  29
ENDBRANCH   6  22
TORSDOF 7
ENDMDL
MODEL 8
REMARK VINA RESULT:      -5.8      1.626      2.858
REMARK  7 active torsions:
REMARK  status: ('A' for Active; 'I' for Inactive)
REMARK    1  A    between atoms: N_2  and  C_10 
REMARK    2  A    between atoms: C_6  and  N_9 
REMARK    3  A    between atoms: C_8  and  C_10 
REMARK    4  A    between atoms: C_8  and  O_21 
REMARK    5  A    between atoms: N_9  and  C_17 
REMARK    6  A    between atoms: N_9  and  C_24 
REMARK    7  A    between atoms: C_17  and  C_22 
ROOT
HETATM    1  C   UNL     1     -40.671 -50.804  12.957  1.00  0.00     0.117 A 
HETATM    2  N   UNL     1     -41.801 -52.677  13.130  1.00  0.00    -0.324 N 
HETATM    3  C   UNL     1     -41.402 -51.582  13.846  1.00  0.00     0.140 A 
HETATM    4  N   UNL     1     -40.729 -51.370  11.690  1.00  0.00    -0.346 N 
ATOM      5  HN  UNL     1     -40.301 -51.016  10.835  1.00  0.00     0.167 HD
HETATM    6  C   UNL     1     -40.003 -49.677  13.493  1.00  0.00     0.114 A 
HETATM    7  C   UNL     1     -41.453 -52.461  11.826  1.00  0.00     0.185 C 
HETATM    8  N   UNL     1     -41.614 -51.356  15.151  1.00  0.00    -0.336 N 
ATOM      9  HN  UNL     1     -42.142 -51.973  15.767  1.00  0.00     0.168 HD
HETATM   10  N   UNL     1     -40.244 -49.395  14.810  1.00  0.00    -0.341 N 
ATOM     11  HN  UNL     1     -39.823 -48.572  15.240  1.00  0.00     0.167 HD
HETATM   12  C   UNL     1     -41.035 -50.207  15.536  1.00  0.00     0.183 A 
ENDROOT
BRANCH   2  13
HETATM   13  C   UNL     1     -42.441 -53.864  13.666  1.00  0.00     0.172 C 
BRANCH  13  14
HETATM   14  C   UNL     1     -43.972 -53.908  13.472  1.00  0.00     0.102 C 
HETATM   15  C   UNL     1     -44.761 -52.749  14.127  1.00  0.00     0.153 C 
HETATM   16  O   UNL     1     -46.026 -53.291  14.578  1.00  0.00    -0.383 OA
HETATM   17  C   UNL     1     -45.074 -51.557  13.238  1.00  0.00     0.042 C 
HETATM   18  C   UNL     1     -46.035 -54.697  14.310  1.00  0.00     0.171 C 
HETATM   19  C   UNL     1     -44.581 -55.102  14.202  1.00  0.00     0.068 C 
BRANCH  14  20
HETATM   20  O   UNL     1     -44.311 -54.089  12.088  1.00  0.00    -0.385 OA
HETATM   21  H   UNL     1     -43.712 -53.557  11.533  1.00  0.00     0.210 HD
ENDBRANCH  14  20
ENDBRANCH  13  14
ENDBRANCH   2  13
BRANCH   6  22
HETATM   22  N   UNL     1     -39.068 -48.900  12.777  1.00  0.00    -0.265 NA
BRANCH  22  23
HETATM   23  C   UNL     1     -39.652 -48.228  11.596  1.00  0.00     0.129 C 
BRANCH  23  24
HETATM   24  C   UNL     1     -40.108 -46.777  11.833  1.00  0.00     0.135 C 
HETATM   25  O   UNL     1     -39.936 -45.901  10.705  1.00  0.00    -0.385 OA
HETATM   26  C   UNL     1     -40.017 -44.576  11.244  1.00  0.00     0.168 C 
HETATM   27  C   UNL     1     -39.260 -44.645  12.553  1.00  0.00     0.029 C 
HETATM   28  C   UNL     1     -39.506 -46.061  13.039  1.00  0.00     0.035 C 
ENDBRANCH  23  24
ENDBRANCH  22  23
BRANCH  22  29
HETATM   29  C   UNL     1     -37.776 -49.581  12.593  1.00  0.00     0.092 C 
HETATM   30  C   UNL     1     -37.438 -49.875  11.130  1.00  0.00     0.021 C 
ENDBRANCH  22  29
ENDBRANCH   6  22
TORSDOF 7
ENDMDL
MODEL 9
REMARK VINA RESULT:      -5.7      2.370      6.930
REMARK  7 active torsions:
REMARK  status: ('A' for Active; 'I' for Inactive)
REMARK    1  A    between atoms: N_2  and  C_10 
REMARK    2  A    between atoms: C_6  and  N_9 
REMARK    3  A    between atoms: C_8  and  C_10 
REMARK    4  A    between atoms: C_8  and  O_21 
REMARK    5  A    between atoms: N_9  and  C_17 
REMARK    6  A    between atoms: N_9  and  C_24 
REMARK    7  A    between atoms: C_17  and  C_22 
ROOT
HETATM    1  C   UNL     1     -41.881 -51.313  12.757  1.00  0.00     0.117 A 
HETATM    2  N   UNL     1     -42.613 -49.293  12.312  1.00  0.00    -0.324 N 
HETATM    3  C   UNL     1     -41.466 -50.033  12.410  1.00  0.00     0.140 A 
HETATM    4  N   UNL     1     -43.269 -51.367  12.753  1.00  0.00    -0.346 N 
ATOM      5  HN  UNL     1     -43.856 -52.177  12.954  1.00  0.00     0.167 HD
HETATM    6  C   UNL     1     -40.868 -52.248  13.080  1.00  0.00     0.114 A 
HETATM    7  C   UNL     1     -43.667 -50.154  12.435  1.00  0.00     0.185 C 
HETATM    8  N   UNL     1     -40.209 -49.587  12.273  1.00  0.00    -0.336 N 
ATOM      9  HN  UNL     1     -39.958 -48.628  12.037  1.00  0.00     0.168 HD
HETATM   10  N   UNL     1     -39.577 -51.834  12.899  1.00  0.00    -0.341 N 
ATOM     11  HN  UNL     1     -38.805 -52.477  13.076  1.00  0.00     0.167 HD
HETATM   12  C   UNL     1     -39.326 -50.575  12.489  1.00  0.00     0.183 A 
ENDROOT
BRANCH   2  13
HETATM   13  C   UNL     1     -42.690 -47.854  12.145  1.00  0.00     0.172 C 
BRANCH  13  14
HETATM   14  C   UNL     1     -42.548 -47.370  10.685  1.00  0.00     0.102 C 
HETATM   15  C   UNL     1     -42.165 -45.881  10.511  1.00  0.00     0.153 C 
HETATM   16  O   UNL     1     -42.836 -45.400   9.321  1.00  0.00    -0.383 OA
HETATM   17  C   UNL     1     -40.685 -45.578  10.345  1.00  0.00     0.042 C 
HETATM   18  C   UNL     1     -43.647 -46.459   8.803  1.00  0.00     0.171 C 
HETATM   19  C   UNL     1     -43.896 -47.392   9.968  1.00  0.00     0.068 C 
BRANCH  14  20
HETATM   20  O   UNL     1     -41.696 -48.247   9.932  1.00  0.00    -0.385 OA
HETATM   21  H   UNL     1     -41.128 -47.721   9.339  1.00  0.00     0.210 HD
ENDBRANCH  14  20
ENDBRANCH  13  14
ENDBRANCH   2  13
BRANCH   6  22
HETATM   22  N   UNL     1     -41.117 -53.519  13.637  1.00  0.00    -0.265 NA
BRANCH  22  23
HETATM   23  C   UNL     1     -41.999 -53.472  14.824  1.00  0.00     0.129 C 
BRANCH  23  24
HETATM   24  C   UNL     1     -43.262 -54.346  14.729  1.00  0.00     0.135 C 
HETATM   25  O   UNL     1     -43.925 -54.309  13.452  1.00  0.00    -0.385 OA
HETATM   26  C   UNL     1     -45.240 -54.824  13.697  1.00  0.00     0.168 C 
HETATM   27  C   UNL     1     -45.646 -54.227  15.027  1.00  0.00     0.029 C 
HETATM   28  C   UNL     1     -44.338 -54.109  15.786  1.00  0.00     0.035 C 
ENDBRANCH  23  24
ENDBRANCH  22  23
BRANCH  22  29
HETATM   29  C   UNL     1     -39.907 -54.353  13.732  1.00  0.00     0.092 C 
HETATM   30  C   UNL     1     -39.531 -54.731  15.165  1.00  0.00     0.021 C 
ENDBRANCH  22  29
ENDBRANCH   6  22
TORSDOF 7
ENDMDL
