MODEL 1
REMARK VINA RESULT:      -5.7      0.000      0.000
REMARK  7 active torsions:
REMARK  status: ('A' for Active; 'I' for Inactive)
REMARK    1  A    between atoms: O_2  and  C_3 
REMARK    2  A    between atoms: C_3  and  C_4 
REMARK    3  A    between atoms: C_4  and  N_5 
REMARK    4  A    between atoms: C_6  and  N_7 
REMARK    5  A    between atoms: N_7  and  C_8 
REMARK    6  A    between atoms: C_8  and  C_9 
REMARK    7  A    between atoms: C_9  and  O_10 
ROOT
HETATM    1  N   UNL     1     -40.889 -48.742  12.143  1.00  0.00    -0.172 N 
HETATM    2  C   UNL     1     -41.922 -49.650  12.273  1.00  0.00     0.682 A 
HETATM    3  N   UNL     1     -42.981 -49.258  11.594  1.00  0.00    -0.174 N 
ATOM      4  HN  UNL     1     -43.880 -49.736  11.518  1.00  0.00     0.186 HD
HETATM    5  C   UNL     1     -42.622 -48.080  11.016  1.00  0.00     0.160 A 
HETATM    6  N   UNL     1     -43.387 -47.303  10.170  1.00  0.00    -0.287 N 
HETATM    7  C   UNL     1     -44.753 -47.634   9.833  1.00  0.00     0.163 C 
HETATM    8  C   UNL     1     -42.812 -46.174   9.592  1.00  0.00     0.330 A 
HETATM    9  O   UNL     1     -43.400 -45.443   8.794  1.00  0.00    -0.246 OA
HETATM   10  N   UNL     1     -41.510 -45.880   9.941  1.00  0.00    -0.273 N 
HETATM   11  C   UNL     1     -40.696 -46.592  10.788  1.00  0.00     0.280 A 
HETATM   12  O   UNL     1     -39.538 -46.259  11.011  1.00  0.00    -0.265 OA
HETATM   13  C   UNL     1     -41.338 -47.740  11.326  1.00  0.00     0.164 A 
HETATM   14  H   UNL     1     -41.107 -45.064   9.506  1.00  0.00     0.173 HD
ENDROOT
BRANCH   2  15
HETATM   15  N   UNL     1     -41.761 -50.807  12.945  1.00  0.00    -0.224 N 
HETATM   16  H   UNL     1     -41.511 -50.843  13.927  1.00  0.00     0.177 HD
BRANCH  15  17
HETATM   17  C   UNL     1     -42.281 -52.056  12.387  1.00  0.00     0.164 C 
BRANCH  17  18
HETATM   18  C   UNL     1     -41.274 -53.188  12.626  1.00  0.00     0.184 C 
BRANCH  18  19
HETATM   19  O   UNL     1     -40.498 -53.399  11.444  1.00  0.00    -0.399 OA
HETATM   20  H   UNL     1     -40.279 -52.501  11.134  1.00  0.00     0.209 HD
ENDBRANCH  18  19
ENDBRANCH  17  18
ENDBRANCH  15  17
ENDBRANCH   2  15
BRANCH   1  21
HETATM   21  C   UNL     1     -39.521 -48.912  12.588  1.00  0.00     0.174 C 
BRANCH  21  22
HETATM   22  C   UNL     1     -38.730 -49.783  11.618  1.00  0.00     0.187 C 
BRANCH  22  23
HETATM   23  O   UNL     1     -38.655 -51.113  12.127  1.00  0.00    -0.394 OA
HETATM   24  C   UNL     1     -38.145 -51.128  13.456  1.00  0.00     0.201 C 
ENDBRANCH  22  23
ENDBRANCH  21  22
ENDBRANCH   1  21
TORSDOF 7
ENDMDL
MODEL 2
REMARK VINA RESULT:      -5.4      1.123      1.196
REMARK  7 active torsions:
REMARK  status: ('A' for Active; 'I' for Inactive)
REMARK    1  A    between atoms: O_2  and  C_3 
REMARK    2  A    between atoms: C_3  and  C_4 
REMARK    3  A    between atoms: C_4  and  N_5 
REMARK    4  A    between atoms: C_6  and  N_7 
REMARK    5  A    between atoms: N_7  and  C_8 
REMARK    6  A    between atoms: C_8  and  C_9 
REMARK    7  A    between atoms: C_9  and  O_10 
ROOT
HETATM    1  N   UNL     1     -40.408 -48.297  11.564  1.00  0.00    -0.172 N 
HETATM    2  C   UNL     1     -41.214 -49.350  11.175  1.00  0.00     0.682 A 
HETATM    3  N   UNL     1     -42.306 -48.913  10.581  1.00  0.00    -0.174 N 
ATOM      4  HN  UNL     1     -43.069 -49.472  10.199  1.00  0.00     0.186 HD
HETATM    5  C   UNL     1     -42.199 -47.556  10.586  1.00  0.00     0.160 A 
HETATM    6  N   UNL     1     -43.085 -46.652  10.037  1.00  0.00    -0.287 N 
HETATM    7  C   UNL     1     -44.326 -47.058   9.417  1.00  0.00     0.163 C 
HETATM    8  C   UNL     1     -42.758 -45.299  10.050  1.00  0.00     0.330 A 
HETATM    9  O   UNL     1     -43.462 -44.422   9.549  1.00  0.00    -0.246 OA
HETATM   10  N   UNL     1     -41.571 -44.943  10.657  1.00  0.00    -0.273 N 
HETATM   11  C   UNL     1     -40.651 -45.781  11.240  1.00  0.00     0.280 A 
HETATM   12  O   UNL     1     -39.609 -45.364  11.730  1.00  0.00    -0.265 OA
HETATM   13  C   UNL     1     -41.039 -47.147  11.174  1.00  0.00     0.164 A 
HETATM   14  H   UNL     1     -41.345 -43.959  10.650  1.00  0.00     0.173 HD
ENDROOT
BRANCH   2  15
HETATM   15  N   UNL     1     -40.823 -50.631  11.332  1.00  0.00    -0.224 N 
HETATM   16  H   UNL     1     -39.903 -50.961  11.063  1.00  0.00     0.177 HD
BRANCH  15  17
HETATM   17  C   UNL     1     -41.574 -51.523  12.215  1.00  0.00     0.164 C 
BRANCH  17  18
HETATM   18  C   UNL     1     -40.781 -52.817  12.440  1.00  0.00     0.184 C 
BRANCH  18  19
HETATM   19  O   UNL     1     -40.574 -53.478  11.190  1.00  0.00    -0.399 OA
HETATM   20  H   UNL     1     -40.085 -54.289  11.423  1.00  0.00     0.209 HD
ENDBRANCH  18  19
ENDBRANCH  17  18
ENDBRANCH  15  17
ENDBRANCH   2  15
BRANCH   1  21
HETATM   21  C   UNL     1     -39.056 -48.381  12.077  1.00  0.00     0.174 C 
BRANCH  21  22
HETATM   22  C   UNL     1     -39.052 -48.593  13.587  1.00  0.00     0.187 C 
BRANCH  22  23
HETATM   23  O   UNL     1     -38.892 -49.981  13.872  1.00  0.00    -0.394 OA
HETATM   24  C   UNL     1     -37.754 -50.516  13.206  1.00  0.00     0.201 C 
ENDBRANCH  22  23
ENDBRANCH  21  22
ENDBRANCH   1  21
TORSDOF 7
ENDMDL
MODEL 3
REMARK VINA RESULT:      -5.2      1.569      5.512
REMARK  7 active torsions:
REMARK  status: ('A' for Active; 'I' for Inactive)
REMARK    1  A    between atoms: O_2  and  C_3 
REMARK    2  A    between atoms: C_3  and  C_4 
REMARK    3  A    between atoms: C_4  and  N_5 
REMARK    4  A    between atoms: C_6  and  N_7 
REMARK    5  A    between atoms: N_7  and  C_8 
REMARK    6  A    between atoms: C_8  and  C_9 
REMARK    7  A    between atoms: C_9  and  O_10 
ROOT
HETATM    1  N   UNL     1     -40.935 -47.788  11.773  1.00  0.00    -0.172 N 
HETATM    2  C   UNL     1     -42.169 -48.181  11.293  1.00  0.00     0.682 A 
HETATM    3  N   UNL     1     -42.318 -49.486  11.388  1.00  0.00    -0.174 N 
ATOM      4  HN  UNL     1     -43.128 -50.040  11.107  1.00  0.00     0.186 HD
HETATM    5  C   UNL     1     -41.160 -49.941  11.941  1.00  0.00     0.160 A 
HETATM    6  N   UNL     1     -40.856 -51.243  12.276  1.00  0.00    -0.287 N 
HETATM    7  C   UNL     1     -41.751 -52.346  12.004  1.00  0.00     0.163 C 
HETATM    8  C   UNL     1     -39.654 -51.506  12.929  1.00  0.00     0.330 A 
HETATM    9  O   UNL     1     -39.313 -52.628  13.304  1.00  0.00    -0.246 OA
HETATM   10  N   UNL     1     -38.817 -50.435  13.165  1.00  0.00    -0.273 N 
HETATM   11  C   UNL     1     -39.043 -49.118  12.845  1.00  0.00     0.280 A 
HETATM   12  O   UNL     1     -38.243 -48.233  13.125  1.00  0.00    -0.265 OA
HETATM   13  C   UNL     1     -40.294 -48.919  12.199  1.00  0.00     0.164 A 
HETATM   14  H   UNL     1     -37.956 -50.641  13.647  1.00  0.00     0.173 HD
ENDROOT
BRANCH   2  15
HETATM   15  N   UNL     1     -43.085 -47.280  10.885  1.00  0.00    -0.224 N 
HETATM   16  H   UNL     1     -43.165 -46.354  11.291  1.00  0.00     0.177 HD
BRANCH  15  17
HETATM   17  C   UNL     1     -43.773 -47.461   9.607  1.00  0.00     0.164 C 
BRANCH  17  18
HETATM   18  C   UNL     1     -43.830 -46.125   8.855  1.00  0.00     0.184 C 
BRANCH  18  19
HETATM   19  O   UNL     1     -42.696 -46.007   7.994  1.00  0.00    -0.399 OA
HETATM   20  H   UNL     1     -42.238 -46.863   8.078  1.00  0.00     0.209 HD
ENDBRANCH  18  19
ENDBRANCH  17  18
ENDBRANCH  15  17
ENDBRANCH   2  15
BRANCH   1  21
HETATM   21  C   UNL     1     -40.482 -46.431  12.001  1.00  0.00     0.174 C 
BRANCH  21  22
HETATM   22  C   UNL     1     -39.958 -45.802  10.715  1.00  0.00     0.187 C 
BRANCH  22  23
HETATM   23  O   UNL     1     -40.950 -44.933  10.171  1.00  0.00    -0.394 OA
HETATM   24  C   UNL     1     -41.452 -44.042  11.161  1.00  0.00     0.201 C 
ENDBRANCH  22  23
ENDBRANCH  21  22
ENDBRANCH   1  21
TORSDOF 7
ENDMDL
MODEL 4
REMARK VINA RESULT:      -5.2      3.725      6.287
REMARK  7 active torsions:
REMARK  status: ('A' for Active; 'I' for Inactive)
REMARK    1  A    between atoms: O_2  and  C_3 
REMARK    2  A    between atoms: C_3  and  C_4 
REMARK    3  A    between atoms: C_4  and  N_5 
REMARK    4  A    between atoms: C_6  and  N_7 
REMARK    5  A    between atoms: N_7  and  C_8 
REMARK    6  A    between atoms: C_8  and  C_9 
REMARK    7  A    between atoms: C_9  and  O_10 
ROOT
HETATM    1  N   UNL     1     -41.923 -53.444  13.043  1.00  0.00    -0.172 N 
HETATM    2  C   UNL     1     -42.056 -52.336  12.228  1.00  0.00     0.682 A 
HETATM    3  N   UNL     1     -43.302 -51.908  12.215  1.00  0.00    -0.174 N 
ATOM      4  HN  UNL     1     -43.678 -51.113  11.698  1.00  0.00     0.186 HD
HETATM    5  C   UNL     1     -43.982 -52.754  13.037  1.00  0.00     0.160 A 
HETATM    6  N   UNL     1     -45.317 -52.687  13.377  1.00  0.00    -0.287 N 
HETATM    7  C   UNL     1     -46.212 -51.698  12.819  1.00  0.00     0.163 C 
HETATM    8  C   UNL     1     -45.817 -53.585  14.317  1.00  0.00     0.330 A 
HETATM    9  O   UNL     1     -46.982 -53.577  14.715  1.00  0.00    -0.246 OA
HETATM   10  N   UNL     1     -44.940 -54.521  14.823  1.00  0.00    -0.273 N 
HETATM   11  C   UNL     1     -43.607 -54.661  14.519  1.00  0.00     0.280 A 
HETATM   12  O   UNL     1     -42.905 -55.514  15.049  1.00  0.00    -0.265 OA
HETATM   13  C   UNL     1     -43.160 -53.703  13.570  1.00  0.00     0.164 A 
HETATM   14  H   UNL     1     -45.316 -55.157  15.510  1.00  0.00     0.173 HD
ENDROOT
BRANCH   2  15
HETATM   15  N   UNL     1     -40.989 -51.768  11.633  1.00  0.00    -0.224 N 
HETATM   16  H   UNL     1     -40.431 -52.246  10.933  1.00  0.00     0.177 HD
BRANCH  15  17
HETATM   17  C   UNL     1     -40.794 -50.320  11.705  1.00  0.00     0.164 C 
BRANCH  17  18
HETATM   18  C   UNL     1     -39.295 -49.996  11.655  1.00  0.00     0.184 C 
BRANCH  18  19
HETATM   19  O   UNL     1     -38.537 -51.204  11.755  1.00  0.00    -0.399 OA
HETATM   20  H   UNL     1     -39.201 -51.914  11.676  1.00  0.00     0.209 HD
ENDBRANCH  18  19
ENDBRANCH  17  18
ENDBRANCH  15  17
ENDBRANCH   2  15
BRANCH   1  21
HETATM   21  C   UNL     1     -40.687 -54.079  13.451  1.00  0.00     0.174 C 
BRANCH  21  22
HETATM   22  C   UNL     1     -40.119 -53.425  14.705  1.00  0.00     0.187 C 
BRANCH  22  23
HETATM   23  O   UNL     1     -39.333 -52.294  14.337  1.00  0.00    -0.394 OA
HETATM   24  C   UNL     1     -39.601 -51.183  15.186  1.00  0.00     0.201 C 
ENDBRANCH  22  23
ENDBRANCH  21  22
ENDBRANCH   1  21
TORSDOF 7
ENDMDL
MODEL 5
REMARK VINA RESULT:      -5.1      2.139      5.787
REMARK  7 active torsions:
REMARK  status: ('A' for Active; 'I' for Inactive)
REMARK    1  A    between atoms: O_2  and  C_3 
REMARK    2  A    between atoms: C_3  and  C_4 
REMARK    3  A    between atoms: C_4  and  N_5 
REMARK    4  A    between atoms: C_6  and  N_7 
REMARK    5  A    between atoms: N_7  and  C_8 
REMARK    6  A    between atoms: C_8  and  C_9 
REMARK    7  A    between atoms: C_9  and  O_10 
ROOT
HETATM    1  N   UNL     1     -39.920 -51.096  12.085  1.00  0.00    -0.172 N 
HETATM    2  C   UNL     1     -40.971 -50.432  11.482  1.00  0.00     0.682 A 
HETATM    3  N   UNL     1     -42.113 -51.046  11.717  1.00  0.00    -0.174 N 
ATOM      4  HN  UNL     1     -43.041 -50.773  11.392  1.00  0.00     0.186 HD
HETATM    5  C   UNL     1     -41.791 -52.121  12.486  1.00  0.00     0.160 A 
HETATM    6  N   UNL     1     -42.661 -53.048  13.022  1.00  0.00    -0.287 N 
HETATM    7  C   UNL     1     -44.083 -53.021  12.763  1.00  0.00     0.163 C 
HETATM    8  C   UNL     1     -42.157 -54.030  13.872  1.00  0.00     0.330 A 
HETATM    9  O   UNL     1     -42.857 -54.874  14.431  1.00  0.00    -0.246 OA
HETATM   10  N   UNL     1     -40.794 -54.035  14.092  1.00  0.00    -0.273 N 
HETATM   11  C   UNL     1     -39.867 -53.160  13.579  1.00  0.00     0.280 A 
HETATM   12  O   UNL     1     -38.677 -53.234  13.861  1.00  0.00    -0.265 OA
HETATM   13  C   UNL     1     -40.452 -52.175  12.738  1.00  0.00     0.164 A 
HETATM   14  H   UNL     1     -40.448 -54.746  14.717  1.00  0.00     0.173 HD
ENDROOT
BRANCH   2  15
HETATM   15  N   UNL     1     -40.787 -49.264  10.835  1.00  0.00    -0.224 N 
HETATM   16  H   UNL     1     -40.014 -49.103  10.199  1.00  0.00     0.177 HD
BRANCH  15  17
HETATM   17  C   UNL     1     -41.881 -48.296  10.745  1.00  0.00     0.164 C 
BRANCH  17  18
HETATM   18  C   UNL     1     -41.310 -46.873  10.694  1.00  0.00     0.184 C 
BRANCH  18  19
HETATM   19  O   UNL     1     -39.888 -46.928  10.559  1.00  0.00    -0.399 OA
HETATM   20  H   UNL     1     -39.591 -46.019  10.746  1.00  0.00     0.209 HD
ENDBRANCH  18  19
ENDBRANCH  17  18
ENDBRANCH  15  17
ENDBRANCH   2  15
BRANCH   1  21
HETATM   21  C   UNL     1     -38.553 -50.632  12.204  1.00  0.00     0.174 C 
BRANCH  21  22
HETATM   22  C   UNL     1     -38.395 -49.679  13.383  1.00  0.00     0.187 C 
BRANCH  22  23
HETATM   23  O   UNL     1     -38.710 -48.352  12.966  1.00  0.00    -0.394 OA
HETATM   24  C   UNL     1     -39.486 -47.674  13.948  1.00  0.00     0.201 C 
ENDBRANCH  22  23
ENDBRANCH  21  22
ENDBRANCH   1  21
TORSDOF 7
ENDMDL
MODEL 6
REMARK VINA RESULT:      -4.9      2.803      5.994
REMARK  7 active torsions:
REMARK  status: ('A' for Active; 'I' for Inactive)
REMARK    1  A    between atoms: O_2  and  C_3 
REMARK    2  A    between atoms: C_3  and  C_4 
REMARK    3  A    between atoms: C_4  and  N_5 
REMARK    4  A    between atoms: C_6  and  N_7 
REMARK    5  A    between atoms: N_7  and  C_8 
REMARK    6  A    between atoms: C_8  and  C_9 
REMARK    7  A    between atoms: C_9  and  O_10 
ROOT
HETATM    1  N   UNL     1     -40.690 -45.557  11.760  1.00  0.00    -0.172 N 
HETATM    2  C   UNL     1     -41.095 -46.308  10.674  1.00  0.00     0.682 A 
HETATM    3  N   UNL     1     -40.522 -47.494  10.681  1.00  0.00    -0.174 N 
ATOM      4  HN  UNL     1     -40.641 -48.244   9.999  1.00  0.00     0.186 HD
HETATM    5  C   UNL     1     -39.737 -47.507  11.793  1.00  0.00     0.160 A 
HETATM    6  N   UNL     1     -38.967 -48.555  12.252  1.00  0.00    -0.287 N 
HETATM    7  C   UNL     1     -38.846 -49.805  11.535  1.00  0.00     0.163 C 
HETATM    8  C   UNL     1     -38.304 -48.418  13.469  1.00  0.00     0.330 A 
HETATM    9  O   UNL     1     -37.627 -49.310  13.982  1.00  0.00    -0.246 OA
HETATM   10  N   UNL     1     -38.431 -47.210  14.125  1.00  0.00    -0.273 N 
HETATM   11  C   UNL     1     -39.162 -46.119  13.721  1.00  0.00     0.280 A 
HETATM   12  O   UNL     1     -39.232 -45.097  14.394  1.00  0.00    -0.265 OA
HETATM   13  C   UNL     1     -39.826 -46.335  12.483  1.00  0.00     0.164 A 
HETATM   14  H   UNL     1     -37.952 -47.132  15.009  1.00  0.00     0.173 HD
ENDROOT
BRANCH   2  15
HETATM   15  N   UNL     1     -42.030 -45.855   9.814  1.00  0.00    -0.224 N 
HETATM   16  H   UNL     1     -41.804 -45.279   9.010  1.00  0.00     0.177 HD
BRANCH  15  17
HETATM   17  C   UNL     1     -43.362 -46.458   9.796  1.00  0.00     0.164 C 
BRANCH  17  18
HETATM   18  C   UNL     1     -43.610 -47.126   8.437  1.00  0.00     0.184 C 
BRANCH  18  19
HETATM   19  O   UNL     1     -42.688 -48.202   8.253  1.00  0.00    -0.399 OA
HETATM   20  H   UNL     1     -41.927 -47.795   7.800  1.00  0.00     0.209 HD
ENDBRANCH  18  19
ENDBRANCH  17  18
ENDBRANCH  15  17
ENDBRANCH   2  15
BRANCH   1  21
HETATM   21  C   UNL     1     -41.235 -44.286  12.190  1.00  0.00     0.174 C 
BRANCH  21  22
HETATM   22  C   UNL     1     -40.692 -43.139  11.345  1.00  0.00     0.187 C 
BRANCH  22  23
HETATM   23  O   UNL     1     -41.688 -42.721  10.414  1.00  0.00    -0.394 OA
HETATM   24  C   UNL     1     -42.953 -42.568  11.048  1.00  0.00     0.201 C 
ENDBRANCH  22  23
ENDBRANCH  21  22
ENDBRANCH   1  21
TORSDOF 7
ENDMDL
MODEL 7
REMARK VINA RESULT:      -4.9      4.846      7.785
REMARK  7 active torsions:
REMARK  status: ('A' for Active; 'I' for Inactive)
REMARK    1  A    between atoms: O_2  and  C_3 
REMARK    2  A    between atoms: C_3  and  C_4 
REMARK    3  A    between atoms: C_4  and  N_5 
REMARK    4  A    between atoms: C_6  and  N_7 
REMARK    5  A    between atoms: N_7  and  C_8 
REMARK    6  A    between atoms: C_8  and  C_9 
REMARK    7  A    between atoms: C_9  and  O_10 
ROOT
HETATM    1  N   UNL     1     -44.413 -53.909  13.546  1.00  0.00    -0.172 N 
HETATM    2  C   UNL     1     -44.433 -52.948  12.554  1.00  0.00     0.682 A 
HETATM    3  N   UNL     1     -43.232 -52.439  12.368  1.00  0.00    -0.174 N 
ATOM      4  HN  UNL     1     -42.963 -51.714  11.702  1.00  0.00     0.186 HD
HETATM    5  C   UNL     1     -42.426 -53.086  13.253  1.00  0.00     0.160 A 
HETATM    6  N   UNL     1     -41.065 -52.925  13.407  1.00  0.00    -0.287 N 
HETATM    7  C   UNL     1     -40.306 -51.953  12.652  1.00  0.00     0.163 C 
HETATM    8  C   UNL     1     -40.388 -53.751  14.301  1.00  0.00     0.330 A 
HETATM    9  O   UNL     1     -39.170 -53.712  14.477  1.00  0.00    -0.246 OA
HETATM   10  N   UNL     1     -41.141 -54.662  15.013  1.00  0.00    -0.273 N 
HETATM   11  C   UNL     1     -42.497 -54.865  14.928  1.00  0.00     0.280 A 
HETATM   12  O   UNL     1     -43.069 -55.725  15.588  1.00  0.00    -0.265 OA
HETATM   13  C   UNL     1     -43.120 -54.004  13.985  1.00  0.00     0.164 A 
HETATM   14  H   UNL     1     -40.633 -55.258  15.649  1.00  0.00     0.173 HD
ENDROOT
BRANCH   2  15
HETATM   15  N   UNL     1     -45.552 -52.687  11.849  1.00  0.00    -0.224 N 
HETATM   16  H   UNL     1     -45.925 -53.324  11.154  1.00  0.00     0.177 HD
BRANCH  15  17
HETATM   17  C   UNL     1     -46.473 -51.642  12.296  1.00  0.00     0.164 C 
BRANCH  17  18
HETATM   18  C   UNL     1     -47.538 -51.395  11.220  1.00  0.00     0.184 C 
BRANCH  18  19
HETATM   19  O   UNL     1     -47.928 -52.639  10.634  1.00  0.00    -0.399 OA
HETATM   20  H   UNL     1     -48.138 -53.210  11.396  1.00  0.00     0.209 HD
ENDBRANCH  18  19
ENDBRANCH  17  18
ENDBRANCH  15  17
ENDBRANCH   2  15
BRANCH   1  21
HETATM   21  C   UNL     1     -45.489 -54.811  13.904  1.00  0.00     0.174 C 
BRANCH  21  22
HETATM   22  C   UNL     1     -46.199 -54.346  15.171  1.00  0.00     0.187 C 
BRANCH  22  23
HETATM   23  O   UNL     1     -45.851 -52.989  15.439  1.00  0.00    -0.394 OA
HETATM   24  C   UNL     1     -46.980 -52.248  15.890  1.00  0.00     0.201 C 
ENDBRANCH  22  23
ENDBRANCH  21  22
ENDBRANCH   1  21
TORSDOF 7
ENDMDL
MODEL 8
REMARK VINA RESULT:      -4.9      4.649      6.445
REMARK  7 active torsions:
REMARK  status: ('A' for Active; 'I' for Inactive)
REMARK    1  A    between atoms: O_2  and  C_3 
REMARK    2  A    between atoms: C_3  and  C_4 
REMARK    3  A    between atoms: C_4  and  N_5 
REMARK    4  A    between atoms: C_6  and  N_7 
REMARK    5  A    between atoms: N_7  and  C_8 
REMARK    6  A    between atoms: C_8  and  C_9 
REMARK    7  A    between atoms: C_9  and  O_10 
ROOT
HETATM    1  N   UNL     1     -41.023 -54.124  14.362  1.00  0.00    -0.172 N 
HETATM    2  C   UNL     1     -41.524 -54.832  15.437  1.00  0.00     0.682 A 
HETATM    3  N   UNL     1     -42.841 -54.860  15.409  1.00  0.00    -0.174 N 
ATOM      4  HN  UNL     1     -43.465 -55.311  16.080  1.00  0.00     0.186 HD
HETATM    5  C   UNL     1     -43.193 -54.161  14.296  1.00  0.00     0.160 A 
HETATM    6  N   UNL     1     -44.469 -53.948  13.818  1.00  0.00    -0.287 N 
HETATM    7  C   UNL     1     -45.648 -54.413  14.515  1.00  0.00     0.163 C 
HETATM    8  C   UNL     1     -44.629 -53.289  12.602  1.00  0.00     0.330 A 
HETATM    9  O   UNL     1     -45.724 -53.089  12.074  1.00  0.00    -0.246 OA
HETATM   10  N   UNL     1     -43.486 -52.850  11.967  1.00  0.00    -0.273 N 
HETATM   11  C   UNL     1     -42.188 -53.007  12.390  1.00  0.00     0.280 A 
HETATM   12  O   UNL     1     -41.236 -52.601  11.733  1.00  0.00    -0.265 OA
HETATM   13  C   UNL     1     -42.097 -53.704  13.625  1.00  0.00     0.164 A 
HETATM   14  H   UNL     1     -43.620 -52.383  11.083  1.00  0.00     0.173 HD
ENDROOT
BRANCH   2  15
HETATM   15  N   UNL     1     -40.709 -55.463  16.306  1.00  0.00    -0.224 N 
HETATM   16  H   UNL     1     -39.876 -55.032  16.691  1.00  0.00     0.177 HD
BRANCH  15  17
HETATM   17  C   UNL     1     -41.171 -56.662  17.006  1.00  0.00     0.164 C 
BRANCH  17  18
HETATM   18  C   UNL     1     -39.980 -57.584  17.296  1.00  0.00     0.184 C 
BRANCH  18  19
HETATM   19  O   UNL     1     -38.767 -56.946  16.890  1.00  0.00    -0.399 OA
HETATM   20  H   UNL     1     -39.046 -56.059  16.596  1.00  0.00     0.209 HD
ENDBRANCH  18  19
ENDBRANCH  17  18
ENDBRANCH  15  17
ENDBRANCH   2  15
BRANCH   1  21
HETATM   21  C   UNL     1     -39.636 -54.029  13.954  1.00  0.00     0.174 C 
BRANCH  21  22
HETATM   22  C   UNL     1     -39.018 -52.710  14.404  1.00  0.00     0.187 C 
BRANCH  22  23
HETATM   23  O   UNL     1     -38.303 -52.125  13.318  1.00  0.00    -0.394 OA
HETATM   24  C   UNL     1     -38.581 -50.734  13.207  1.00  0.00     0.201 C 
ENDBRANCH  22  23
ENDBRANCH  21  22
ENDBRANCH   1  21
TORSDOF 7
ENDMDL
MODEL 9
REMARK VINA RESULT:      -4.7      3.605      7.882
REMARK  7 active torsions:
REMARK  status: ('A' for Active; 'I' for Inactive)
REMARK    1  A    between atoms: O_2  and  C_3 
REMARK    2  A    between atoms: C_3  and  C_4 
REMARK    3  A    between atoms: C_4  and  N_5 
REMARK    4  A    between atoms: C_6  and  N_7 
REMARK    5  A    between atoms: N_7  and  C_8 
REMARK    6  A    between atoms: C_8  and  C_9 
REMARK    7  A    between atoms: C_9  and  O_10 
ROOT
HETATM    1  N   UNL     1     -42.932 -53.037  13.228  1.00  0.00    -0.172 N 
HETATM    2  C   UNL     1     -41.856 -52.261  12.841  1.00  0.00     0.682 A 
HETATM    3  N   UNL     1     -40.772 -52.590  13.514  1.00  0.00    -0.174 N 
ATOM      4  HN  UNL     1     -39.842 -52.178  13.429  1.00  0.00     0.186 HD
HETATM    5  C   UNL     1     -41.157 -53.596  14.345  1.00  0.00     0.160 A 
HETATM    6  N   UNL     1     -40.358 -54.299  15.222  1.00  0.00    -0.287 N 
HETATM    7  C   UNL     1     -38.958 -53.991  15.418  1.00  0.00     0.163 C 
HETATM    8  C   UNL     1     -40.909 -55.369  15.924  1.00  0.00     0.330 A 
HETATM    9  O   UNL     1     -40.267 -56.082  16.696  1.00  0.00    -0.246 OA
HETATM   10  N   UNL     1     -42.248 -55.632  15.722  1.00  0.00    -0.273 N 
HETATM   11  C   UNL     1     -43.109 -54.966  14.883  1.00  0.00     0.280 A 
HETATM   12  O   UNL     1     -44.281 -55.299  14.756  1.00  0.00    -0.265 OA
HETATM   13  C   UNL     1     -42.477 -53.901  14.186  1.00  0.00     0.164 A 
HETATM   14  H   UNL     1     -42.628 -56.416  16.231  1.00  0.00     0.173 HD
ENDROOT
BRANCH   2  15
HETATM   15  N   UNL     1     -41.957 -51.370  11.834  1.00  0.00    -0.224 N 
HETATM   16  H   UNL     1     -42.273 -51.624  10.905  1.00  0.00     0.177 HD
BRANCH  15  17
HETATM   17  C   UNL     1     -41.953 -49.936  12.122  1.00  0.00     0.164 C 
BRANCH  17  18
HETATM   18  C   UNL     1     -40.812 -49.256  11.355  1.00  0.00     0.184 C 
BRANCH  18  19
HETATM   19  O   UNL     1     -40.405 -50.084  10.263  1.00  0.00    -0.399 OA
HETATM   20  H   UNL     1     -40.351 -50.979  10.645  1.00  0.00     0.209 HD
ENDBRANCH  18  19
ENDBRANCH  17  18
ENDBRANCH  15  17
ENDBRANCH   2  15
BRANCH   1  21
HETATM   21  C   UNL     1     -44.234 -53.095  12.595  1.00  0.00     0.174 C 
BRANCH  21  22
HETATM   22  C   UNL     1     -45.146 -51.988  13.109  1.00  0.00     0.187 C 
BRANCH  22  23
HETATM   23  O   UNL     1     -45.567 -52.297  14.437  1.00  0.00    -0.394 OA
HETATM   24  C   UNL     1     -46.827 -52.959  14.437  1.00  0.00     0.201 C 
ENDBRANCH  22  23
ENDBRANCH  21  22
ENDBRANCH   1  21
TORSDOF 7
ENDMDL
